MODEL 1
REMARK VINA RESULT:      -2.9      0.000      0.000
REMARK  5 active torsions:
REMARK  status: ('A' for Active; 'I' for Inactive)
REMARK    1  A    between atoms: C_6  and  N_1 
REMARK    2  A    between atoms: C_10  and  C_3 
REMARK    3  A    between atoms: C_7  and  C_6 
REMARK    4  A    between atoms: C_13  and  C_10 
REMARK    5  A    between atoms: C_14  and  C_13 
ROOT
ATOM      1  N   UNL d   1      32.950  22.702 -20.630  0.00  0.00    -0.289 N 
ATOM      2  N   UNL d   1      33.202  21.810 -19.654  0.00  0.00    -0.227 NA
ATOM      3  C   UNL d   1      33.068  22.633 -19.816  0.00  0.00     0.148 A 
ATOM      4  C   UNL d   1      33.005  21.975 -20.970  0.00  0.00     0.083 A 
ATOM      5  C   UNL d   1      33.164  21.412 -20.354  0.00  0.00     0.099 A 
ATOM      6  C   UNL d   1      32.937  21.719 -21.749  0.00  0.00     0.019 A 
ATOM      7  C   UNL d   1      33.240  20.625 -20.596  0.00  0.00     0.021 A 
ATOM      8  C   UNL d   1      33.021  20.942 -21.918  0.00  0.00     0.002 A 
ATOM      9  C   UNL d   1      33.175  20.399 -21.323  0.00  0.00     0.002 A 
ENDROOT
BRANCH   1  10
ATOM     10  C   UNL d   1      32.818  23.442 -20.865  0.00  0.00     0.088 C 
BRANCH  10  11
ATOM     11  C   UNL d   1      32.349  23.613 -21.507  0.00  0.00     0.052 C 
ATOM     12  C   UNL d   1      31.537  23.701 -21.389  0.00  0.00     0.009 C 
ATOM     13 BR   UNL d   1      32.643  23.702 -22.264  0.00  0.00    -0.048 Br
ENDBRANCH  10  11
ENDBRANCH   1  10
BRANCH   3  14
ATOM     14  C   UNL d   1      33.058  23.240 -19.258  0.00  0.00     0.037 C 
BRANCH  14  15
ATOM     15  C   UNL d   1      33.069  23.061 -18.452  0.00  0.00     0.003 C 
BRANCH  15  16
ATOM     16  C   UNL d   1      33.091  23.669 -17.895  0.00  0.00     0.000 C 
ATOM     17  C   UNL d   1      32.973  23.500 -17.097  0.00  0.00     0.000 C 
ENDBRANCH  15  16
ENDBRANCH  14  15
ENDBRANCH   3  14
TORSDOF 5
ENDMDL
MODEL 2
REMARK VINA RESULT:      -2.5      5.945      7.245
REMARK  5 active torsions:
REMARK  status: ('A' for Active; 'I' for Inactive)
REMARK    1  A    between atoms: C_6  and  N_1 
REMARK    2  A    between atoms: C_10  and  C_3 
REMARK    3  A    between atoms: C_7  and  C_6 
REMARK    4  A    between atoms: C_13  and  C_10 
REMARK    5  A    between atoms: C_14  and  C_13 
ROOT
ATOM      1  N   UNL d   1      31.996  16.849 -23.852  0.00  0.00    -0.289 N 
ATOM      2  N   UNL d   1      31.186  17.668 -24.549  0.00  0.00    -0.227 NA
ATOM      3  C   UNL d   1      31.990  17.539 -24.305  0.00  0.00     0.148 A 
ATOM      4  C   UNL d   1      31.249  16.553 -23.807  0.00  0.00     0.083 A 
ATOM      5  C   UNL d   1      30.738  17.070 -24.247  0.00  0.00     0.099 A 
ATOM      6  C   UNL d   1      30.936  15.890 -23.435  0.00  0.00     0.019 A 
ATOM      7  C   UNL d   1      29.939  16.857 -24.266  0.00  0.00     0.021 A 
ATOM      8  C   UNL d   1      30.152  15.738 -23.491  0.00  0.00     0.002 A 
ATOM      9  C   UNL d   1      29.659  16.237 -23.916  0.00  0.00     0.002 A 
ENDROOT
BRANCH   1  10
ATOM     10  C   UNL d   1      32.711  16.657 -23.584  0.00  0.00     0.088 C 
BRANCH  10  11
ATOM     11  C   UNL d   1      33.007  15.902 -23.647  0.00  0.00     0.052 C 
ATOM     12  C   UNL d   1      33.095  15.456 -22.959  0.00  0.00     0.009 C 
ATOM     13 BR   UNL d   1      33.221  15.564 -24.360  0.00  0.00    -0.048 Br
ENDBRANCH  10  11
ENDBRANCH   1  10
BRANCH   3  14
ATOM     14  C   UNL d   1      32.635  18.018 -24.491  0.00  0.00     0.037 C 
BRANCH  14  15
ATOM     15  C   UNL d   1      32.512  18.781 -24.782  0.00  0.00     0.003 C 
BRANCH  15  16
ATOM     16  C   UNL d   1      33.144  19.210 -25.092  0.00  0.00     0.000 C 
ATOM     17  C   UNL d   1      33.223  20.012 -24.917  0.00  0.00     0.000 C 
ENDBRANCH  15  16
ENDBRANCH  14  15
ENDBRANCH   3  14
TORSDOF 5
ENDMDL
MODEL 3
REMARK VINA RESULT:      -1.6      1.333      2.316
REMARK  5 active torsions:
REMARK  status: ('A' for Active; 'I' for Inactive)
REMARK    1  A    between atoms: C_6  and  N_1 
REMARK    2  A    between atoms: C_10  and  C_3 
REMARK    3  A    between atoms: C_7  and  C_6 
REMARK    4  A    between atoms: C_13  and  C_10 
REMARK    5  A    between atoms: C_14  and  C_13 
ROOT
ATOM      1  N   UNL d   1      32.984  22.353 -21.363  0.00  0.00    -0.289 N 
ATOM      2  N   UNL d   1      32.432  23.581 -21.383  0.00  0.00    -0.227 NA
ATOM      3  C   UNL d   1      32.680  22.946 -20.875  0.00  0.00     0.148 A 
ATOM      4  C   UNL d   1      32.936  22.588 -22.131  0.00  0.00     0.083 A 
ATOM      5  C   UNL d   1      32.588  23.363 -22.144  0.00  0.00     0.099 A 
ATOM      6  C   UNL d   1      33.152  22.226 -22.836  0.00  0.00     0.019 A 
ATOM      7  C   UNL d   1      32.491  23.702 -22.891  0.00  0.00     0.021 A 
ATOM      8  C   UNL d   1      33.032  22.608 -23.529  0.00  0.00     0.002 A 
ATOM      9  C   UNL d   1      32.696  23.356 -23.542  0.00  0.00     0.002 A 
ENDROOT
BRANCH   1  10
ATOM     10  C   UNL d   1      33.238  21.723 -20.965  0.00  0.00     0.088 C 
BRANCH  10  11
ATOM     11  C   UNL d   1      32.934  20.980 -21.095  0.00  0.00     0.052 C 
ATOM     12  C   UNL d   1      32.293  20.732 -20.639  0.00  0.00     0.009 C 
ATOM     13 BR   UNL d   1      33.232  20.467 -21.656  0.00  0.00    -0.048 Br
ENDBRANCH  10  11
ENDBRANCH   1  10
BRANCH   3  14
ATOM     14  C   UNL d   1      32.623  22.935 -20.053  0.00  0.00     0.037 C 
BRANCH  14  15
ATOM     15  C   UNL d   1      32.598  23.644 -19.631  0.00  0.00     0.003 C 
BRANCH  15  16
ATOM     16  C   UNL d   1      32.345  23.648 -18.845  0.00  0.00     0.000 C 
ATOM     17  C   UNL d   1      32.891  23.537 -18.237  0.00  0.00     0.000 C 
ENDBRANCH  15  16
ENDBRANCH  14  15
ENDBRANCH   3  14
TORSDOF 5
ENDMDL
MODEL 4
REMARK VINA RESULT:      -1.1      7.427      8.046
REMARK  5 active torsions:
REMARK  status: ('A' for Active; 'I' for Inactive)
REMARK    1  A    between atoms: C_6  and  N_1 
REMARK    2  A    between atoms: C_10  and  C_3 
REMARK    3  A    between atoms: C_7  and  C_6 
REMARK    4  A    between atoms: C_13  and  C_10 
REMARK    5  A    between atoms: C_14  and  C_13 
ROOT
ATOM      1  N   UNL d   1      29.841  16.600 -24.399  0.00  0.00    -0.289 N 
ATOM      2  N   UNL d   1      30.281  15.702 -23.498  0.00  0.00    -0.227 NA
ATOM      3  C   UNL d   1      30.513  16.187 -24.157  0.00  0.00     0.148 A 
ATOM      4  C   UNL d   1      29.219  16.397 -23.929  0.00  0.00     0.083 A 
ATOM      5  C   UNL d   1      29.497  15.831 -23.361  0.00  0.00     0.099 A 
ATOM      6  C   UNL d   1      28.432  16.633 -23.918  0.00  0.00     0.019 A 
ATOM      7  C   UNL d   1      28.934  15.552 -22.824  0.00  0.00     0.021 A 
ATOM      8  C   UNL d   1      27.935  16.326 -23.372  0.00  0.00     0.002 A 
ATOM      9  C   UNL d   1      28.204  15.779 -22.823  0.00  0.00     0.002 A 
ENDROOT
BRANCH   1  10
ATOM     10  C   UNL d   1      29.972  17.077 -25.011  0.00  0.00     0.088 C 
BRANCH  10  11
ATOM     11  C   UNL d   1      29.908  17.886 -24.949  0.00  0.00     0.052 C 
ATOM     12  C   UNL d   1      29.175  18.235 -25.096  0.00  0.00     0.009 C 
ATOM     13 BR   UNL d   1      30.535  18.369 -24.748  0.00  0.00    -0.048 Br
ENDBRANCH  10  11
ENDBRANCH   1  10
BRANCH   3  14
ATOM     14  C   UNL d   1      31.268  16.229 -24.485  0.00  0.00     0.037 C 
BRANCH  14  15
ATOM     15  C   UNL d   1      31.864  15.724 -24.216  0.00  0.00     0.003 C 
BRANCH  15  16
ATOM     16  C   UNL d   1      32.444  15.455 -24.738  0.00  0.00     0.000 C 
ATOM     17  C   UNL d   1      33.241  15.547 -24.550  0.00  0.00     0.000 C 
ENDBRANCH  15  16
ENDBRANCH  14  15
ENDBRANCH   3  14
TORSDOF 5
ENDMDL
MODEL 5
REMARK VINA RESULT:      -1.1      2.089      3.993
REMARK  5 active torsions:
REMARK  status: ('A' for Active; 'I' for Inactive)
REMARK    1  A    between atoms: C_6  and  N_1 
REMARK    2  A    between atoms: C_10  and  C_3 
REMARK    3  A    between atoms: C_7  and  C_6 
REMARK    4  A    between atoms: C_13  and  C_10 
REMARK    5  A    between atoms: C_14  and  C_13 
ROOT
ATOM      1  N   UNL d   1      33.186  21.241 -21.936  0.00  0.00    -0.289 N 
ATOM      2  N   UNL d   1      33.240  20.968 -23.253  0.00  0.00    -0.227 NA
ATOM      3  C   UNL d   1      33.222  20.619 -22.479  0.00  0.00     0.148 A 
ATOM      4  C   UNL d   1      33.181  21.940 -22.333  0.00  0.00     0.083 A 
ATOM      5  C   UNL d   1      33.215  21.768 -23.164  0.00  0.00     0.099 A 
ATOM      6  C   UNL d   1      33.152  22.722 -22.079  0.00  0.00     0.019 A 
ATOM      7  C   UNL d   1      33.215  22.424 -23.668  0.00  0.00     0.021 A 
ATOM      8  C   UNL d   1      33.155  23.313 -22.618  0.00  0.00     0.002 A 
ATOM      9  C   UNL d   1      33.187  23.147 -23.421  0.00  0.00     0.002 A 
ENDROOT
BRANCH   1  10
ATOM     10  C   UNL d   1      33.166  21.000 -21.187  0.00  0.00     0.088 C 
BRANCH  10  11
ATOM     11  C   UNL d   1      32.766  21.412 -20.612  0.00  0.00     0.052 C 
ATOM     12  C   UNL d   1      31.977  21.611 -20.748  0.00  0.00     0.009 C 
ATOM     13 BR   UNL d   1      33.107  21.640 -19.906  0.00  0.00    -0.048 Br
ENDBRANCH  10  11
ENDBRANCH   1  10
BRANCH   3  14
ATOM     14  C   UNL d   1      33.237  19.812 -22.311  0.00  0.00     0.037 C 
BRANCH  14  15
ATOM     15  C   UNL d   1      32.803  19.285 -22.775  0.00  0.00     0.003 C 
BRANCH  15  16
ATOM     16  C   UNL d   1      32.908  18.472 -22.684  0.00  0.00     0.000 C 
ATOM     17  C   UNL d   1      33.023  17.995 -23.347  0.00  0.00     0.000 C 
ENDBRANCH  15  16
ENDBRANCH  14  15
ENDBRANCH   3  14
TORSDOF 5
ENDMDL
MODEL 6
REMARK VINA RESULT:      -1.0      1.627      3.626
REMARK  5 active torsions:
REMARK  status: ('A' for Active; 'I' for Inactive)
REMARK    1  A    between atoms: C_6  and  N_1 
REMARK    2  A    between atoms: C_10  and  C_3 
REMARK    3  A    between atoms: C_7  and  C_6 
REMARK    4  A    between atoms: C_13  and  C_10 
REMARK    5  A    between atoms: C_14  and  C_13 
ROOT
ATOM      1  N   UNL d   1      32.981  22.137 -22.468  0.00  0.00    -0.289 N 
ATOM      2  N   UNL d   1      32.713  21.178 -21.562  0.00  0.00    -0.227 NA
ATOM      3  C   UNL d   1      32.997  21.320 -22.350  0.00  0.00     0.148 A 
ATOM      4  C   UNL d   1      32.706  22.497 -21.803  0.00  0.00     0.083 A 
ATOM      5  C   UNL d   1      32.537  21.892 -21.231  0.00  0.00     0.099 A 
ATOM      6  C   UNL d   1      32.576  23.286 -21.612  0.00  0.00     0.019 A 
ATOM      7  C   UNL d   1      32.245  22.155 -20.503  0.00  0.00     0.021 A 
ATOM      8  C   UNL d   1      32.292  23.476 -20.889  0.00  0.00     0.002 A 
ATOM      9  C   UNL d   1      32.129  22.892 -20.337  0.00  0.00     0.002 A 
ENDROOT
BRANCH   1  10
ATOM     10  C   UNL d   1      33.231  22.354 -23.182  0.00  0.00     0.088 C 
BRANCH  10  11
ATOM     11  C   UNL d   1      32.876  22.955 -23.599  0.00  0.00     0.052 C 
ATOM     12  C   UNL d   1      32.148  22.809 -23.958  0.00  0.00     0.009 C 
ATOM     13 BR   UNL d   1      33.206  23.699 -23.679  0.00  0.00    -0.048 Br
ENDBRANCH  10  11
ENDBRANCH   1  10
BRANCH   3  14
ATOM     14  C   UNL d   1      33.240  20.744 -22.887  0.00  0.00     0.037 C 
BRANCH  14  15
ATOM     15  C   UNL d   1      32.943  19.976 -22.831  0.00  0.00     0.003 C 
BRANCH  15  16
ATOM     16  C   UNL d   1      33.077  19.436 -23.441  0.00  0.00     0.000 C 
ATOM     17  C   UNL d   1      32.539  18.826 -23.577  0.00  0.00     0.000 C 
ENDBRANCH  15  16
ENDBRANCH  14  15
ENDBRANCH   3  14
TORSDOF 5
ENDMDL
MODEL 7
REMARK VINA RESULT:      -1.0      7.105      7.927
REMARK  5 active torsions:
REMARK  status: ('A' for Active; 'I' for Inactive)
REMARK    1  A    between atoms: C_6  and  N_1 
REMARK    2  A    between atoms: C_10  and  C_3 
REMARK    3  A    between atoms: C_7  and  C_6 
REMARK    4  A    between atoms: C_13  and  C_10 
REMARK    5  A    between atoms: C_14  and  C_13 
ROOT
ATOM      1  N   UNL d   1      29.879  16.469 -24.093  0.00  0.00    -0.289 N 
ATOM      2  N   UNL d   1      30.751  17.329 -24.651  0.00  0.00    -0.227 NA
ATOM      3  C   UNL d   1      30.683  16.590 -24.236  0.00  0.00     0.148 A 
ATOM      4  C   UNL d   1      29.458  17.086 -24.394  0.00  0.00     0.083 A 
ATOM      5  C   UNL d   1      30.009  17.628 -24.745  0.00  0.00     0.099 A 
ATOM      6  C   UNL d   1      28.653  17.253 -24.410  0.00  0.00     0.019 A 
ATOM      7  C   UNL d   1      29.680  18.305 -25.088  0.00  0.00     0.021 A 
ATOM      8  C   UNL d   1      28.397  17.927 -24.757  0.00  0.00     0.002 A 
ATOM      9  C   UNL d   1      28.929  18.451 -25.097  0.00  0.00     0.002 A 
ENDROOT
BRANCH   1  10
ATOM     10  C   UNL d   1      29.728  15.799 -23.709  0.00  0.00     0.088 C 
BRANCH  10  11
ATOM     11  C   UNL d   1      29.021  15.669 -23.329  0.00  0.00     0.052 C 
ATOM     12  C   UNL d   1      28.992  15.759 -22.509  0.00  0.00     0.009 C 
ATOM     13 BR   UNL d   1      28.336  15.455 -23.720  0.00  0.00    -0.048 Br
ENDBRANCH  10  11
ENDBRANCH   1  10
BRANCH   3  14
ATOM     14  C   UNL d   1      31.307  16.096 -24.023  0.00  0.00     0.037 C 
BRANCH  14  15
ATOM     15  C   UNL d   1      32.065  16.407 -23.926  0.00  0.00     0.003 C 
BRANCH  15  16
ATOM     16  C   UNL d   1      32.660  15.946 -23.588  0.00  0.00     0.000 C 
ATOM     17  C   UNL d   1      33.212  16.291 -23.083  0.00  0.00     0.000 C 
ENDBRANCH  15  16
ENDBRANCH  14  15
ENDBRANCH   3  14
TORSDOF 5
ENDMDL
MODEL 8
REMARK VINA RESULT:      -0.9      1.414      2.063
REMARK  5 active torsions:
REMARK  status: ('A' for Active; 'I' for Inactive)
REMARK    1  A    between atoms: C_6  and  N_1 
REMARK    2  A    between atoms: C_10  and  C_3 
REMARK    3  A    between atoms: C_7  and  C_6 
REMARK    4  A    between atoms: C_13  and  C_10 
REMARK    5  A    between atoms: C_14  and  C_13 
ROOT
ATOM      1  N   UNL d   1      33.144  21.852 -22.465  0.00  0.00    -0.289 N 
ATOM      2  N   UNL d   1      32.923  21.132 -21.349  0.00  0.00    -0.227 NA
ATOM      3  C   UNL d   1      33.015  21.921 -21.652  0.00  0.00     0.148 A 
ATOM      4  C   UNL d   1      33.136  21.074 -22.672  0.00  0.00     0.083 A 
ATOM      5  C   UNL d   1      32.997  20.620 -21.968  0.00  0.00     0.099 A 
ATOM      6  C   UNL d   1      33.233  20.691 -23.392  0.00  0.00     0.019 A 
ATOM      7  C   UNL d   1      32.969  19.800 -22.068  0.00  0.00     0.021 A 
ATOM      8  C   UNL d   1      33.195  19.892 -23.423  0.00  0.00     0.002 A 
ATOM      9  C   UNL d   1      33.061  19.454 -22.743  0.00  0.00     0.002 A 
ENDROOT
BRANCH   1  10
ATOM     10  C   UNL d   1      33.239  22.546 -22.825  0.00  0.00     0.088 C 
BRANCH  10  11
ATOM     11  C   UNL d   1      32.810  22.752 -23.484  0.00  0.00     0.052 C 
ATOM     12  C   UNL d   1      33.136  22.608 -24.227  0.00  0.00     0.009 C 
ATOM     13 BR   UNL d   1      32.069  23.096 -23.445  0.00  0.00    -0.048 Br
ENDBRANCH  10  11
ENDBRANCH   1  10
BRANCH   3  14
ATOM     14  C   UNL d   1      32.980  22.615 -21.210  0.00  0.00     0.037 C 
BRANCH  14  15
ATOM     15  C   UNL d   1      32.952  22.580 -20.386  0.00  0.00     0.003 C 
BRANCH  15  16
ATOM     16  C   UNL d   1      32.588  23.184 -19.959  0.00  0.00     0.000 C 
ATOM     17  C   UNL d   1      32.734  23.264 -19.151  0.00  0.00     0.000 C 
ENDBRANCH  15  16
ENDBRANCH  14  15
ENDBRANCH   3  14
TORSDOF 5
ENDMDL
