MODEL 1
REMARK VINA RESULT:      -9.5      0.000      0.000
REMARK  3 active torsions:
REMARK  status: ('A' for Active; 'I' for Inactive)
REMARK    1  A    between atoms: C_9  and  C_4 
REMARK    2  A    between atoms: C_10  and  C_7 
REMARK    3  A    between atoms: C_17  and  C_10 
ROOT
ATOM      1  C   UNL d   1      51.557  33.217  53.199  0.00  0.00     0.179 A 
ATOM      2  N   UNL d   1      51.991  33.771  52.758  0.00  0.00    -0.282 N 
ATOM      3  N   UNL d   1      50.755  33.405  53.129  0.00  0.00    -0.221 NA
ATOM      4  C   UNL d   1      50.691  34.078  52.644  0.00  0.00     0.101 A 
ATOM      5  S   UNL d   1      52.088  32.687  53.540  0.00  0.00    -0.048 SA
ATOM      6  C   UNL d   1      51.452  34.296  52.421  0.00  0.00     0.101 A 
ATOM      7  C   UNL d   1      52.849  32.917  53.308  0.00  0.00     0.050 A 
ATOM      8  C   UNL d   1      52.785  33.574  52.834  0.00  0.00     0.089 A 
ENDROOT
BRANCH   4   9
ATOM      9  C   UNL d   1      49.994  34.446  52.434  0.00  0.00     0.019 A 
ATOM     10  C   UNL d   1      49.609  34.929  52.981  0.00  0.00     0.004 A 
ATOM     11  C   UNL d   1      48.903  35.308  52.781  0.00  0.00     0.030 A 
ATOM     12  C   UNL d   1      48.584  35.196  52.026  0.00  0.00     0.140 A 
ATOM     13  C   UNL d   1      48.964  34.717  51.479  0.00  0.00     0.030 A 
ATOM     14  F   UNL d   1      47.898  35.495  51.668  0.00  0.00    -0.204 F 
ATOM     15  C   UNL d   1      49.668  34.340  51.679  0.00  0.00     0.004 A 
ENDBRANCH   4   9
BRANCH   7  16
ATOM     16  C   UNL d   1      53.546  32.533  53.529  0.00  0.00     0.008 C 
BRANCH  16  17
ATOM     17  C   UNL d   1      54.054  32.867  54.084  0.00  0.00     0.001 A 
ATOM     18  C   UNL d   1      53.903  32.796  54.888  0.00  0.00     0.000 A 
ATOM     19  C   UNL d   1      54.417  33.134  55.446  0.00  0.00     0.000 A 
ATOM     20  C   UNL d   1      55.086  33.544  55.189  0.00  0.00     0.000 A 
ATOM     21  C   UNL d   1      55.242  33.618  54.383  0.00  0.00     0.000 A 
ATOM     22  C   UNL d   1      54.729  33.281  53.826  0.00  0.00     0.000 A 
ENDBRANCH  16  17
ENDBRANCH   7  16
TORSDOF 3
ENDMDL
MODEL 2
REMARK VINA RESULT:      -7.6      2.972      5.286
REMARK  3 active torsions:
REMARK  status: ('A' for Active; 'I' for Inactive)
REMARK    1  A    between atoms: C_9  and  C_4 
REMARK    2  A    between atoms: C_10  and  C_7 
REMARK    3  A    between atoms: C_17  and  C_10 
ROOT
ATOM      1  C   UNL d   1      52.955  32.194  53.606  0.00  0.00     0.179 A 
ATOM      2  N   UNL d   1      52.510  31.850  52.994  0.00  0.00    -0.282 N 
ATOM      3  N   UNL d   1      53.278  31.586  54.062  0.00  0.00    -0.221 NA
ATOM      4  C   UNL d   1      53.033  30.862  53.733  0.00  0.00     0.101 A 
ATOM      5  S   UNL d   1      52.907  33.013  53.528  0.00  0.00    -0.048 SA
ATOM      6  C   UNL d   1      52.564  31.032  53.081  0.00  0.00     0.101 A 
ATOM      7  C   UNL d   1      52.432  33.172  52.868  0.00  0.00     0.050 A 
ATOM      8  C   UNL d   1      52.194  32.463  52.548  0.00  0.00     0.089 A 
ENDROOT
BRANCH   4   9
ATOM      9  C   UNL d   1      53.230  30.122  54.017  0.00  0.00     0.019 A 
ATOM     10  C   UNL d   1      53.611  29.585  53.520  0.00  0.00     0.004 A 
ATOM     11  C   UNL d   1      53.816  28.833  53.795  0.00  0.00     0.030 A 
ATOM     12  C   UNL d   1      53.635  28.625  54.575  0.00  0.00     0.140 A 
ATOM     13  C   UNL d   1      53.256  29.156  55.072  0.00  0.00     0.030 A 
ATOM     14  F   UNL d   1      53.766  27.927  55.004  0.00  0.00    -0.204 F 
ATOM     15  C   UNL d   1      53.052  29.905  54.797  0.00  0.00     0.004 A 
ENDBRANCH   4   9
BRANCH   7  16
ATOM     16  C   UNL d   1      52.242  33.927  52.594  0.00  0.00     0.008 C 
BRANCH  16  17
ATOM     17  C   UNL d   1      51.458  34.173  52.546  0.00  0.00     0.001 A 
ATOM     18  C   UNL d   1      51.061  34.441  53.213  0.00  0.00     0.000 A 
ATOM     19  C   UNL d   1      50.269  34.689  53.163  0.00  0.00     0.000 A 
ATOM     20  C   UNL d   1      49.881  34.666  52.435  0.00  0.00     0.000 A 
ATOM     21  C   UNL d   1      50.275  34.399  51.762  0.00  0.00     0.000 A 
ATOM     22  C   UNL d   1      51.065  34.151  51.813  0.00  0.00     0.000 A 
ENDBRANCH  16  17
ENDBRANCH   7  16
TORSDOF 3
ENDMDL
MODEL 3
REMARK VINA RESULT:      -7.5      2.013      5.136
REMARK  3 active torsions:
REMARK  status: ('A' for Active; 'I' for Inactive)
REMARK    1  A    between atoms: C_9  and  C_4 
REMARK    2  A    between atoms: C_10  and  C_7 
REMARK    3  A    between atoms: C_17  and  C_10 
ROOT
ATOM      1  C   UNL d   1      51.462  33.588  53.290  0.00  0.00     0.179 A 
ATOM      2  N   UNL d   1      51.783  34.222  52.860  0.00  0.00    -0.282 N 
ATOM      3  N   UNL d   1      52.038  33.320  53.819  0.00  0.00    -0.221 NA
ATOM      4  C   UNL d   1      52.717  33.789  53.718  0.00  0.00     0.101 A 
ATOM      5  S   UNL d   1      50.691  33.464  53.027  0.00  0.00    -0.048 SA
ATOM      6  C   UNL d   1      52.554  34.339  53.130  0.00  0.00     0.101 A 
ATOM      7  C   UNL d   1      50.539  34.023  52.435  0.00  0.00     0.050 A 
ATOM      8  C   UNL d   1      51.204  34.480  52.338  0.00  0.00     0.089 A 
ENDROOT
BRANCH   4   9
ATOM      9  C   UNL d   1      53.414  33.708  54.134  0.00  0.00     0.019 A 
ATOM     10  C   UNL d   1      53.944  33.110  53.928  0.00  0.00     0.004 A 
ATOM     11  C   UNL d   1      54.653  33.018  54.341  0.00  0.00     0.030 A 
ATOM     12  C   UNL d   1      54.827  33.532  54.966  0.00  0.00     0.140 A 
ATOM     13  C   UNL d   1      54.303  34.128  55.174  0.00  0.00     0.030 A 
ATOM     14  F   UNL d   1      55.480  33.579  55.476  0.00  0.00    -0.204 F 
ATOM     15  C   UNL d   1      53.597  34.219  54.762  0.00  0.00     0.004 A 
ENDBRANCH   4   9
BRANCH   7  16
ATOM     16  C   UNL d   1      49.827  34.092  52.023  0.00  0.00     0.008 C 
BRANCH  16  17
ATOM     17  C   UNL d   1      49.284  34.680  52.214  0.00  0.00     0.001 A 
ATOM     18  C   UNL d   1      49.230  34.970  52.980  0.00  0.00     0.000 A 
ATOM     19  C   UNL d   1      48.682  35.564  53.170  0.00  0.00     0.000 A 
ATOM     20  C   UNL d   1      48.186  35.865  52.582  0.00  0.00     0.000 A 
ATOM     21  C   UNL d   1      48.236  35.577  51.811  0.00  0.00     0.000 A 
ATOM     22  C   UNL d   1      48.784  34.984  51.621  0.00  0.00     0.000 A 
ENDBRANCH  16  17
ENDBRANCH   7  16
TORSDOF 3
ENDMDL
MODEL 4
REMARK VINA RESULT:      -7.5      2.740      3.836
REMARK  3 active torsions:
REMARK  status: ('A' for Active; 'I' for Inactive)
REMARK    1  A    between atoms: C_9  and  C_4 
REMARK    2  A    between atoms: C_10  and  C_7 
REMARK    3  A    between atoms: C_17  and  C_10 
ROOT
ATOM      1  C   UNL d   1      52.822  32.243  53.425  0.00  0.00     0.179 A 
ATOM      2  N   UNL d   1      53.573  32.195  53.778  0.00  0.00    -0.282 N 
ATOM      3  N   UNL d   1      52.554  33.021  53.495  0.00  0.00    -0.221 NA
ATOM      4  C   UNL d   1      53.140  33.458  53.893  0.00  0.00     0.101 A 
ATOM      5  S   UNL d   1      52.626  31.495  53.138  0.00  0.00    -0.048 SA
ATOM      6  C   UNL d   1      53.760  32.946  54.062  0.00  0.00     0.101 A 
ATOM      7  C   UNL d   1      53.257  30.989  53.314  0.00  0.00     0.050 A 
ATOM      8  C   UNL d   1      53.828  31.418  53.702  0.00  0.00     0.089 A 
ENDROOT
BRANCH   4   9
ATOM      9  C   UNL d   1      53.096  34.252  54.076  0.00  0.00     0.019 A 
ATOM     10  C   UNL d   1      52.898  34.795  53.486  0.00  0.00     0.004 A 
ATOM     11  C   UNL d   1      52.849  35.601  53.658  0.00  0.00     0.030 A 
ATOM     12  C   UNL d   1      53.002  35.860  54.429  0.00  0.00     0.140 A 
ATOM     13  C   UNL d   1      53.200  35.324  55.018  0.00  0.00     0.030 A 
ATOM     14  F   UNL d   1      52.999  36.618  54.767  0.00  0.00    -0.204 F 
ATOM     15  C   UNL d   1      53.248  34.520  54.846  0.00  0.00     0.004 A 
ENDBRANCH   4   9
BRANCH   7  16
ATOM     16  C   UNL d   1      53.286  30.187  53.122  0.00  0.00     0.008 C 
BRANCH  16  17
ATOM     17  C   UNL d   1      53.293  29.612  53.711  0.00  0.00     0.001 A 
ATOM     18  C   UNL d   1      52.603  29.408  54.107  0.00  0.00     0.000 A 
ATOM     19  C   UNL d   1      52.612  28.828  54.701  0.00  0.00     0.000 A 
ATOM     20  C   UNL d   1      53.322  28.452  54.894  0.00  0.00     0.000 A 
ATOM     21  C   UNL d   1      54.017  28.653  54.499  0.00  0.00     0.000 A 
ATOM     22  C   UNL d   1      54.008  29.233  53.906  0.00  0.00     0.000 A 
ENDBRANCH  16  17
ENDBRANCH   7  16
TORSDOF 3
ENDMDL
MODEL 5
REMARK VINA RESULT:      -7.4      2.311      5.243
REMARK  3 active torsions:
REMARK  status: ('A' for Active; 'I' for Inactive)
REMARK    1  A    between atoms: C_9  and  C_4 
REMARK    2  A    between atoms: C_10  and  C_7 
REMARK    3  A    between atoms: C_17  and  C_10 
ROOT
ATOM      1  C   UNL d   1      51.734  33.444  52.642  0.00  0.00     0.179 A 
ATOM      2  N   UNL d   1      51.180  33.107  53.161  0.00  0.00    -0.282 N 
ATOM      3  N   UNL d   1      52.387  32.939  52.601  0.00  0.00    -0.221 NA
ATOM      4  C   UNL d   1      52.238  32.287  53.095  0.00  0.00     0.101 A 
ATOM      5  S   UNL d   1      51.424  34.155  52.363  0.00  0.00    -0.048 SA
ATOM      6  C   UNL d   1      51.498  32.396  53.435  0.00  0.00     0.101 A 
ATOM      7  C   UNL d   1      50.680  34.254  52.712  0.00  0.00     0.050 A 
ATOM      8  C   UNL d   1      50.536  33.616  53.195  0.00  0.00     0.089 A 
ENDROOT
BRANCH   4   9
ATOM      9  C   UNL d   1      52.744  31.657  53.214  0.00  0.00     0.019 A 
ATOM     10  C   UNL d   1      53.443  31.772  53.636  0.00  0.00     0.004 A 
ATOM     11  C   UNL d   1      53.964  31.143  53.763  0.00  0.00     0.030 A 
ATOM     12  C   UNL d   1      53.776  30.396  53.462  0.00  0.00     0.140 A 
ATOM     13  C   UNL d   1      53.081  30.278  53.042  0.00  0.00     0.030 A 
ATOM     14  F   UNL d   1      54.177  29.671  53.497  0.00  0.00    -0.204 F 
ATOM     15  C   UNL d   1      52.563  30.905  52.916  0.00  0.00     0.004 A 
ENDBRANCH   4   9
BRANCH   7  16
ATOM     16  C   UNL d   1      50.179  34.897  52.581  0.00  0.00     0.008 C 
BRANCH  16  17
ATOM     17  C   UNL d   1      49.528  34.831  52.083  0.00  0.00     0.001 A 
ATOM     18  C   UNL d   1      49.617  34.582  51.305  0.00  0.00     0.000 A 
ATOM     19  C   UNL d   1      48.958  34.516  50.804  0.00  0.00     0.000 A 
ATOM     20  C   UNL d   1      48.206  34.702  51.092  0.00  0.00     0.000 A 
ATOM     21  C   UNL d   1      48.112  34.953  51.872  0.00  0.00     0.000 A 
ATOM     22  C   UNL d   1      48.770  35.019  52.372  0.00  0.00     0.000 A 
ENDBRANCH  16  17
ENDBRANCH   7  16
TORSDOF 3
ENDMDL
