MODEL 1
REMARK VINA RESULT:      -7.8      0.000      0.000
REMARK  3 active torsions:
REMARK  status: ('A' for Active; 'I' for Inactive)
REMARK    1  A    between atoms: N_2  and  N_1 
REMARK    2  A    between atoms: C_3  and  N_1 
REMARK    3  A    between atoms: C_4  and  N_2 
ROOT
ATOM      1  N   UNL d   1      52.702  32.712  53.746  0.00  0.00    -0.148 NA
ENDROOT
BRANCH   1   2
ATOM      2  N   UNL d   1      53.330  32.282  53.444  0.00  0.00    -0.148 NA
BRANCH   2   3
ATOM      3  C   UNL d   1      53.253  31.441  53.382  0.00  0.00     0.103 A 
ATOM      4  C   UNL d   1      53.729  30.950  53.838  0.00  0.00     0.021 A 
ATOM      5  C   UNL d   1      53.657  30.130  53.780  0.00  0.00     0.002 A 
ATOM      6  C   UNL d   1      53.098  29.800  53.258  0.00  0.00     0.000 A 
ATOM      7  C   UNL d   1      52.625  30.297  52.805  0.00  0.00     0.002 A 
ATOM      8  C   UNL d   1      52.695  31.111  52.860  0.00  0.00     0.021 A 
ENDBRANCH   2   3
ENDBRANCH   1   2
BRANCH   1   9
ATOM      9  C   UNL d   1      52.817  33.516  53.903  0.00  0.00     0.103 A 
ATOM     10  C   UNL d   1      53.181  33.755  54.599  0.00  0.00     0.022 A 
ATOM     11  C   UNL d   1      53.290  34.567  54.745  0.00  0.00     0.022 A 
ATOM     12  C   UNL d   1      53.046  35.112  54.217  0.00  0.00     0.103 A 
ATOM     13  C   UNL d   1      52.677  34.879  53.508  0.00  0.00     0.022 A 
ATOM     14  N   UNL d   1      53.165  35.923  54.380  0.00  0.00    -0.148 N 
ATOM     15  C   UNL d   1      52.563  34.082  53.353  0.00  0.00     0.022 A 
ENDBRANCH   1   9
TORSDOF 3
ENDMDL
MODEL 2
REMARK VINA RESULT:      -7.8      0.841      4.091
REMARK  3 active torsions:
REMARK  status: ('A' for Active; 'I' for Inactive)
REMARK    1  A    between atoms: N_2  and  N_1 
REMARK    2  A    between atoms: C_3  and  N_1 
REMARK    3  A    between atoms: C_4  and  N_2 
ROOT
ATOM      1  N   UNL d   1      53.269  32.600  53.395  0.00  0.00    -0.148 NA
ENDROOT
BRANCH   1   2
ATOM      2  N   UNL d   1      52.738  33.010  53.865  0.00  0.00    -0.148 NA
BRANCH   2   3
ATOM      3  C   UNL d   1      52.843  33.844  53.961  0.00  0.00     0.103 A 
ATOM      4  C   UNL d   1      52.592  34.360  53.373  0.00  0.00     0.021 A 
ATOM      5  C   UNL d   1      52.692  35.174  53.464  0.00  0.00     0.002 A 
ATOM      6  C   UNL d   1      53.049  35.473  54.154  0.00  0.00     0.000 A 
ATOM      7  C   UNL d   1      53.298  34.952  54.739  0.00  0.00     0.002 A 
ATOM      8  C   UNL d   1      53.200  34.143  54.652  0.00  0.00     0.021 A 
ENDBRANCH   2   3
ENDBRANCH   1   2
BRANCH   1   9
ATOM      9  C   UNL d   1      53.210  31.776  53.363  0.00  0.00     0.103 A 
ATOM     10  C   UNL d   1      52.633  31.419  52.900  0.00  0.00     0.022 A 
ATOM     11  C   UNL d   1      52.584  30.588  52.877  0.00  0.00     0.022 A 
ATOM     12  C   UNL d   1      53.089  30.139  53.299  0.00  0.00     0.103 A 
ATOM     13  C   UNL d   1      53.676  30.491  53.772  0.00  0.00     0.022 A 
ATOM     14  N   UNL d   1      53.024  29.306  53.264  0.00  0.00    -0.148 N 
ATOM     15  C   UNL d   1      53.735  31.309  53.803  0.00  0.00     0.022 A 
ENDBRANCH   1   9
TORSDOF 3
ENDMDL
MODEL 3
REMARK VINA RESULT:      -7.7      1.933      3.022
REMARK  3 active torsions:
REMARK  status: ('A' for Active; 'I' for Inactive)
REMARK    1  A    between atoms: N_2  and  N_1 
REMARK    2  A    between atoms: C_3  and  N_1 
REMARK    3  A    between atoms: C_4  and  N_2 
ROOT
ATOM      1  N   UNL d   1      52.444  34.204  53.336  0.00  0.00    -0.148 NA
ENDROOT
BRANCH   1   2
ATOM      2  N   UNL d   1      52.632  33.511  53.729  0.00  0.00    -0.148 NA
BRANCH   2   3
ATOM      3  C   UNL d   1      53.399  33.439  54.080  0.00  0.00     0.103 A 
ATOM      4  C   UNL d   1      53.982  32.997  53.706  0.00  0.00     0.021 A 
ATOM      5  C   UNL d   1      54.731  32.925  54.045  0.00  0.00     0.002 A 
ATOM      6  C   UNL d   1      54.896  33.304  54.768  0.00  0.00     0.000 A 
ATOM      7  C   UNL d   1      54.308  33.745  55.137  0.00  0.00     0.002 A 
ATOM      8  C   UNL d   1      53.564  33.818  54.803  0.00  0.00     0.021 A 
ENDBRANCH   2   3
ENDBRANCH   1   2
BRANCH   1   9
ATOM      9  C   UNL d   1      51.712  34.251  52.952  0.00  0.00     0.103 A 
ATOM     10  C   UNL d   1      51.025  34.378  53.384  0.00  0.00     0.022 A 
ATOM     11  C   UNL d   1      50.295  34.422  52.985  0.00  0.00     0.022 A 
ATOM     12  C   UNL d   1      50.259  34.344  52.193  0.00  0.00     0.103 A 
ATOM     13  C   UNL d   1      50.950  34.215  51.747  0.00  0.00     0.022 A 
ATOM     14  N   UNL d   1      49.517  34.391  51.810  0.00  0.00    -0.148 N 
ATOM     15  C   UNL d   1      51.675  34.169  52.128  0.00  0.00     0.022 A 
ENDBRANCH   1   9
TORSDOF 3
ENDMDL
MODEL 4
REMARK VINA RESULT:      -7.5      1.944      3.265
REMARK  3 active torsions:
REMARK  status: ('A' for Active; 'I' for Inactive)
REMARK    1  A    between atoms: N_2  and  N_1 
REMARK    2  A    between atoms: C_3  and  N_1 
REMARK    3  A    between atoms: C_4  and  N_2 
ROOT
ATOM      1  N   UNL d   1      52.470  33.600  53.719  0.00  0.00    -0.148 NA
ENDROOT
BRANCH   1   2
ATOM      2  N   UNL d   1      52.247  34.285  53.330  0.00  0.00    -0.148 NA
BRANCH   2   3
ATOM      3  C   UNL d   1      51.534  34.278  52.874  0.00  0.00     0.103 A 
ATOM      4  C   UNL d   1      51.568  34.189  52.058  0.00  0.00     0.021 A 
ATOM      5  C   UNL d   1      50.875  34.181  51.611  0.00  0.00     0.002 A 
ATOM      6  C   UNL d   1      50.138  34.265  51.989  0.00  0.00     0.000 A 
ATOM      7  C   UNL d   1      50.110  34.355  52.806  0.00  0.00     0.002 A 
ATOM      8  C   UNL d   1      50.796  34.362  53.252  0.00  0.00     0.021 A 
ENDBRANCH   2   3
ENDBRANCH   1   2
BRANCH   1   9
ATOM      9  C   UNL d   1      53.191  33.596  54.124  0.00  0.00     0.103 A 
ATOM     10  C   UNL d   1      53.333  34.141  54.723  0.00  0.00     0.022 A 
ATOM     11  C   UNL d   1      54.064  34.127  55.123  0.00  0.00     0.022 A 
ATOM     12  C   UNL d   1      54.622  33.592  54.931  0.00  0.00     0.103 A 
ATOM     13  C   UNL d   1      54.488  33.037  54.326  0.00  0.00     0.022 A 
ATOM     14  N   UNL d   1      55.350  33.593  55.343  0.00  0.00    -0.148 N 
ATOM     15  C   UNL d   1      53.773  33.040  53.924  0.00  0.00     0.022 A 
ENDBRANCH   1   9
TORSDOF 3
ENDMDL
