MODEL 1
REMARK VINA RESULT:      45.2      0.000      0.000
REMARK  5 active torsions:
REMARK  status: ('A' for Active; 'I' for Inactive)
REMARK    1  A    between atoms: C_2  and  S_1 
REMARK    2  A    between atoms: N_3  and  S_1 
REMARK    3  A    between atoms: C_5  and  N_3 
REMARK    4  A    between atoms: C_14  and  C_9 
REMARK    5  A    between atoms: O_18  and  C_10 
ROOT
ATOM      1  C   UNL d   1      60.387  49.163  50.824  0.00  0.00     0.128 A 
ATOM      2  C   UNL d   1      60.365  49.465  51.595  0.00  0.00     0.015 A 
ATOM      3  C   UNL d   1      60.941  49.239  52.141  0.00  0.00     0.001 A 
ATOM      4  C   UNL d   1      60.989  48.634  50.608  0.00  0.00     0.106 A 
ATOM      5  C   UNL d   1      61.532  48.718  51.925  0.00  0.00     0.002 A 
ATOM      6  C   UNL d   1      61.561  48.413  51.159  0.00  0.00     0.025 A 
ENDROOT
BRANCH   1   7
ATOM      7  S   UNL d   1      59.815  49.384  50.272  0.00  0.00     0.288 S 
ATOM      8  O   UNL d   1      60.357  49.261  49.662  0.00  0.00    -0.198 OA
ATOM      9  O   UNL d   1      59.280  49.505  50.887  0.00  0.00    -0.198 OA
BRANCH   7  10
ATOM     10  N   UNL d   1      59.239  49.607  49.726  0.00  0.00    -0.139 NA
BRANCH  10  11
ATOM     11  C   UNL d   1      58.445  49.592  49.946  0.00  0.00     0.175 A 
ATOM     12  N   UNL d   1      58.237  49.466  50.734  0.00  0.00    -0.224 NA
ATOM     13  C   UNL d   1      57.450  49.450  50.959  0.00  0.00     0.112 A 
ATOM     14  C   UNL d   1      56.856  49.561  50.396  0.00  0.00     0.077 A 
ATOM     15  C   UNL d   1      57.064  49.687  49.607  0.00  0.00     0.016 A 
ATOM     16 CL   UNL d   1      56.066  49.546  50.616  0.00  0.00    -0.081 Cl
ATOM     17  C   UNL d   1      57.852  49.703  49.379  0.00  0.00     0.041 A 
ENDBRANCH  10  11
ENDBRANCH   7  10
ENDBRANCH   1   7
BRANCH   4  18
ATOM     18  O   UNL d   1      61.011  48.335  49.845  0.00  0.00    -0.327 OA
ATOM     19  C   UNL d   1      61.358  47.601  49.698  0.00  0.00     0.181 C 
ENDBRANCH   4  18
BRANCH   3  20
ATOM     20  C   UNL d   1      60.913  49.545  52.912  0.00  0.00     0.000 C 
ATOM     21  C   UNL d   1      61.608  49.686  53.328  0.00  0.00     0.000 C 
ATOM     22  C   UNL d   1      60.184  49.707  53.262  0.00  0.00     0.000 C 
ENDBRANCH   3  20
TORSDOF 5
ENDMDL
