MODEL 1
REMARK VINA RESULT:      -7.3      0.000      0.000
REMARK  8 active torsions:
REMARK  status: ('A' for Active; 'I' for Inactive)
REMARK    1  A    between atoms: C_7  and  C_2 
REMARK    2  A    between atoms: C_12  and  N_3 
REMARK    3  A    between atoms: O_9  and  C_6 
REMARK    4  A    between atoms: O_22  and  C_7 
REMARK    5  A    between atoms: C_8  and  N_11 
REMARK    6  A    between atoms: C_20  and  O_9 
REMARK    7  A    between atoms: C_10  and  C_20 
REMARK       I    between atoms: N_11  and  C_10 
REMARK    8  A    between atoms: C_27  and  O_22 
ROOT
ATOM      1  N   UNL d   1      46.960  36.032  52.512  0.00  0.00    -0.155 NA
ATOM      2  C   UNL d   1      47.707  35.886  52.820  0.00  0.00     0.187 A 
ATOM      3  N   UNL d   1      46.733  35.669  51.805  0.00  0.00    -0.194 N 
ATOM      4  C   UNL d   1      47.254  35.164  51.414  0.00  0.00     0.282 A 
ATOM      5  C   UNL d   1      48.003  35.022  51.728  0.00  0.00     0.089 A 
ATOM      6  C   UNL d   1      48.229  35.381  52.429  0.00  0.00     0.130 A 
ATOM      7  O   UNL d   1      47.026  34.801  50.706  0.00  0.00    -0.265 OA
ENDROOT
BRANCH   6   8
ATOM      8  O   UNL d   1      48.978  35.239  52.743  0.00  0.00    -0.298 OA
BRANCH   8   9
ATOM      9  C   UNL d   1      49.529  34.801  52.322  0.00  0.00     0.185 C 
BRANCH   9  10
ATOM     10  C   UNL d   1      50.170  34.460  52.719  0.00  0.00     0.304 C 
ATOM     11  N   UNL d   1      50.936  34.604  52.457  0.00  0.00    -0.206 NA
ATOM     12  O   UNL d   1      50.036  33.979  53.373  0.00  0.00    -0.263 OA
BRANCH  11  13
ATOM     13  C   UNL d   1      51.577  34.262  52.854  0.00  0.00     0.085 A 
ATOM     14  C   UNL d   1      52.050  34.713  53.339  0.00  0.00     0.019 A 
ATOM     15  C   UNL d   1      52.686  34.388  53.737  0.00  0.00     0.002 A 
ATOM     16  C   UNL d   1      53.150  34.847  54.218  0.00  0.00     0.000 C 
ATOM     17  C   UNL d   1      52.848  33.576  53.640  0.00  0.00     0.000 A 
ATOM     18  C   UNL d   1      52.374  33.122  53.154  0.00  0.00     0.002 A 
ATOM     19  C   UNL d   1      51.740  33.459  52.761  0.00  0.00     0.019 A 
ATOM     20  C   UNL d   1      52.538  32.319  53.061  0.00  0.00     0.000 C 
ENDBRANCH  11  13
ENDBRANCH   9  10
ENDBRANCH   8   9
ENDBRANCH   6   8
BRANCH   2  21
ATOM     21  C   UNL d   1      47.933  36.246  53.520  0.00  0.00     0.322 C 
ATOM     22  O   UNL d   1      48.615  36.709  53.546  0.00  0.00    -0.257 OA
BRANCH  21  23
ATOM     23  O   UNL d   1      47.480  36.149  54.208  0.00  0.00    -0.270 OA
BRANCH  23  24
ATOM     24  C   UNL d   1      47.506  36.709  54.806  0.00  0.00     0.126 C 
ATOM     25  C   UNL d   1      46.957  36.683  55.420  0.00  0.00     0.029 C 
ENDBRANCH  23  24
ENDBRANCH  21  23
ENDBRANCH   2  21
BRANCH   3  26
ATOM     26  C   UNL d   1      45.985  35.813  51.494  0.00  0.00     0.086 A 
ATOM     27  C   UNL d   1      45.387  35.266  51.603  0.00  0.00     0.019 A 
ATOM     28  C   UNL d   1      44.635  35.406  51.292  0.00  0.00     0.002 A 
ATOM     29  C   UNL d   1      44.484  36.106  50.867  0.00  0.00     0.000 A 
ATOM     30  C   UNL d   1      45.093  36.653  50.761  0.00  0.00     0.002 A 
ATOM     31  C   UNL d   1      45.834  36.512  51.068  0.00  0.00     0.019 A 
ENDBRANCH   3  26
TORSDOF 8
ENDMDL
MODEL 2
REMARK VINA RESULT:      -6.9      2.007      6.851
REMARK  8 active torsions:
REMARK  status: ('A' for Active; 'I' for Inactive)
REMARK    1  A    between atoms: C_7  and  C_2 
REMARK    2  A    between atoms: C_12  and  N_3 
REMARK    3  A    between atoms: O_9  and  C_6 
REMARK    4  A    between atoms: O_22  and  C_7 
REMARK    5  A    between atoms: C_8  and  N_11 
REMARK    6  A    between atoms: C_20  and  O_9 
REMARK    7  A    between atoms: C_10  and  C_20 
REMARK       I    between atoms: N_11  and  C_10 
REMARK    8  A    between atoms: C_27  and  O_22 
ROOT
ATOM      1  N   UNL d   1      53.346  32.879  53.805  0.00  0.00    -0.155 NA
ATOM      2  C   UNL d   1      52.658  32.821  53.361  0.00  0.00     0.187 A 
ATOM      3  N   UNL d   1      53.500  33.573  54.228  0.00  0.00    -0.194 N 
ATOM      4  C   UNL d   1      52.965  34.200  54.203  0.00  0.00     0.282 A 
ATOM      5  C   UNL d   1      52.276  34.135  53.755  0.00  0.00     0.089 A 
ATOM      6  C   UNL d   1      52.123  33.448  53.335  0.00  0.00     0.130 A 
ATOM      7  O   UNL d   1      53.120  34.893  54.626  0.00  0.00    -0.265 OA
ENDROOT
BRANCH   6   8
ATOM      8  O   UNL d   1      51.434  33.383  52.887  0.00  0.00    -0.298 OA
BRANCH   8   9
ATOM      9  C   UNL d   1      51.162  34.021  52.448  0.00  0.00     0.185 C 
BRANCH   9  10
ATOM     10  C   UNL d   1      50.351  34.181  52.420  0.00  0.00     0.304 C 
ATOM     11  N   UNL d   1      50.084  34.880  52.076  0.00  0.00    -0.206 NA
ATOM     12  O   UNL d   1      49.816  33.642  52.737  0.00  0.00    -0.263 OA
BRANCH  11  13
ATOM     13  C   UNL d   1      49.273  35.040  52.049  0.00  0.00     0.085 A 
ATOM     14  C   UNL d   1      48.831  34.822  51.402  0.00  0.00     0.019 A 
ATOM     15  C   UNL d   1      48.028  34.975  51.363  0.00  0.00     0.002 A 
ATOM     16  C   UNL d   1      47.597  34.753  50.713  0.00  0.00     0.000 C 
ATOM     17  C   UNL d   1      47.661  35.364  52.002  0.00  0.00     0.000 A 
ATOM     18  C   UNL d   1      48.105  35.584  52.653  0.00  0.00     0.002 A 
ATOM     19  C   UNL d   1      48.907  35.425  52.680  0.00  0.00     0.019 A 
ATOM     20  C   UNL d   1      47.738  35.969  53.283  0.00  0.00     0.000 C 
ENDBRANCH  11  13
ENDBRANCH   9  10
ENDBRANCH   8   9
ENDBRANCH   6   8
BRANCH   2  21
ATOM     21  C   UNL d   1      52.505  32.135  52.942  0.00  0.00     0.322 C 
ATOM     22  O   UNL d   1      52.490  32.148  52.117  0.00  0.00    -0.257 OA
BRANCH  21  23
ATOM     23  O   UNL d   1      52.363  31.420  53.340  0.00  0.00    -0.270 OA
BRANCH  23  24
ATOM     24  C   UNL d   1      52.527  30.704  52.980  0.00  0.00     0.126 C 
ATOM     25  C   UNL d   1      52.504  30.006  53.419  0.00  0.00     0.029 C 
ENDBRANCH  23  24
ENDBRANCH  21  23
ENDBRANCH   2  21
BRANCH   3  26
ATOM     26  C   UNL d   1      54.189  33.634  54.674  0.00  0.00     0.086 A 
ATOM     27  C   UNL d   1      54.866  33.944  54.336  0.00  0.00     0.019 A 
ATOM     28  C   UNL d   1      55.559  34.008  54.780  0.00  0.00     0.002 A 
ATOM     29  C   UNL d   1      55.570  33.757  55.574  0.00  0.00     0.000 A 
ATOM     30  C   UNL d   1      54.882  33.446  55.908  0.00  0.00     0.002 A 
ATOM     31  C   UNL d   1      54.200  33.384  55.468  0.00  0.00     0.019 A 
ENDBRANCH   3  26
TORSDOF 8
ENDMDL
MODEL 3
REMARK VINA RESULT:      -6.8      1.563      6.218
REMARK  8 active torsions:
REMARK  status: ('A' for Active; 'I' for Inactive)
REMARK    1  A    between atoms: C_7  and  C_2 
REMARK    2  A    between atoms: C_12  and  N_3 
REMARK    3  A    between atoms: O_9  and  C_6 
REMARK    4  A    between atoms: O_22  and  C_7 
REMARK    5  A    between atoms: C_8  and  N_11 
REMARK    6  A    between atoms: C_20  and  O_9 
REMARK    7  A    between atoms: C_10  and  C_20 
REMARK       I    between atoms: N_11  and  C_10 
REMARK    8  A    between atoms: C_27  and  O_22 
ROOT
ATOM      1  N   UNL d   1      52.679  33.085  53.315  0.00  0.00    -0.155 NA
ATOM      2  C   UNL d   1      52.212  33.756  53.244  0.00  0.00     0.187 A 
ATOM      3  N   UNL d   1      52.326  32.338  53.288  0.00  0.00    -0.194 N 
ATOM      4  C   UNL d   1      51.510  32.270  53.190  0.00  0.00     0.282 A 
ATOM      5  C   UNL d   1      51.047  32.948  53.119  0.00  0.00     0.089 A 
ATOM      6  C   UNL d   1      51.396  33.688  53.146  0.00  0.00     0.130 A 
ATOM      7  O   UNL d   1      51.157  31.522  53.163  0.00  0.00    -0.265 OA
ENDROOT
BRANCH   6   8
ATOM      8  O   UNL d   1      50.933  34.367  53.075  0.00  0.00    -0.298 OA
BRANCH   8   9
ATOM      9  C   UNL d   1      50.197  34.331  52.712  0.00  0.00     0.185 C 
BRANCH   9  10
ATOM     10  C   UNL d   1      49.657  34.948  52.823  0.00  0.00     0.304 C 
ATOM     11  N   UNL d   1      48.850  34.791  52.816  0.00  0.00    -0.206 NA
ATOM     12  O   UNL d   1      49.931  35.715  52.939  0.00  0.00    -0.263 OA
BRANCH  11  13
ATOM     13  C   UNL d   1      48.310  35.408  52.926  0.00  0.00     0.085 A 
ATOM     14  C   UNL d   1      47.861  35.680  52.305  0.00  0.00     0.019 A 
ATOM     15  C   UNL d   1      47.324  36.290  52.402  0.00  0.00     0.002 A 
ATOM     16  C   UNL d   1      46.882  36.553  51.775  0.00  0.00     0.000 C 
ATOM     17  C   UNL d   1      47.239  36.636  53.155  0.00  0.00     0.000 A 
ATOM     18  C   UNL d   1      47.690  36.363  53.780  0.00  0.00     0.002 A 
ATOM     19  C   UNL d   1      48.224  35.753  53.671  0.00  0.00     0.019 A 
ATOM     20  C   UNL d   1      47.603  36.708  54.525  0.00  0.00     0.000 C 
ENDBRANCH  11  13
ENDBRANCH   9  10
ENDBRANCH   8   9
ENDBRANCH   6   8
BRANCH   2  21
ATOM     21  C   UNL d   1      52.562  34.495  53.270  0.00  0.00     0.322 C 
ATOM     22  O   UNL d   1      52.816  34.858  52.574  0.00  0.00    -0.257 OA
BRANCH  21  23
ATOM     23  O   UNL d   1      52.664  34.888  53.994  0.00  0.00    -0.270 OA
BRANCH  23  24
ATOM     24  C   UNL d   1      53.325  35.353  54.126  0.00  0.00     0.126 C 
ATOM     25  C   UNL d   1      53.316  35.924  54.721  0.00  0.00     0.029 C 
ENDBRANCH  23  24
ENDBRANCH  21  23
ENDBRANCH   2  21
BRANCH   3  26
ATOM     26  C   UNL d   1      52.792  31.663  53.359  0.00  0.00     0.086 A 
ATOM     27  C   UNL d   1      52.857  31.146  52.728  0.00  0.00     0.019 A 
ATOM     28  C   UNL d   1      53.323  30.468  52.796  0.00  0.00     0.002 A 
ATOM     29  C   UNL d   1      53.727  30.308  53.506  0.00  0.00     0.000 A 
ATOM     30  C   UNL d   1      53.656  30.835  54.138  0.00  0.00     0.002 A 
ATOM     31  C   UNL d   1      53.196  31.503  54.069  0.00  0.00     0.019 A 
ENDBRANCH   3  26
TORSDOF 8
ENDMDL
MODEL 4
REMARK VINA RESULT:      -6.3      2.669      6.937
REMARK  8 active torsions:
REMARK  status: ('A' for Active; 'I' for Inactive)
REMARK    1  A    between atoms: C_7  and  C_2 
REMARK    2  A    between atoms: C_12  and  N_3 
REMARK    3  A    between atoms: O_9  and  C_6 
REMARK    4  A    between atoms: O_22  and  C_7 
REMARK    5  A    between atoms: C_8  and  N_11 
REMARK    6  A    between atoms: C_20  and  O_9 
REMARK    7  A    between atoms: C_10  and  C_20 
REMARK       I    between atoms: N_11  and  C_10 
REMARK    8  A    between atoms: C_27  and  O_22 
ROOT
ATOM      1  N   UNL d   1      53.409  31.668  54.180  0.00  0.00    -0.155 NA
ATOM      2  C   UNL d   1      53.169  32.423  53.964  0.00  0.00     0.187 A 
ATOM      3  N   UNL d   1      53.141  31.016  53.747  0.00  0.00    -0.194 N 
ATOM      4  C   UNL d   1      52.636  31.127  53.104  0.00  0.00     0.282 A 
ATOM      5  C   UNL d   1      52.400  31.888  52.892  0.00  0.00     0.089 A 
ATOM      6  C   UNL d   1      52.665  32.534  53.321  0.00  0.00     0.130 A 
ATOM      7  O   UNL d   1      52.368  30.475  52.671  0.00  0.00    -0.265 OA
ENDROOT
BRANCH   6   8
ATOM      8  O   UNL d   1      52.428  33.295  53.110  0.00  0.00    -0.298 OA
BRANCH   8   9
ATOM      9  C   UNL d   1      52.068  33.432  52.385  0.00  0.00     0.185 C 
BRANCH   9  10
ATOM     10  C   UNL d   1      51.435  33.963  52.338  0.00  0.00     0.304 C 
ATOM     11  N   UNL d   1      50.663  33.683  52.374  0.00  0.00    -0.206 NA
ATOM     12  O   UNL d   1      51.583  34.768  52.255  0.00  0.00    -0.263 OA
BRANCH  11  13
ATOM     13  C   UNL d   1      50.030  34.213  52.327  0.00  0.00     0.085 A 
ATOM     14  C   UNL d   1      49.612  34.297  51.634  0.00  0.00     0.019 A 
ATOM     15  C   UNL d   1      48.984  34.818  51.575  0.00  0.00     0.002 A 
ATOM     16  C   UNL d   1      48.574  34.893  50.879  0.00  0.00     0.000 C 
ATOM     17  C   UNL d   1      48.774  35.272  52.242  0.00  0.00     0.000 A 
ATOM     18  C   UNL d   1      49.193  35.189  52.938  0.00  0.00     0.002 A 
ATOM     19  C   UNL d   1      49.819  34.664  52.985  0.00  0.00     0.019 A 
ATOM     20  C   UNL d   1      48.981  35.640  53.596  0.00  0.00     0.000 C 
ENDBRANCH  11  13
ENDBRANCH   9  10
ENDBRANCH   8   9
ENDBRANCH   6   8
BRANCH   2  21
ATOM     21  C   UNL d   1      53.434  33.068  54.392  0.00  0.00     0.322 C 
ATOM     22  O   UNL d   1      52.911  33.492  54.869  0.00  0.00    -0.257 OA
BRANCH  21  23
ATOM     23  O   UNL d   1      54.229  33.303  54.353  0.00  0.00    -0.270 OA
BRANCH  23  24
ATOM     24  C   UNL d   1      54.584  33.679  54.988  0.00  0.00     0.126 C 
ATOM     25  C   UNL d   1      55.387  33.866  54.961  0.00  0.00     0.029 C 
ENDBRANCH  23  24
ENDBRANCH  21  23
ENDBRANCH   2  21
BRANCH   3  26
ATOM     26  C   UNL d   1      53.379  30.258  53.960  0.00  0.00     0.086 A 
ATOM     27  C   UNL d   1      54.003  29.903  53.568  0.00  0.00     0.019 A 
ATOM     28  C   UNL d   1      54.244  29.142  53.779  0.00  0.00     0.002 A 
ATOM     29  C   UNL d   1      53.854  28.735  54.391  0.00  0.00     0.000 A 
ATOM     30  C   UNL d   1      53.225  29.101  54.782  0.00  0.00     0.002 A 
ATOM     31  C   UNL d   1      52.988  29.851  54.572  0.00  0.00     0.019 A 
ENDBRANCH   3  26
TORSDOF 8
ENDMDL
