MODEL 1
REMARK VINA RESULT:      -5.3      0.000      0.000
REMARK  7 active torsions:
REMARK  status: ('A' for Active; 'I' for Inactive)
REMARK    1  A    between atoms: C_2  and  N_1 
REMARK    2  A    between atoms: C_4  and  C_2 
REMARK    3  A    between atoms: O_3  and  C_9 
REMARK    4  A    between atoms: C_7  and  O_3 
REMARK    5  A    between atoms: C_9  and  C_4 
REMARK    6  A    between atoms: C_10  and  C_12 
REMARK    7  A    between atoms: C_17  and  C_10 
ROOT
ATOM      1  N   UNL d   1      58.233   0.666  30.429  0.00  0.00    -0.300 N 
ATOM      2  C   UNL d   1      58.667   0.641  31.094  0.00  0.00     0.080 A 
ATOM      3  C   UNL d   1      57.386   0.682  30.466  0.00  0.00     0.080 A 
ATOM      4  C   UNL d   1      57.483   0.644  31.889  0.00  0.00     0.003 A 
ATOM      5  C   UNL d   1      58.294   0.629  31.833  0.00  0.00     0.019 A 
ATOM      6  C   UNL d   1      57.022   0.670  31.206  0.00  0.00     0.019 A 
ENDROOT
BRANCH   1   7
ATOM      7  C   UNL d   1      58.650   0.677  29.689  0.00  0.00     0.125 C 
BRANCH   7   8
ATOM      8  C   UNL d   1      58.522   0.068  29.106  0.00  0.00     0.238 C 
ATOM      9  O   UNL d   1      57.842   0.068  28.643  0.00  0.00    -0.283 OA
BRANCH   8  10
ATOM     10  C   UNL d   1      59.092  -0.520  29.017  0.00  0.00     0.166 C 
BRANCH  10  11
ATOM     11  O   UNL d   1      58.923  -1.206  28.595  0.00  0.00    -0.302 OA
BRANCH  11  12
ATOM     12  C   UNL d   1      59.417  -1.881  28.690  0.00  0.00     0.100 A 
ATOM     13  C   UNL d   1      59.091  -2.615  28.968  0.00  0.00     0.026 A 
ATOM     14  C   UNL d   1      59.572  -3.279  29.063  0.00  0.00     0.013 A 
ATOM     15  C   UNL d   1      60.371  -3.234  28.888  0.00  0.00     0.058 A 
ATOM     16  C   UNL d   1      60.705  -2.524  28.616  0.00  0.00     0.013 A 
ATOM     17 CL   UNL d   1      60.868  -3.920  28.986  0.00  0.00    -0.082 Cl
ATOM     18  C   UNL d   1      60.229  -1.859  28.520  0.00  0.00     0.026 A 
ENDBRANCH  11  12
ENDBRANCH  10  11
ENDBRANCH   8  10
ENDBRANCH   7   8
ENDBRANCH   1   7
BRANCH   4  19
ATOM     19  C   UNL d   1      57.106   0.631  32.680  0.00  0.00     0.000 C 
BRANCH  19  20
ATOM     20  C   UNL d   1      56.504   0.077  32.840  0.00  0.00     0.000 A 
ATOM     21  C   UNL d   1      56.625  -0.719  32.727  0.00  0.00     0.000 A 
ATOM     22  C   UNL d   1      56.015  -1.266  32.890  0.00  0.00     0.000 A 
ATOM     23  C   UNL d   1      55.294  -0.985  33.166  0.00  0.00     0.000 A 
ATOM     24  C   UNL d   1      55.172  -0.189  33.279  0.00  0.00     0.000 A 
ATOM     25  C   UNL d   1      55.768   0.348  33.120  0.00  0.00     0.000 A 
ENDBRANCH  19  20
ENDBRANCH   4  19
TORSDOF 7
ENDMDL
