MODEL 1
REMARK VINA RESULT:      46.7      0.000      0.000
REMARK  4 active torsions:
REMARK  status: ('A' for Active; 'I' for Inactive)
REMARK    1  A    between atoms: C_8  and  C_2 
REMARK    2  A    between atoms: C_9  and  N_3 
REMARK    3  A    between atoms: C_12  and  C_9 
REMARK    4  A    between atoms: C_14  and  C_12 
ROOT
ATOM      1  N   UNL d   1     -51.686  25.841  33.341  0.00  0.00    -0.217 NA
ATOM      2  C   UNL d   1     -50.898  25.611  33.340  0.00  0.00     0.149 A 
ATOM      3  N   UNL d   1     -50.304  26.181  33.331  0.00  0.00    -0.290 N 
ATOM      4  C   UNL d   1     -51.302  27.205  33.324  0.00  0.00     0.044 A 
ATOM      5  C   UNL d   1     -51.896  26.631  33.333  0.00  0.00     0.139 A 
ATOM      6  C   UNL d   1     -50.502  26.985  33.323  0.00  0.00     0.068 A 
ATOM      7  S   UNL d   1     -52.676  26.859  33.333  0.00  0.00    -0.057 SA
ATOM      8  C   UNL d   1     -51.501  28.001  33.315  0.00  0.00     0.004 A 
ATOM      9  C   UNL d   1     -49.918  27.553  33.314  0.00  0.00     0.018 A 
ATOM     10  C   UNL d   1     -50.915  28.573  33.306  0.00  0.00     0.000 A 
ATOM     11  C   UNL d   1     -50.108  28.338  33.306  0.00  0.00     0.002 A 
ENDROOT
BRANCH   2  12
ATOM     12  C   UNL d   1     -50.691  24.812  33.348  0.00  0.00     0.035 A 
ATOM     13  C   UNL d   1     -49.901  24.594  33.398  0.00  0.00     0.003 A 
ATOM     14  C   UNL d   1     -49.697  23.783  33.406  0.00  0.00     0.000 A 
ATOM     15  C   UNL d   1     -50.289  23.210  33.364  0.00  0.00     0.000 A 
ATOM     16  C   UNL d   1     -51.080  23.441  33.314  0.00  0.00     0.000 A 
ATOM     17  C   UNL d   1     -51.284  24.238  33.306  0.00  0.00     0.003 A 
ENDBRANCH   2  12
BRANCH   3  18
ATOM     18  C   UNL d   1     -49.509  25.949  33.330  0.00  0.00     0.085 C 
BRANCH  18  19
ATOM     19  C   UNL d   1     -48.948  26.449  33.659  0.00  0.00     0.064 C 
BRANCH  19  20
ATOM     20  C   UNL d   1     -48.517  26.206  34.319  0.00  0.00     0.236 C 
ATOM     21  O   UNL d   1     -47.708  26.231  34.321  0.00  0.00    -0.283 OA
ENDBRANCH  19  20
ENDBRANCH  18  19
ENDBRANCH   3  18
TORSDOF 4
ENDMDL
MODEL 2
REMARK VINA RESULT:      47.5      1.920      2.765
REMARK  4 active torsions:
REMARK  status: ('A' for Active; 'I' for Inactive)
REMARK    1  A    between atoms: C_8  and  C_2 
REMARK    2  A    between atoms: C_9  and  N_3 
REMARK    3  A    between atoms: C_12  and  C_9 
REMARK    4  A    between atoms: C_14  and  C_12 
ROOT
ATOM      1  N   UNL d   1     -50.669  25.378  33.453  0.00  0.00    -0.217 NA
ATOM      2  C   UNL d   1     -51.489  25.359  33.478  0.00  0.00     0.149 A 
ATOM      3  N   UNL d   1     -51.916  26.062  33.454  0.00  0.00    -0.290 N 
ATOM      4  C   UNL d   1     -50.690  26.793  33.381  0.00  0.00     0.044 A 
ATOM      5  C   UNL d   1     -50.263  26.086  33.405  0.00  0.00     0.139 A 
ATOM      6  C   UNL d   1     -51.519  26.787  33.405  0.00  0.00     0.068 A 
ATOM      7  S   UNL d   1     -49.450  26.105  33.381  0.00  0.00    -0.057 SA
ATOM      8  C   UNL d   1     -50.293  27.510  33.333  0.00  0.00     0.004 A 
ATOM      9  C   UNL d   1     -51.937  27.486  33.382  0.00  0.00     0.018 A 
ATOM     10  C   UNL d   1     -50.712  28.213  33.309  0.00  0.00     0.000 A 
ATOM     11  C   UNL d   1     -51.553  28.194  33.334  0.00  0.00     0.002 A 
ENDROOT
BRANCH   2  12
ATOM     12  C   UNL d   1     -51.894  24.642  33.526  0.00  0.00     0.035 A 
ATOM     13  C   UNL d   1     -52.708  24.622  33.419  0.00  0.00     0.003 A 
ATOM     14  C   UNL d   1     -53.113  23.893  33.469  0.00  0.00     0.000 A 
ATOM     15  C   UNL d   1     -52.693  23.199  33.625  0.00  0.00     0.000 A 
ATOM     16  C   UNL d   1     -51.875  23.231  33.731  0.00  0.00     0.000 A 
ATOM     17  C   UNL d   1     -51.474  23.947  33.683  0.00  0.00     0.003 A 
ENDBRANCH   2  12
BRANCH   3  18
ATOM     18  C   UNL d   1     -52.744  26.043  33.479  0.00  0.00     0.085 C 
BRANCH  18  19
ATOM     19  C   UNL d   1     -53.149  26.692  33.775  0.00  0.00     0.064 C 
BRANCH  19  20
ATOM     20  C   UNL d   1     -53.969  26.736  33.698  0.00  0.00     0.236 C 
ATOM     21  O   UNL d   1     -54.331  27.431  33.494  0.00  0.00    -0.283 OA
ENDBRANCH  19  20
ENDBRANCH  18  19
ENDBRANCH   3  18
TORSDOF 4
ENDMDL
