MODEL 1
REMARK VINA RESULT:      -7.7      0.000      0.000
REMARK  5 active torsions:
REMARK  status: ('A' for Active; 'I' for Inactive)
REMARK    1  A    between atoms: C_10  and  N_1 
REMARK    2  A    between atoms: S_7  and  C_2 
REMARK    3  A    between atoms: C_12  and  S_7 
REMARK    4  A    between atoms: C_9  and  C_12 
REMARK    5  A    between atoms: O_16  and  C_9 
ROOT
ATOM      1  N   UNL d   1     -49.116  13.499  23.096  0.00  0.00    -0.254 N 
ATOM      2  C   UNL d   1     -48.469  14.009  22.999  0.00  0.00     0.182 A 
ATOM      3  C   UNL d   1     -49.866  13.810  23.263  0.00  0.00     0.274 A 
ATOM      4  C   UNL d   1     -49.969  14.626  23.333  0.00  0.00     0.104 A 
ATOM      5  N   UNL d   1     -48.572  14.831  23.069  0.00  0.00    -0.222 NA
ATOM      6  C   UNL d   1     -49.322  15.136  23.236  0.00  0.00     0.095 A 
ATOM      7  S   UNL d   1     -50.629  15.084  23.491  0.00  0.00    -0.080 SA
ATOM      8  O   UNL d   1     -50.510  13.303  23.359  0.00  0.00    -0.266 OA
ATOM      9  C   UNL d   1     -49.587  15.907  23.335  0.00  0.00     0.027 A 
ATOM     10  C   UNL d   1     -50.386  15.883  23.492  0.00  0.00     0.037 A 
ENDROOT
BRANCH   2  11
ATOM     11  S   UNL d   1     -47.714  13.698  22.830  0.00  0.00    -0.044 SA
BRANCH  11  12
ATOM     12  C   UNL d   1     -47.078  14.226  22.754  0.00  0.00     0.095 C 
ATOM     13  C   UNL d   1     -47.221  15.018  22.596  0.00  0.00     0.013 C 
BRANCH  12  14
ATOM     14  C   UNL d   1     -46.498  14.019  22.817  0.00  0.00     0.302 C 
ATOM     15  O   UNL d   1     -46.120  14.066  23.545  0.00  0.00    -0.259 OA
BRANCH  14  16
ATOM     16  O   UNL d   1     -46.105  13.694  22.162  0.00  0.00    -0.295 OA
ATOM     17  C   UNL d   1     -45.362  13.343  22.253  0.00  0.00     0.185 C 
ENDBRANCH  14  16
ENDBRANCH  12  14
ENDBRANCH  11  12
ENDBRANCH   2  11
BRANCH   1  18
ATOM     18  C   UNL d   1     -49.016  12.686  23.026  0.00  0.00     0.069 A 
ATOM     19  C   UNL d   1     -48.841  12.232  23.698  0.00  0.00     0.018 A 
ATOM     20  C   UNL d   1     -48.740  11.417  23.630  0.00  0.00     0.002 A 
ATOM     21  C   UNL d   1     -48.812  11.051  22.894  0.00  0.00     0.000 A 
ATOM     22  C   UNL d   1     -48.986  11.505  22.223  0.00  0.00     0.002 A 
ATOM     23  C   UNL d   1     -49.088  12.321  22.290  0.00  0.00     0.018 A 
ENDBRANCH   1  18
TORSDOF 5
ENDMDL
MODEL 2
REMARK VINA RESULT:      -7.6      1.226      3.742
REMARK  5 active torsions:
REMARK  status: ('A' for Active; 'I' for Inactive)
REMARK    1  A    between atoms: C_10  and  N_1 
REMARK    2  A    between atoms: S_7  and  C_2 
REMARK    3  A    between atoms: C_12  and  S_7 
REMARK    4  A    between atoms: C_9  and  C_12 
REMARK    5  A    between atoms: O_16  and  C_9 
ROOT
ATOM      1  N   UNL d   1     -48.343  14.096  22.862  0.00  0.00    -0.254 N 
ATOM      2  C   UNL d   1     -48.472  13.277  22.884  0.00  0.00     0.182 A 
ATOM      3  C   UNL d   1     -47.570  14.390  22.799  0.00  0.00     0.274 A 
ATOM      4  C   UNL d   1     -46.931  13.870  22.759  0.00  0.00     0.104 A 
ATOM      5  N   UNL d   1     -47.829  12.751  22.844  0.00  0.00    -0.222 NA
ATOM      6  C   UNL d   1     -47.061  13.050  22.782  0.00  0.00     0.095 A 
ATOM      7  S   UNL d   1     -46.124  13.995  22.696  0.00  0.00    -0.080 SA
ATOM      8  O   UNL d   1     -47.441  15.205  22.776  0.00  0.00    -0.266 OA
ATOM      9  C   UNL d   1     -46.333  12.675  22.733  0.00  0.00     0.027 A 
ATOM     10  C   UNL d   1     -45.755  13.246  22.680  0.00  0.00     0.037 A 
ENDROOT
BRANCH   2  11
ATOM     11  S   UNL d   1     -49.248  12.979  22.947  0.00  0.00    -0.044 SA
BRANCH  11  12
ATOM     12  C   UNL d   1     -49.370  12.166  22.829  0.00  0.00     0.095 C 
ATOM     13  C   UNL d   1     -49.004  11.785  22.201  0.00  0.00     0.013 C 
BRANCH  12  14
ATOM     14  C   UNL d   1     -49.735  11.851  23.216  0.00  0.00     0.302 C 
ATOM     15  O   UNL d   1     -49.419  11.264  23.698  0.00  0.00    -0.259 OA
BRANCH  14  16
ATOM     16  O   UNL d   1     -50.547  12.024  23.247  0.00  0.00    -0.295 OA
ATOM     17  C   UNL d   1     -51.057  11.555  23.698  0.00  0.00     0.185 C 
ENDBRANCH  14  16
ENDBRANCH  12  14
ENDBRANCH  11  12
ENDBRANCH   2  11
BRANCH   1  18
ATOM     18  C   UNL d   1     -48.977  14.616  22.901  0.00  0.00     0.069 A 
ATOM     19  C   UNL d   1     -49.320  14.904  22.204  0.00  0.00     0.018 A 
ATOM     20  C   UNL d   1     -49.958  15.426  22.241  0.00  0.00     0.002 A 
ATOM     21  C   UNL d   1     -50.255  15.663  22.974  0.00  0.00     0.000 A 
ATOM     22  C   UNL d   1     -49.912  15.374  23.671  0.00  0.00     0.002 A 
ATOM     23  C   UNL d   1     -49.275  14.852  23.634  0.00  0.00     0.018 A 
ENDBRANCH   1  18
TORSDOF 5
ENDMDL
MODEL 3
REMARK VINA RESULT:      -6.6      1.155      2.729
REMARK  5 active torsions:
REMARK  status: ('A' for Active; 'I' for Inactive)
REMARK    1  A    between atoms: C_10  and  N_1 
REMARK    2  A    between atoms: S_7  and  C_2 
REMARK    3  A    between atoms: C_12  and  S_7 
REMARK    4  A    between atoms: C_9  and  C_12 
REMARK    5  A    between atoms: O_16  and  C_9 
ROOT
ATOM      1  N   UNL d   1     -49.099  13.471  23.019  0.00  0.00    -0.254 N 
ATOM      2  C   UNL d   1     -48.405  13.038  23.159  0.00  0.00     0.182 A 
ATOM      3  C   UNL d   1     -49.838  13.105  23.110  0.00  0.00     0.274 A 
ATOM      4  C   UNL d   1     -49.883  12.314  23.339  0.00  0.00     0.104 A 
ATOM      5  N   UNL d   1     -48.449  12.241  23.390  0.00  0.00    -0.222 NA
ATOM      6  C   UNL d   1     -49.188  11.882  23.479  0.00  0.00     0.095 A 
ATOM      7  S   UNL d   1     -50.520  11.816  23.470  0.00  0.00    -0.080 SA
ATOM      8  O   UNL d   1     -50.529  13.535  22.971  0.00  0.00    -0.266 OA
ATOM      9  C   UNL d   1     -49.401  11.119  23.696  0.00  0.00     0.027 A 
ATOM     10  C   UNL d   1     -50.214  11.071  23.693  0.00  0.00     0.037 A 
ENDROOT
BRANCH   2  11
ATOM     11  S   UNL d   1     -47.661  13.404  23.069  0.00  0.00    -0.044 SA
BRANCH  11  12
ATOM     12  C   UNL d   1     -46.980  12.963  23.250  0.00  0.00     0.095 C 
ATOM     13  C   UNL d   1     -47.052  12.234  23.618  0.00  0.00     0.013 C 
BRANCH  12  14
ATOM     14  C   UNL d   1     -46.422  13.188  23.106  0.00  0.00     0.302 C 
ATOM     15  O   UNL d   1     -45.996  13.621  23.660  0.00  0.00    -0.259 OA
BRANCH  14  16
ATOM     16  O   UNL d   1     -46.107  13.051  22.350  0.00  0.00    -0.295 OA
ATOM     17  C   UNL d   1     -45.340  13.300  22.167  0.00  0.00     0.185 C 
ENDBRANCH  14  16
ENDBRANCH  12  14
ENDBRANCH  11  12
ENDBRANCH   2  11
BRANCH   1  18
ATOM     18  C   UNL d   1     -49.057  14.258  22.791  0.00  0.00     0.069 A 
ATOM     19  C   UNL d   1     -48.962  14.453  21.991  0.00  0.00     0.018 A 
ATOM     20  C   UNL d   1     -48.919  15.244  21.760  0.00  0.00     0.002 A 
ATOM     21  C   UNL d   1     -48.970  15.843  22.325  0.00  0.00     0.000 A 
ATOM     22  C   UNL d   1     -49.064  15.648  23.126  0.00  0.00     0.002 A 
ATOM     23  C   UNL d   1     -49.107  14.857  23.357  0.00  0.00     0.018 A 
ENDBRANCH   1  18
TORSDOF 5
ENDMDL
MODEL 4
REMARK VINA RESULT:      -6.2      1.185      2.706
REMARK  5 active torsions:
REMARK  status: ('A' for Active; 'I' for Inactive)
REMARK    1  A    between atoms: C_10  and  N_1 
REMARK    2  A    between atoms: S_7  and  C_2 
REMARK    3  A    between atoms: C_12  and  S_7 
REMARK    4  A    between atoms: C_9  and  C_12 
REMARK    5  A    between atoms: O_16  and  C_9 
ROOT
ATOM      1  N   UNL d   1     -48.293  14.087  22.779  0.00  0.00    -0.254 N 
ATOM      2  C   UNL d   1     -48.836  13.462  22.848  0.00  0.00     0.182 A 
ATOM      3  C   UNL d   1     -48.560  14.871  22.817  0.00  0.00     0.274 A 
ATOM      4  C   UNL d   1     -49.362  15.030  22.924  0.00  0.00     0.104 A 
ATOM      5  N   UNL d   1     -49.644  13.622  22.955  0.00  0.00    -0.222 NA
ATOM      6  C   UNL d   1     -49.904  14.406  22.992  0.00  0.00     0.095 A 
ATOM      7  S   UNL d   1     -49.780  15.733  22.981  0.00  0.00    -0.080 SA
ATOM      8  O   UNL d   1     -48.021  15.492  22.749  0.00  0.00    -0.266 OA
ATOM      9  C   UNL d   1     -50.653  14.727  23.092  0.00  0.00     0.027 A 
ATOM     10  C   UNL d   1     -50.585  15.538  23.087  0.00  0.00     0.037 A 
ENDROOT
BRANCH   2  11
ATOM     11  S   UNL d   1     -48.569  12.673  22.809  0.00  0.00    -0.044 SA
BRANCH  11  12
ATOM     12  C   UNL d   1     -49.136  12.068  22.759  0.00  0.00     0.095 C 
ATOM     13  C   UNL d   1     -49.756  12.132  22.225  0.00  0.00     0.013 C 
BRANCH  12  14
ATOM     14  C   UNL d   1     -49.087  11.571  23.124  0.00  0.00     0.302 C 
ATOM     15  O   UNL d   1     -49.672  11.408  23.679  0.00  0.00    -0.259 OA
BRANCH  14  16
ATOM     16  O   UNL d   1     -48.429  11.070  23.051  0.00  0.00    -0.295 OA
ATOM     17  C   UNL d   1     -48.181  10.611  23.692  0.00  0.00     0.185 C 
ENDBRANCH  14  16
ENDBRANCH  12  14
ENDBRANCH  11  12
ENDBRANCH   2  11
BRANCH   1  18
ATOM     18  C   UNL d   1     -47.494  13.930  22.673  0.00  0.00     0.069 A 
ATOM     19  C   UNL d   1     -46.988  13.898  23.329  0.00  0.00     0.018 A 
ATOM     20  C   UNL d   1     -46.185  13.741  23.225  0.00  0.00     0.002 A 
ATOM     21  C   UNL d   1     -45.884  13.615  22.467  0.00  0.00     0.000 A 
ATOM     22  C   UNL d   1     -46.390  13.647  21.811  0.00  0.00     0.002 A 
ATOM     23  C   UNL d   1     -47.193  13.804  21.916  0.00  0.00     0.018 A 
ENDBRANCH   1  18
TORSDOF 5
ENDMDL
MODEL 5
REMARK VINA RESULT:      -5.7      1.499      3.952
REMARK  5 active torsions:
REMARK  status: ('A' for Active; 'I' for Inactive)
REMARK    1  A    between atoms: C_10  and  N_1 
REMARK    2  A    between atoms: S_7  and  C_2 
REMARK    3  A    between atoms: C_12  and  S_7 
REMARK    4  A    between atoms: C_9  and  C_12 
REMARK    5  A    between atoms: O_16  and  C_9 
ROOT
ATOM      1  N   UNL d   1     -47.819  13.323  22.927  0.00  0.00    -0.254 N 
ATOM      2  C   UNL d   1     -48.401  12.759  22.750  0.00  0.00     0.182 A 
ATOM      3  C   UNL d   1     -47.092  13.081  23.244  0.00  0.00     0.274 A 
ATOM      4  C   UNL d   1     -46.948  12.281  23.385  0.00  0.00     0.104 A 
ATOM      5  N   UNL d   1     -48.257  11.953  22.891  0.00  0.00    -0.222 NA
ATOM      6  C   UNL d   1     -47.531  11.717  23.208  0.00  0.00     0.095 A 
ATOM      7  S   UNL d   1     -46.299  11.884  23.687  0.00  0.00    -0.080 SA
ATOM      8  O   UNL d   1     -46.513  13.642  23.420  0.00  0.00    -0.266 OA
ATOM      9  C   UNL d   1     -47.237  10.975  23.402  0.00  0.00     0.027 A 
ATOM     10  C   UNL d   1     -46.483  11.070  23.697  0.00  0.00     0.037 A 
ENDROOT
BRANCH   2  11
ATOM     11  S   UNL d   1     -49.132  13.001  22.430  0.00  0.00    -0.044 SA
BRANCH  11  12
ATOM     12  C   UNL d   1     -49.720  12.426  22.312  0.00  0.00     0.095 C 
ATOM     13  C   UNL d   1     -49.830  11.833  22.868  0.00  0.00     0.013 C 
BRANCH  12  14
ATOM     14  C   UNL d   1     -50.073  12.449  21.804  0.00  0.00     0.302 C 
ATOM     15  O   UNL d   1     -49.855  12.030  21.131  0.00  0.00    -0.259 OA
BRANCH  14  16
ATOM     16  O   UNL d   1     -50.768  12.903  21.807  0.00  0.00    -0.295 OA
ATOM     17  C   UNL d   1     -51.054  13.232  21.104  0.00  0.00     0.185 C 
ENDBRANCH  14  16
ENDBRANCH  12  14
ENDBRANCH  11  12
ENDBRANCH   2  11
BRANCH   1  18
ATOM     18  C   UNL d   1     -47.960  14.120  22.788  0.00  0.00     0.069 A 
ATOM     19  C   UNL d   1     -48.428  14.556  23.316  0.00  0.00     0.018 A 
ATOM     20  C   UNL d   1     -48.571  15.356  23.178  0.00  0.00     0.002 A 
ATOM     21  C   UNL d   1     -48.249  15.725  22.514  0.00  0.00     0.000 A 
ATOM     22  C   UNL d   1     -47.781  15.290  21.986  0.00  0.00     0.002 A 
ATOM     23  C   UNL d   1     -47.638  14.489  22.124  0.00  0.00     0.018 A 
ENDBRANCH   1  18
TORSDOF 5
ENDMDL
MODEL 6
REMARK VINA RESULT:      -4.9      8.800     10.109
REMARK  5 active torsions:
REMARK  status: ('A' for Active; 'I' for Inactive)
REMARK    1  A    between atoms: C_10  and  N_1 
REMARK    2  A    between atoms: S_7  and  C_2 
REMARK    3  A    between atoms: C_12  and  S_7 
REMARK    4  A    between atoms: C_9  and  C_12 
REMARK    5  A    between atoms: O_16  and  C_9 
ROOT
ATOM      1  N   UNL d   1     -40.130  15.055  18.981  0.00  0.00    -0.254 N 
ATOM      2  C   UNL d   1     -39.589  14.635  18.513  0.00  0.00     0.182 A 
ATOM      3  C   UNL d   1     -40.727  15.504  18.620  0.00  0.00     0.274 A 
ATOM      4  C   UNL d   1     -40.781  15.534  17.797  0.00  0.00     0.104 A 
ATOM      5  N   UNL d   1     -39.643  14.664  17.684  0.00  0.00    -0.222 NA
ATOM      6  C   UNL d   1     -40.240  15.113  17.330  0.00  0.00     0.095 A 
ATOM      7  S   UNL d   1     -41.299  15.921  17.295  0.00  0.00    -0.080 SA
ATOM      8  O   UNL d   1     -41.265  15.922  19.085  0.00  0.00    -0.266 OA
ATOM      9  C   UNL d   1     -40.427  15.244  16.541  0.00  0.00     0.027 A 
ATOM     10  C   UNL d   1     -41.074  15.738  16.512  0.00  0.00     0.037 A 
ENDROOT
BRANCH   2  11
ATOM     11  S   UNL d   1     -38.989  14.183  18.874  0.00  0.00    -0.044 SA
BRANCH  11  12
ATOM     12  C   UNL d   1     -38.394  13.859  18.393  0.00  0.00     0.095 C 
ATOM     13  C   UNL d   1     -37.999  14.337  17.855  0.00  0.00     0.013 C 
BRANCH  12  14
ATOM     14  C   UNL d   1     -38.253  13.259  18.442  0.00  0.00     0.302 C 
ATOM     15  O   UNL d   1     -38.097  12.930  19.180  0.00  0.00    -0.259 OA
BRANCH  14  16
ATOM     16  O   UNL d   1     -38.220  12.788  17.759  0.00  0.00    -0.295 OA
ATOM     17  C   UNL d   1     -38.044  11.982  17.816  0.00  0.00     0.185 C 
ENDBRANCH  14  16
ENDBRANCH  12  14
ENDBRANCH  11  12
ENDBRANCH   2  11
BRANCH   1  18
ATOM     18  C   UNL d   1     -40.077  15.027  19.800  0.00  0.00     0.069 A 
ATOM     19  C   UNL d   1     -40.512  14.462  20.224  0.00  0.00     0.018 A 
ATOM     20  C   UNL d   1     -40.460  14.433  21.047  0.00  0.00     0.002 A 
ATOM     21  C   UNL d   1     -39.976  14.965  21.449  0.00  0.00     0.000 A 
ATOM     22  C   UNL d   1     -39.541  15.530  21.026  0.00  0.00     0.002 A 
ATOM     23  C   UNL d   1     -39.593  15.560  20.203  0.00  0.00     0.018 A 
ENDBRANCH   1  18
TORSDOF 5
ENDMDL
MODEL 7
REMARK VINA RESULT:      -4.8      9.324     10.379
REMARK  5 active torsions:
REMARK  status: ('A' for Active; 'I' for Inactive)
REMARK    1  A    between atoms: C_10  and  N_1 
REMARK    2  A    between atoms: S_7  and  C_2 
REMARK    3  A    between atoms: C_12  and  S_7 
REMARK    4  A    between atoms: C_9  and  C_12 
REMARK    5  A    between atoms: O_16  and  C_9 
ROOT
ATOM      1  N   UNL d   1     -39.304  14.429  18.633  0.00  0.00    -0.254 N 
ATOM      2  C   UNL d   1     -39.890  14.986  18.445  0.00  0.00     0.182 A 
ATOM      3  C   UNL d   1     -39.061  14.334  19.421  0.00  0.00     0.274 A 
ATOM      4  C   UNL d   1     -39.401  14.793  20.016  0.00  0.00     0.104 A 
ATOM      5  N   UNL d   1     -40.233  15.449  19.044  0.00  0.00    -0.222 NA
ATOM      6  C   UNL d   1     -39.987  15.350  19.828  0.00  0.00     0.095 A 
ATOM      7  S   UNL d   1     -39.277  14.823  20.825  0.00  0.00    -0.080 SA
ATOM      8  O   UNL d   1     -38.479  13.780  19.608  0.00  0.00    -0.266 OA
ATOM      9  C   UNL d   1     -40.221  15.720  20.522  0.00  0.00     0.027 A 
ATOM     10  C   UNL d   1     -39.791  15.403  21.137  0.00  0.00     0.037 A 
ENDROOT
BRANCH   2  11
ATOM     11  S   UNL d   1     -40.135  15.082  17.654  0.00  0.00    -0.044 SA
BRANCH  11  12
ATOM     12  C   UNL d   1     -40.787  15.572  17.501  0.00  0.00     0.095 C 
ATOM     13  C   UNL d   1     -41.192  15.921  18.123  0.00  0.00     0.013 C 
BRANCH  12  14
ATOM     14  C   UNL d   1     -40.965  15.672  16.917  0.00  0.00     0.302 C 
ATOM     15  O   UNL d   1     -40.419  15.922  16.355  0.00  0.00    -0.259 OA
BRANCH  14  16
ATOM     16  O   UNL d   1     -41.759  15.553  16.703  0.00  0.00    -0.295 OA
ATOM     17  C   UNL d   1     -42.021  15.750  15.944  0.00  0.00     0.185 C 
ENDBRANCH  14  16
ENDBRANCH  12  14
ENDBRANCH  11  12
ENDBRANCH   2  11
BRANCH   1  18
ATOM     18  C   UNL d   1     -38.964  13.971  18.042  0.00  0.00     0.069 A 
ATOM     19  C   UNL d   1     -38.282  14.237  17.653  0.00  0.00     0.018 A 
ATOM     20  C   UNL d   1     -37.940  13.779  17.059  0.00  0.00     0.002 A 
ATOM     21  C   UNL d   1     -38.275  13.055  16.850  0.00  0.00     0.000 A 
ATOM     22  C   UNL d   1     -38.958  12.788  17.239  0.00  0.00     0.002 A 
ATOM     23  C   UNL d   1     -39.300  13.247  17.833  0.00  0.00     0.018 A 
ENDBRANCH   1  18
TORSDOF 5
ENDMDL
MODEL 8
REMARK VINA RESULT:      -4.7      8.243     10.045
REMARK  5 active torsions:
REMARK  status: ('A' for Active; 'I' for Inactive)
REMARK    1  A    between atoms: C_10  and  N_1 
REMARK    2  A    between atoms: S_7  and  C_2 
REMARK    3  A    between atoms: C_12  and  S_7 
REMARK    4  A    between atoms: C_9  and  C_12 
REMARK    5  A    between atoms: O_16  and  C_9 
ROOT
ATOM      1  N   UNL d   1     -39.912  14.471  19.439  0.00  0.00    -0.254 N 
ATOM      2  C   UNL d   1     -39.212  14.152  19.751  0.00  0.00     0.182 A 
ATOM      3  C   UNL d   1     -40.035  14.475  18.619  0.00  0.00     0.274 A 
ATOM      4  C   UNL d   1     -39.462  14.163  18.114  0.00  0.00     0.104 A 
ATOM      5  N   UNL d   1     -38.635  13.837  19.243  0.00  0.00    -0.222 NA
ATOM      6  C   UNL d   1     -38.762  13.844  18.426  0.00  0.00     0.095 A 
ATOM      7  S   UNL d   1     -39.429  14.092  17.298  0.00  0.00    -0.080 SA
ATOM      8  O   UNL d   1     -40.730  14.792  18.309  0.00  0.00    -0.266 OA
ATOM      9  C   UNL d   1     -38.301  13.578  17.801  0.00  0.00     0.027 A 
ATOM     10  C   UNL d   1     -38.703  13.727  17.108  0.00  0.00     0.037 A 
ENDROOT
BRANCH   2  11
ATOM     11  S   UNL d   1     -39.087  14.146  20.575  0.00  0.00    -0.044 SA
BRANCH  11  12
ATOM     12  C   UNL d   1     -38.409  13.769  20.869  0.00  0.00     0.095 C 
ATOM     13  C   UNL d   1     -37.942  13.318  20.367  0.00  0.00     0.013 C 
BRANCH  12  14
ATOM     14  C   UNL d   1     -38.258  13.830  21.466  0.00  0.00     0.302 C 
ATOM     15  O   UNL d   1     -37.940  14.537  21.741  0.00  0.00    -0.259 OA
BRANCH  14  16
ATOM     16  O   UNL d   1     -38.378  13.195  21.987  0.00  0.00    -0.295 OA
ATOM     17  C   UNL d   1     -38.264  13.295  22.800  0.00  0.00     0.185 C 
ENDBRANCH  14  16
ENDBRANCH  12  14
ENDBRANCH  11  12
ENDBRANCH   2  11
BRANCH   1  18
ATOM     18  C   UNL d   1     -40.483  14.782  19.941  0.00  0.00     0.069 A 
ATOM     19  C   UNL d   1     -40.462  15.585  20.144  0.00  0.00     0.018 A 
ATOM     20  C   UNL d   1     -41.035  15.900  20.648  0.00  0.00     0.002 A 
ATOM     21  C   UNL d   1     -41.630  15.415  20.950  0.00  0.00     0.000 A 
ATOM     22  C   UNL d   1     -41.651  14.611  20.746  0.00  0.00     0.002 A 
ATOM     23  C   UNL d   1     -41.079  14.297  20.243  0.00  0.00     0.018 A 
ENDBRANCH   1  18
TORSDOF 5
ENDMDL
