MODEL 1
REMARK VINA RESULT:      -5.1      0.000      0.000
REMARK  4 active torsions:
REMARK  status: ('A' for Active; 'I' for Inactive)
REMARK    1  A    between atoms: N_3  and  C_1 
REMARK       I    between atoms: C_7  and  N_3 
REMARK    2  A    between atoms: C_11  and  C_7 
REMARK    3  A    between atoms: C_12  and  C_11 
REMARK    4  A    between atoms: C_13  and  C_12 
ROOT
ATOM      1  C   UNL d   1     -41.716-123.027 -50.675  0.00  0.00     0.124 A 
ATOM      2  C   UNL d   1     -42.262-122.970 -50.056  0.00  0.00     0.093 A 
ATOM      3  C   UNL d   1     -42.947-122.509 -50.047  0.00  0.00     0.103 C 
ATOM      4  S   UNL d   1     -41.124-123.547 -50.441  0.00  0.00    -0.067 SA
ATOM      5  N   UNL d   1     -43.609-122.071 -50.024  0.00  0.00    -0.191 NA
ATOM      6  C   UNL d   1     -42.001-123.462 -49.436  0.00  0.00     0.019 A 
ATOM      7  C   UNL d   1     -41.295-123.817 -49.680  0.00  0.00     0.038 A 
ENDROOT
BRANCH   1   8
ATOM      8  N   UNL d   1     -41.759-122.631 -51.397  0.00  0.00    -0.201 NA
ATOM      9  C   UNL d   1     -41.461-122.990 -52.079  0.00  0.00     0.280 C 
ATOM     10  O   UNL d   1     -41.122-123.740 -52.039  0.00  0.00    -0.265 OA
BRANCH   9  11
ATOM     11  C   UNL d   1     -41.505-122.591 -52.803  0.00  0.00     0.062 C 
BRANCH  11  12
ATOM     12  C   UNL d   1     -41.559-123.014 -53.508  0.00  0.00     0.005 C 
BRANCH  12  13
ATOM     13  C   UNL d   1     -41.720-122.616 -54.226  0.00  0.00     0.000 A 
ATOM     14  C   UNL d   1     -42.416-122.178 -54.313  0.00  0.00     0.000 A 
ATOM     15  C   UNL d   1     -42.571-121.790 -55.015  0.00  0.00     0.000 A 
ATOM     16  C   UNL d   1     -42.038-121.834 -55.636  0.00  0.00     0.000 A 
ATOM     17  C   UNL d   1     -41.345-122.270 -55.551  0.00  0.00     0.000 A 
ATOM     18  C   UNL d   1     -41.187-122.658 -54.852  0.00  0.00     0.000 A 
ENDBRANCH  12  13
ENDBRANCH  11  12
ENDBRANCH   9  11
ENDBRANCH   1   8
TORSDOF 4
ENDMDL
MODEL 2
REMARK VINA RESULT:      -2.6      1.709      4.515
REMARK  4 active torsions:
REMARK  status: ('A' for Active; 'I' for Inactive)
REMARK    1  A    between atoms: N_3  and  C_1 
REMARK       I    between atoms: C_7  and  N_3 
REMARK    2  A    between atoms: C_11  and  C_7 
REMARK    3  A    between atoms: C_12  and  C_11 
REMARK    4  A    between atoms: C_13  and  C_12 
ROOT
ATOM      1  C   UNL d   1     -41.755-122.310 -54.286  0.00  0.00     0.124 A 
ATOM      2  C   UNL d   1     -42.230-122.550 -54.920  0.00  0.00     0.093 A 
ATOM      3  C   UNL d   1     -42.742-123.197 -54.933  0.00  0.00     0.103 C 
ATOM      4  S   UNL d   1     -41.340-121.641 -54.522  0.00  0.00    -0.067 SA
ATOM      5  N   UNL d   1     -43.238-123.817 -54.959  0.00  0.00    -0.191 NA
ATOM      6  C   UNL d   1     -42.103-122.020 -55.552  0.00  0.00     0.019 A 
ATOM      7  C   UNL d   1     -41.550-121.460 -55.300  0.00  0.00     0.038 A 
ENDROOT
BRANCH   1   8
ATOM      8  N   UNL d   1     -41.709-122.678 -53.550  0.00  0.00    -0.201 NA
ATOM      9  C   UNL d   1     -41.461-122.245 -52.891  0.00  0.00     0.280 C 
ATOM     10  O   UNL d   1     -41.261-121.450 -52.969  0.00  0.00    -0.265 OA
BRANCH   9  11
ATOM     11  C   UNL d   1     -41.415-122.616 -52.152  0.00  0.00     0.062 C 
BRANCH  11  12
ATOM     12  C   UNL d   1     -41.634-122.211 -51.470  0.00  0.00     0.005 C 
BRANCH  12  13
ATOM     13  C   UNL d   1     -41.730-122.623 -50.748  0.00  0.00     0.000 A 
ATOM     14  C   UNL d   1     -41.123-123.103 -50.458  0.00  0.00     0.000 A 
ATOM     15  C   UNL d   1     -41.219-123.505 -49.753  0.00  0.00     0.000 A 
ATOM     16  C   UNL d   1     -41.918-123.434 -49.331  0.00  0.00     0.000 A 
ATOM     17  C   UNL d   1     -42.524-122.957 -49.619  0.00  0.00     0.000 A 
ATOM     18  C   UNL d   1     -42.431-122.554 -50.322  0.00  0.00     0.000 A 
ENDBRANCH  12  13
ENDBRANCH  11  12
ENDBRANCH   9  11
ENDBRANCH   1   8
TORSDOF 4
ENDMDL
