MODEL 1
REMARK VINA RESULT:      -4.0      0.000      0.000
REMARK  2 active torsions:
REMARK  status: ('A' for Active; 'I' for Inactive)
REMARK    1  A    between atoms: C_2  and  P_1 
REMARK    2  A    between atoms: C_7  and  C_2 
ROOT
ATOM      1  C   UNL d   1      56.254  -0.102  33.182  0.00  0.00     0.194 C 
ATOM      2  N   UNL d   1      56.961   0.226  33.474  0.00  0.00    -0.138 N 
ENDROOT
BRANCH   1   3
ATOM      3  P   UNL d   1      55.530   0.242  33.416  0.00  0.00     0.317 P 
ATOM      4  O   UNL d   1      54.823   0.580  33.638  0.00  0.00    -0.635 OA
ATOM      5  O   UNL d   1      55.530   0.680  32.696  0.00  0.00    -0.635 OA
ATOM      6  O   UNL d   1      55.533  -0.194  34.128  0.00  0.00    -0.635 OA
ENDBRANCH   1   3
BRANCH   1   7
ATOM      7  C   UNL d   1      56.271  -0.752  32.674  0.00  0.00     0.029 C 
ATOM      8  C   UNL d   1      55.896  -1.448  32.884  0.00  0.00     0.002 C 
ATOM      9  C   UNL d   1      56.670  -0.692  31.953  0.00  0.00     0.002 C 
ENDBRANCH   1   7
TORSDOF 2
ENDMDL
MODEL 2
REMARK VINA RESULT:      -3.7      1.528      1.838
REMARK  2 active torsions:
REMARK  status: ('A' for Active; 'I' for Inactive)
REMARK    1  A    between atoms: C_2  and  P_1 
REMARK    2  A    between atoms: C_7  and  C_2 
ROOT
ATOM      1  C   UNL d   1      56.612  -0.158  32.649  0.00  0.00     0.194 C 
ATOM      2  N   UNL d   1      57.152   0.197  33.172  0.00  0.00    -0.138 N 
ENDROOT
BRANCH   1   3
ATOM      3  P   UNL d   1      56.778  -0.137  31.831  0.00  0.00     0.317 P 
ATOM      4  O   UNL d   1      56.937  -0.109  31.033  0.00  0.00    -0.635 OA
ATOM      5  O   UNL d   1      56.573   0.682  31.832  0.00  0.00    -0.635 OA
ATOM      6  O   UNL d   1      56.979  -0.947  31.833  0.00  0.00    -0.635 OA
ENDBRANCH   1   3
BRANCH   1   7
ATOM      7  C   UNL d   1      55.928  -0.523  32.934  0.00  0.00     0.029 C 
ATOM      8  C   UNL d   1      55.848  -1.335  32.891  0.00  0.00     0.002 C 
ATOM      9  C   UNL d   1      55.329  -0.058  33.262  0.00  0.00     0.002 C 
ENDBRANCH   1   7
TORSDOF 2
ENDMDL
