MODEL 1
REMARK VINA RESULT:      58.3      0.000      0.000
REMARK  4 active torsions:
REMARK  status: ('A' for Active; 'I' for Inactive)
REMARK    1  A    between atoms: N_6  and  C_2 
REMARK    2  A    between atoms: N_8  and  C_3 
REMARK    3  A    between atoms: C_10  and  N_8 
REMARK    4  A    between atoms: C_14  and  C_10 
ROOT
ATOM      1  N   UNL d   1      45.268 -14.645  43.191  0.00  0.00    -0.041 NA
ATOM      2  C   UNL d   1      45.720 -15.091  43.731  0.00  0.00     0.737 A 
ATOM      3  C   UNL d   1      45.275 -13.817  43.230  0.00  0.00     0.182 A 
ATOM      4  N   UNL d   1      46.179 -14.703  44.309  0.00  0.00    -0.060 NA
ATOM      5  C   UNL d   1      45.732 -13.432  43.806  0.00  0.00     0.055 A 
ATOM      6  C   UNL d   1      46.181 -13.869  44.342  0.00  0.00     0.103 A 
ATOM      7  C   UNL d   1      45.739 -12.603  43.845  0.00  0.00     0.005 A 
ATOM      8  C   UNL d   1      46.642 -13.482  44.924  0.00  0.00     0.020 A 
ATOM      9  C   UNL d   1      46.188 -12.221  44.411  0.00  0.00     0.000 A 
ATOM     10  C   UNL d   1      46.642 -12.663  44.954  0.00  0.00     0.002 A 
ENDROOT
BRANCH   3  11
ATOM     11  N   UNL d   1      44.808 -13.352  42.672  0.00  0.00    -0.225 NA
BRANCH  11  12
ATOM     12  C   UNL d   1      45.021 -12.667  42.420  0.00  0.00     0.101 C 
BRANCH  12  13
ATOM     13  C   UNL d   1      44.878 -12.469  41.696  0.00  0.00     0.019 A 
ATOM     14  C   UNL d   1      45.448 -12.283  41.244  0.00  0.00     0.002 A 
ATOM     15  C   UNL d   1      45.305 -12.087  40.527  0.00  0.00     0.000 A 
ATOM     16  C   UNL d   1      44.592 -12.080  40.268  0.00  0.00     0.000 A 
ATOM     17  C   UNL d   1      44.020 -12.272  40.740  0.00  0.00     0.000 A 
ATOM     18  C   UNL d   1      44.171 -12.466  41.452  0.00  0.00     0.002 A 
ENDBRANCH  12  13
ENDBRANCH  11  12
ENDBRANCH   3  11
BRANCH   2  19
ATOM     19  N   UNL d   1      45.713 -15.948  43.691  0.00  0.00    -0.133 N 
ATOM     20  C   UNL d   1      45.163 -16.343  43.165  0.00  0.00     0.125 A 
ATOM     21  C   UNL d   1      45.152 -17.191  43.121  0.00  0.00     0.142 A 
ATOM     22  O   UNL d   1      45.686 -17.648  43.599  0.00  0.00    -0.300 OA
ATOM     23  C   UNL d   1      46.237 -17.252  44.125  0.00  0.00     0.142 A 
ATOM     24  C   UNL d   1      46.250 -16.402  44.170  0.00  0.00     0.125 A 
ENDBRANCH   2  19
TORSDOF 4
ENDMDL
