MODEL 1
REMARK VINA RESULT:      31.6      0.000      0.000
REMARK  4 active torsions:
REMARK  status: ('A' for Active; 'I' for Inactive)
REMARK    1  A    between atoms: N_9  and  C_3 
REMARK    2  A    between atoms: C_12  and  C_5 
REMARK    3  A    between atoms: C_15  and  N_11 
REMARK    4  A    between atoms: C_19  and  C_15 
ROOT
ATOM      1  N   UNL d   1      46.116 -17.516  43.239  0.00  0.00    -0.196 N 
ATOM      2  C   UNL d   1      46.294 -18.288  43.009  0.00  0.00     0.167 A 
ATOM      3  C   UNL d   1      46.102 -17.316  44.037  0.00  0.00     0.152 A 
ATOM      4  N   UNL d   1      45.980 -17.078  42.561  0.00  0.00    -0.163 NA
ATOM      5  C   UNL d   1      46.267 -18.326  42.190  0.00  0.00     0.055 A 
ATOM      6  C   UNL d   1      46.073 -17.580  41.911  0.00  0.00     0.104 A 
ATOM      7  N   UNL d   1      46.458 -18.860  43.577  0.00  0.00    -0.227 NA
ATOM      8  C   UNL d   1      46.267 -17.890  44.613  0.00  0.00     0.057 A 
ATOM      9  C   UNL d   1      46.445 -18.662  44.383  0.00  0.00     0.086 A 
ATOM     10  C   UNL d   1      45.987 -17.368  41.118  0.00  0.00     0.023 C 
ATOM     11  C   UNL d   1      46.612 -19.246  44.952  0.00  0.00     0.021 C 
ENDROOT
BRANCH   3  12
ATOM     12  N   UNL d   1      45.925 -16.544  44.267  0.00  0.00    -0.286 N 
ATOM     13  C   UNL d   1      46.518 -15.989  44.339  0.00  0.00     0.101 A 
ATOM     14  C   UNL d   1      46.335 -15.214  44.571  0.00  0.00     0.100 A 
ATOM     15  N   UNL d   1      45.576 -15.007  44.724  0.00  0.00    -0.300 N 
ATOM     16  C   UNL d   1      44.971 -15.570  44.651  0.00  0.00     0.100 A 
ATOM     17  C   UNL d   1      45.146 -16.330  44.424  0.00  0.00     0.101 A 
BRANCH  15  18
ATOM     18  C   UNL d   1      45.416 -14.224  44.955  0.00  0.00     0.080 C 
BRANCH  18  19
ATOM     19  C   UNL d   1      45.326 -13.639  44.379  0.00  0.00     0.018 A 
ATOM     20  C   UNL d   1      44.699 -13.681  43.840  0.00  0.00     0.002 A 
ATOM     21  C   UNL d   1      44.619 -13.088  43.266  0.00  0.00     0.000 A 
ATOM     22  C   UNL d   1      45.154 -12.476  43.239  0.00  0.00     0.000 A 
ATOM     23  C   UNL d   1      45.766 -12.440  43.769  0.00  0.00     0.000 A 
ATOM     24  C   UNL d   1      45.856 -13.025  44.346  0.00  0.00     0.002 A 
ENDBRANCH  18  19
ENDBRANCH  15  18
ENDBRANCH   3  12
BRANCH   5  25
ATOM     25  C   UNL d   1      46.394 -18.943  41.655  0.00  0.00     0.004 A 
ATOM     26  C   UNL d   1      46.507 -19.712  41.929  0.00  0.00     0.000 A 
ATOM     27  C   UNL d   1      46.634 -20.327  41.398  0.00  0.00     0.000 A 
ATOM     28  C   UNL d   1      46.647 -20.173  40.581  0.00  0.00     0.000 A 
ATOM     29  C   UNL d   1      46.533 -19.404  40.307  0.00  0.00     0.000 A 
ATOM     30  C   UNL d   1      46.407 -18.787  40.841  0.00  0.00     0.000 A 
ENDBRANCH   5  25
TORSDOF 4
ENDMDL
