MODEL 1
REMARK VINA RESULT:      64.5      0.000      0.000
REMARK  3 active torsions:
REMARK  status: ('A' for Active; 'I' for Inactive)
REMARK    1  A    between atoms: C_5  and  S_1 
REMARK    2  A    between atoms: N_7  and  S_1 
REMARK       I    between atoms: N_2  and  C_3 
REMARK    3  A    between atoms: C_3  and  C_9 
ROOT
ATOM      1  C   UNL d   1     -56.220 -99.930 -44.685  0.00  0.00     0.104 A 
ATOM      2  C   UNL d   1     -55.380-100.990 -44.230  0.00  0.00     0.059 A 
ATOM      3  C   UNL d   1     -56.134-100.674 -44.344  0.00  0.00     0.018 A 
ATOM      4  C   UNL d   1     -55.556 -99.499 -44.913  0.00  0.00     0.012 A 
ATOM      5  C   UNL d   1     -54.712-100.561 -44.457  0.00  0.00     0.005 A 
ATOM      6  C   UNL d   1     -54.801 -99.815 -44.799  0.00  0.00     0.001 A 
ATOM      7  C   UNL d   1     -55.642 -98.755 -45.253  0.00  0.00     0.001 C 
ENDROOT
BRANCH   1   8
ATOM      8  S   UNL d   1     -56.967 -99.617 -44.798  0.00  0.00     0.272 S 
ATOM      9  O   UNL d   1     -57.268-100.050 -44.007  0.00  0.00    -0.200 OA
ATOM     10  O   UNL d   1     -56.705 -99.240 -45.486  0.00  0.00    -0.200 OA
BRANCH   8  11
ATOM     11  N   UNL d   1     -57.742 -99.328 -44.860  0.00  0.00    -0.225 N 
ATOM     12  C   UNL d   1     -58.209 -99.275 -44.191  0.00  0.00     0.118 A 
ATOM     13  C   UNL d   1     -58.980 -98.988 -44.252  0.00  0.00     0.142 A 
ATOM     14  O   UNL d   1     -59.279 -98.756 -44.990  0.00  0.00    -0.300 OA
ATOM     15  C   UNL d   1     -58.799 -98.814 -45.661  0.00  0.00     0.142 A 
ATOM     16  C   UNL d   1     -58.023 -99.102 -45.600  0.00  0.00     0.118 A 
ENDBRANCH   8  11
ENDBRANCH   1   8
BRANCH   2  17
ATOM     17  C   UNL d   1     -55.285-101.735 -43.890  0.00  0.00     0.280 C 
ATOM     18  N   UNL d   1     -55.118-101.801 -43.089  0.00  0.00    -0.195 N 
ATOM     19  N   UNL d   1     -55.010-102.491 -42.673  0.00  0.00    -0.163 NA
ATOM     20  C   UNL d   1     -55.032-101.165 -42.567  0.00  0.00     0.088 A 
ATOM     21  C   UNL d   1     -54.854-102.304 -41.884  0.00  0.00     0.103 A 
ATOM     22  C   UNL d   1     -54.711-102.836 -41.273  0.00  0.00     0.022 C 
ATOM     23  C   UNL d   1     -54.868-101.482 -41.820  0.00  0.00     0.040 A 
ATOM     24  C   UNL d   1     -55.097-100.361 -42.754  0.00  0.00     0.021 C 
ATOM     25  O   UNL d   1     -55.358-102.410 -44.353  0.00  0.00    -0.265 OA
ENDBRANCH   2  17
TORSDOF 3
ENDMDL
