MODEL 1
REMARK VINA RESULT:      24.0      0.000      0.000
REMARK  7 active torsions:
REMARK  status: ('A' for Active; 'I' for Inactive)
REMARK    1  A    between atoms: C_7  and  C_3 
REMARK    2  A    between atoms: C_8  and  C_7 
REMARK       I    between atoms: N_12  and  C_8 
REMARK    3  A    between atoms: C_15  and  N_12 
REMARK    4  A    between atoms: C_13  and  C_15 
REMARK    5  A    between atoms: C_16  and  C_13 
REMARK    6  A    between atoms: O_14  and  C_16 
REMARK    7  A    between atoms: C_17  and  O_14 
ROOT
ATOM      1  C   UNL d   1      59.540  49.697  51.482  0.00  0.00     0.082 C 
ENDROOT
BRANCH   1   2
ATOM      2  C   UNL d   1      60.350  49.661  51.306  0.00  0.00     0.096 A 
ATOM      3  C   UNL d   1      60.604  49.699  50.520  0.00  0.00     0.082 A 
ATOM      4  C   UNL d   1      61.413  49.665  50.332  0.00  0.00     0.285 A 
ATOM      5  N   UNL d   1      61.957  49.591  50.953  0.00  0.00    -0.152 NA
ATOM      6  O   UNL d   1      61.665  49.703  49.555  0.00  0.00    -0.265 OA
ATOM      7  C   UNL d   1      61.702  49.553  51.739  0.00  0.00     0.371 A 
ATOM      8  N   UNL d   1      60.902  49.588  51.912  0.00  0.00    -0.191 NA
ATOM      9  O   UNL d   1      62.257  49.479  52.350  0.00  0.00    -0.242 OA
ENDBRANCH   1   2
BRANCH   1  10
ATOM     10  C   UNL d   1      58.986  49.695  50.870  0.00  0.00     0.281 C 
ATOM     11  O   UNL d   1      59.238  49.683  50.082  0.00  0.00    -0.265 OA
ATOM     12  N   UNL d   1      58.180  49.707  51.047  0.00  0.00    -0.206 NA
BRANCH  12  13
ATOM     13  C   UNL d   1      57.626  49.705  50.436  0.00  0.00     0.104 C 
BRANCH  13  14
ATOM     14  C   UNL d   1      56.827  49.585  50.606  0.00  0.00     0.048 C 
BRANCH  14  15
ATOM     15  C   UNL d   1      56.281  49.524  49.991  0.00  0.00     0.124 C 
BRANCH  15  16
ATOM     16  O   UNL d   1      56.046  48.773  49.729  0.00  0.00    -0.303 OA
BRANCH  16  17
ATOM     17  C   UNL d   1      56.565  48.325  49.268  0.00  0.00     0.123 C 
ATOM     18  C   UNL d   1      56.277  47.688  48.830  0.00  0.00     0.029 C 
ENDBRANCH  16  17
ENDBRANCH  15  16
ENDBRANCH  14  15
ENDBRANCH  13  14
ENDBRANCH  12  13
ENDBRANCH   1  10
TORSDOF 7
ENDMDL
MODEL 2
REMARK VINA RESULT:      25.0      1.258      4.647
REMARK  7 active torsions:
REMARK  status: ('A' for Active; 'I' for Inactive)
REMARK    1  A    between atoms: C_7  and  C_3 
REMARK    2  A    between atoms: C_8  and  C_7 
REMARK       I    between atoms: N_12  and  C_8 
REMARK    3  A    between atoms: C_15  and  N_12 
REMARK    4  A    between atoms: C_13  and  C_15 
REMARK    5  A    between atoms: C_16  and  C_13 
REMARK    6  A    between atoms: O_14  and  C_16 
REMARK    7  A    between atoms: C_17  and  O_14 
ROOT
ATOM      1  C   UNL d   1      58.658  49.659  50.062  0.00  0.00     0.082 C 
ENDROOT
BRANCH   1   2
ATOM      2  C   UNL d   1      57.834  49.625  50.142  0.00  0.00     0.096 A 
ATOM      3  C   UNL d   1      57.356  49.554  49.471  0.00  0.00     0.082 A 
ATOM      4  C   UNL d   1      56.528  49.520  49.539  0.00  0.00     0.285 A 
ATOM      5  N   UNL d   1      56.196  49.559  50.296  0.00  0.00    -0.152 NA
ATOM      6  O   UNL d   1      56.056  49.449  48.875  0.00  0.00    -0.265 OA
ATOM      7  C   UNL d   1      56.673  49.630  50.967  0.00  0.00     0.371 A 
ATOM      8  N   UNL d   1      57.488  49.663  50.888  0.00  0.00    -0.191 NA
ATOM      9  O   UNL d   1      56.327  49.668  51.719  0.00  0.00    -0.242 OA
ENDBRANCH   1   2
BRANCH   1  10
ATOM     10  C   UNL d   1      59.140  49.591  50.729  0.00  0.00     0.281 C 
ATOM     11  O   UNL d   1      58.806  49.420  51.466  0.00  0.00    -0.265 OA
ATOM     12  N   UNL d   1      59.955  49.695  50.658  0.00  0.00    -0.206 NA
BRANCH  12  13
ATOM     13  C   UNL d   1      60.437  49.627  51.325  0.00  0.00     0.104 C 
BRANCH  13  14
ATOM     14  C   UNL d   1      61.198  49.316  51.252  0.00  0.00     0.048 C 
BRANCH  14  15
ATOM     15  C   UNL d   1      61.580  49.007  51.915  0.00  0.00     0.124 C 
BRANCH  15  16
ATOM     16  O   UNL d   1      61.780  49.514  52.540  0.00  0.00    -0.303 OA
BRANCH  16  17
ATOM     17  C   UNL d   1      61.223  49.670  53.128  0.00  0.00     0.123 C 
ATOM     18  C   UNL d   1      61.455  49.686  53.920  0.00  0.00     0.029 C 
ENDBRANCH  16  17
ENDBRANCH  15  16
ENDBRANCH  14  15
ENDBRANCH  13  14
ENDBRANCH  12  13
ENDBRANCH   1  10
TORSDOF 7
ENDMDL
