MODEL 1
REMARK VINA RESULT:      -4.6      0.000      0.000
REMARK  5 active torsions:
REMARK  status: ('A' for Active; 'I' for Inactive)
REMARK    1  A    between atoms: C_2  and  S_1 
REMARK    2  A    between atoms: N_8  and  S_1 
REMARK    3  A    between atoms: C_3  and  C_14 
REMARK    4  A    between atoms: C_17  and  N_8 
REMARK    5  A    between atoms: C_23  and  C_11 
ROOT
ATOM      1  C   UNL d   1      57.356   0.660  31.735  0.00  0.00     0.024 A 
ATOM      2  C   UNL d   1      58.280   0.652  30.357  0.00  0.00     0.094 A 
ATOM      3  C   UNL d   1      58.181   0.644  31.795  0.00  0.00     0.004 A 
ATOM      4  C   UNL d   1      57.006   0.672  30.990  0.00  0.00     0.004 A 
ATOM      5  C   UNL d   1      57.461   0.668  30.311  0.00  0.00     0.020 A 
ATOM      6  C   UNL d   1      58.642   0.640  31.116  0.00  0.00     0.020 A 
ENDROOT
BRANCH   2   7
ATOM      7  N   UNL d   1      58.737   0.649  29.682  0.00  0.00    -0.158 NA
BRANCH   7   8
ATOM      8  S   UNL d   1      59.042  -0.061  29.393  0.00  0.00     0.291 S 
ATOM      9  O   UNL d   1      59.696   0.032  29.873  0.00  0.00    -0.198 OA
ATOM     10  O   UNL d   1      58.388  -0.152  28.915  0.00  0.00    -0.198 OA
BRANCH   8  11
ATOM     11  C   UNL d   1      59.340  -0.766  29.103  0.00  0.00     0.135 A 
ATOM     12  S   UNL d   1      58.941  -1.490  29.034  0.00  0.00    -0.074 SA
ATOM     13  C   UNL d   1      59.456  -2.047  28.714  0.00  0.00     0.030 A 
ATOM     14  C   UNL d   1      60.180  -1.666  28.582  0.00  0.00     0.008 A 
ATOM     15  C   UNL d   1      60.119  -0.886  28.816  0.00  0.00     0.020 A 
BRANCH  13  16
ATOM     16  C   UNL d   1      59.284  -2.825  28.557  0.00  0.00     0.006 C 
ATOM     17  C   UNL d   1      59.858  -3.408  28.692  0.00  0.00     0.001 C 
ENDBRANCH  13  16
ENDBRANCH   8  11
ENDBRANCH   7   8
ENDBRANCH   2   7
BRANCH   1  18
ATOM     18  C   UNL d   1      56.897   0.664  32.421  0.00  0.00     0.112 A 
ATOM     19  S   UNL d   1      57.187   0.670  33.188  0.00  0.00    -0.047 SA
ATOM     20  C   UNL d   1      56.534   0.672  33.715  0.00  0.00     0.130 A 
ATOM     21  N   UNL d   1      56.485   0.678  34.536  0.00  0.00    -0.236 NA
ATOM     22  C   UNL d   1      55.842   0.667  33.250  0.00  0.00     0.106 A 
ATOM     23  C   UNL d   1      55.740   0.679  34.898  0.00  0.00     0.100 A 
ATOM     24  C   UNL d   1      55.049   0.673  34.440  0.00  0.00     0.022 A 
ATOM     25  C   UNL d   1      55.102   0.667  33.620  0.00  0.00     0.023 A 
ATOM     26  N   UNL d   1      56.070   0.661  32.447  0.00  0.00    -0.237 NA
ENDBRANCH   1  18
TORSDOF 5
ENDMDL
MODEL 2
REMARK VINA RESULT:      -3.5      1.160      1.440
REMARK  5 active torsions:
REMARK  status: ('A' for Active; 'I' for Inactive)
REMARK    1  A    between atoms: C_2  and  S_1 
REMARK    2  A    between atoms: N_8  and  S_1 
REMARK    3  A    between atoms: C_3  and  C_14 
REMARK    4  A    between atoms: C_17  and  N_8 
REMARK    5  A    between atoms: C_23  and  C_11 
ROOT
ATOM      1  C   UNL d   1      56.801   0.056  32.208  0.00  0.00     0.024 A 
ATOM      2  C   UNL d   1      57.351  -0.225  30.669  0.00  0.00     0.094 A 
ATOM      3  C   UNL d   1      56.908  -0.722  31.948  0.00  0.00     0.004 A 
ATOM      4  C   UNL d   1      56.970   0.680  31.697  0.00  0.00     0.004 A 
ATOM      5  C   UNL d   1      57.241   0.541  30.939  0.00  0.00     0.020 A 
ATOM      6  C   UNL d   1      57.180  -0.865  31.187  0.00  0.00     0.020 A 
ENDROOT
BRANCH   2   7
ATOM      7  N   UNL d   1      57.622  -0.368  29.913  0.00  0.00    -0.158 NA
BRANCH   7   8
ATOM      8  S   UNL d   1      58.430  -0.444  29.771  0.00  0.00     0.291 S 
ATOM      9  O   UNL d   1      58.362  -1.254  29.844  0.00  0.00    -0.198 OA
ATOM     10  O   UNL d   1      58.498   0.365  29.697  0.00  0.00    -0.198 OA
BRANCH   8  11
ATOM     11  C   UNL d   1      59.233  -0.513  29.629  0.00  0.00     0.135 A 
ATOM     12  S   UNL d   1      59.669  -1.212  29.529  0.00  0.00    -0.074 SA
ATOM     13  C   UNL d   1      60.458  -1.017  29.399  0.00  0.00     0.030 A 
ATOM     14  C   UNL d   1      60.514  -0.190  29.418  0.00  0.00     0.008 A 
ATOM     15  C   UNL d   1      59.773   0.125  29.558  0.00  0.00     0.020 A 
BRANCH  13  16
ATOM     16  C   UNL d   1      61.068  -1.540  29.275  0.00  0.00     0.006 C 
ATOM     17  C   UNL d   1      61.131  -2.217  29.751  0.00  0.00     0.001 C 
ENDBRANCH  13  16
ENDBRANCH   8  11
ENDBRANCH   7   8
ENDBRANCH   2   7
BRANCH   1  18
ATOM     18  C   UNL d   1      56.527   0.196  32.974  0.00  0.00     0.112 A 
ATOM     19  S   UNL d   1      55.739   0.239  33.197  0.00  0.00    -0.047 SA
ATOM     20  C   UNL d   1      55.708   0.389  34.022  0.00  0.00     0.130 A 
ATOM     21  N   UNL d   1      55.080   0.486  34.545  0.00  0.00    -0.236 NA
ATOM     22  C   UNL d   1      56.495   0.437  34.294  0.00  0.00     0.106 A 
ATOM     23  C   UNL d   1      55.236   0.631  35.345  0.00  0.00     0.100 A 
ATOM     24  C   UNL d   1      56.017   0.680  35.619  0.00  0.00     0.022 A 
ATOM     25  C   UNL d   1      56.642   0.583  35.095  0.00  0.00     0.023 A 
ATOM     26  N   UNL d   1      57.001   0.317  33.641  0.00  0.00    -0.237 NA
ENDBRANCH   1  18
TORSDOF 5
ENDMDL
MODEL 3
REMARK VINA RESULT:      -3.2      1.612      5.567
REMARK  5 active torsions:
REMARK  status: ('A' for Active; 'I' for Inactive)
REMARK    1  A    between atoms: C_2  and  S_1 
REMARK    2  A    between atoms: N_8  and  S_1 
REMARK    3  A    between atoms: C_3  and  C_14 
REMARK    4  A    between atoms: C_17  and  N_8 
REMARK    5  A    between atoms: C_23  and  C_11 
ROOT
ATOM      1  C   UNL d   1      58.979  -1.272  29.693  0.00  0.00     0.024 A 
ATOM      2  C   UNL d   1      58.144   0.039  30.275  0.00  0.00     0.094 A 
ATOM      3  C   UNL d   1      58.151  -1.278  29.689  0.00  0.00     0.004 A 
ATOM      4  C   UNL d   1      59.375  -0.612  29.987  0.00  0.00     0.004 A 
ATOM      5  C   UNL d   1      58.964   0.033  30.274  0.00  0.00     0.020 A 
ATOM      6  C   UNL d   1      57.735  -0.632  29.976  0.00  0.00     0.020 A 
ENDROOT
BRANCH   2   7
ATOM      7  N   UNL d   1      57.730   0.681  30.561  0.00  0.00    -0.158 NA
BRANCH   7   8
ATOM      8  S   UNL d   1      57.376   0.648  31.304  0.00  0.00     0.291 S 
ATOM      9  O   UNL d   1      56.642   0.613  30.948  0.00  0.00    -0.198 OA
ATOM     10  O   UNL d   1      58.109   0.682  31.659  0.00  0.00    -0.198 OA
BRANCH   8  11
ATOM     11  C   UNL d   1      57.030   0.614  32.045  0.00  0.00     0.135 A 
ATOM     12  S   UNL d   1      56.221   0.645  32.225  0.00  0.00    -0.074 SA
ATOM     13  C   UNL d   1      56.129   0.593  33.042  0.00  0.00     0.030 A 
ATOM     14  C   UNL d   1      56.887   0.529  33.372  0.00  0.00     0.008 A 
ATOM     15  C   UNL d   1      57.441   0.541  32.772  0.00  0.00     0.020 A 
BRANCH  13  16
ATOM     16  C   UNL d   1      55.425   0.603  33.447  0.00  0.00     0.006 C 
ATOM     17  C   UNL d   1      55.150  -0.091  33.811  0.00  0.00     0.001 C 
ENDBRANCH  13  16
ENDBRANCH   8  11
ENDBRANCH   7   8
ENDBRANCH   2   7
BRANCH   1  18
ATOM     18  C   UNL d   1      59.394  -1.923  29.404  0.00  0.00     0.112 A 
ATOM     19  S   UNL d   1      60.196  -1.939  29.235  0.00  0.00    -0.047 SA
ATOM     20  C   UNL d   1      60.389  -2.707  28.955  0.00  0.00     0.130 A 
ATOM     21  N   UNL d   1      61.097  -3.044  28.705  0.00  0.00    -0.236 NA
ATOM     22  C   UNL d   1      59.686  -3.154  28.957  0.00  0.00     0.106 A 
ATOM     23  C   UNL d   1      61.104  -3.833  28.455  0.00  0.00     0.100 A 
ATOM     24  C   UNL d   1      60.408  -4.282  28.456  0.00  0.00     0.022 A 
ATOM     25  C   UNL d   1      59.702  -3.943  28.706  0.00  0.00     0.023 A 
ATOM     26  N   UNL d   1      59.069  -2.666  29.237  0.00  0.00    -0.237 NA
ENDBRANCH   1  18
TORSDOF 5
ENDMDL
