MODEL 1
REMARK VINA RESULT:      -8.0      0.000      0.000
REMARK  3 active torsions:
REMARK  status: ('A' for Active; 'I' for Inactive)
REMARK    1  A    between atoms: C_11  and  C_8 
REMARK       I    between atoms: N_14  and  C_11 
REMARK    2  A    between atoms: C_20  and  N_14 
REMARK    3  A    between atoms: C_21  and  C_20 
ROOT
ATOM      1  C   UNL d   1     -47.365  13.982  22.678  0.00  0.00     0.154 A 
ATOM      2  C   UNL d   1     -47.631  13.353  22.216  0.00  0.00     0.093 A 
ATOM      3  N   UNL d   1     -47.895  14.578  22.907  0.00  0.00    -0.210 NA
ATOM      4  N   UNL d   1     -48.950  13.913  22.213  0.00  0.00    -0.258 N 
ATOM      5  C   UNL d   1     -48.427  13.319  21.983  0.00  0.00     0.269 A 
ATOM      6  N   UNL d   1     -46.564  13.874  22.824  0.00  0.00    -0.285 N 
ATOM      7  C   UNL d   1     -48.684  14.542  22.675  0.00  0.00     0.152 A 
ATOM      8  C   UNL d   1     -46.329  13.179  22.454  0.00  0.00     0.124 A 
ATOM      9  C   UNL d   1     -46.994  12.857  22.077  0.00  0.00     0.030 A 
ATOM     10  C   UNL d   1     -49.739  13.876  21.981  0.00  0.00     0.084 A 
ATOM     11  C   UNL d   1     -49.206  15.134  22.905  0.00  0.00     0.038 A 
ATOM     12  C   UNL d   1     -50.262  14.469  22.211  0.00  0.00     0.018 A 
ATOM     13  C   UNL d   1     -49.996  15.099  22.673  0.00  0.00     0.005 A 
ATOM     14  O   UNL d   1     -48.694  12.690  21.521  0.00  0.00    -0.266 OA
ATOM     15  C   UNL d   1     -46.072  14.374  23.266  0.00  0.00     0.101 C 
ATOM     16  C   UNL d   1     -51.063  14.438  21.978  0.00  0.00     0.002 C 
ENDROOT
BRANCH   8  17
ATOM     17  C   UNL d   1     -45.568  12.859  22.457  0.00  0.00     0.295 C 
ATOM     18  N   UNL d   1     -45.423  12.152  22.861  0.00  0.00    -0.203 NA
ATOM     19  O   UNL d   1     -44.955  13.240  22.062  0.00  0.00    -0.264 OA
BRANCH  18  20
ATOM     20  C   UNL d   1     -44.664  11.829  22.867  0.00  0.00     0.127 C 
BRANCH  20  21
ATOM     21  C   UNL d   1     -44.536  11.081  23.186  0.00  0.00     0.119 A 
ATOM     22  O   UNL d   1     -45.059  10.474  23.410  0.00  0.00    -0.304 OA
ATOM     23  C   UNL d   1     -44.608   9.846  23.698  0.00  0.00     0.123 A 
ATOM     24  C   UNL d   1     -43.816  10.051  23.655  0.00  0.00     0.029 A 
ATOM     25  C   UNL d   1     -43.764  10.818  23.338  0.00  0.00     0.028 A 
ENDBRANCH  20  21
ENDBRANCH  18  20
ENDBRANCH   8  17
TORSDOF 3
ENDMDL
MODEL 2
REMARK VINA RESULT:      -7.2      1.401      2.022
REMARK  3 active torsions:
REMARK  status: ('A' for Active; 'I' for Inactive)
REMARK    1  A    between atoms: C_11  and  C_8 
REMARK       I    between atoms: N_14  and  C_11 
REMARK    2  A    between atoms: C_20  and  N_14 
REMARK    3  A    between atoms: C_21  and  C_20 
ROOT
ATOM      1  C   UNL d   1     -48.091  12.899  23.224  0.00  0.00     0.154 A 
ATOM      2  C   UNL d   1     -47.755  13.628  23.035  0.00  0.00     0.093 A 
ATOM      3  N   UNL d   1     -48.913  12.836  23.317  0.00  0.00    -0.210 NA
ATOM      4  N   UNL d   1     -49.057  14.227  23.031  0.00  0.00    -0.258 N 
ATOM      5  C   UNL d   1     -48.241  14.294  22.938  0.00  0.00     0.269 A 
ATOM      6  N   UNL d   1     -47.488  12.345  23.286  0.00  0.00    -0.285 N 
ATOM      7  C   UNL d   1     -49.393  13.498  23.220  0.00  0.00     0.152 A 
ATOM      8  C   UNL d   1     -46.776  12.727  23.135  0.00  0.00     0.124 A 
ATOM      9  C   UNL d   1     -46.945  13.523  22.979  0.00  0.00     0.030 A 
ATOM     10  C   UNL d   1     -49.536  14.890  22.934  0.00  0.00     0.084 A 
ATOM     11  C   UNL d   1     -50.208  13.432  23.313  0.00  0.00     0.038 A 
ATOM     12  C   UNL d   1     -50.352  14.823  23.027  0.00  0.00     0.018 A 
ATOM     13  C   UNL d   1     -50.688  14.094  23.216  0.00  0.00     0.005 A 
ATOM     14  O   UNL d   1     -47.905  15.024  22.748  0.00  0.00    -0.266 OA
ATOM     15  C   UNL d   1     -47.574  11.541  23.467  0.00  0.00     0.101 C 
ATOM     16  C   UNL d   1     -50.842  15.491  22.930  0.00  0.00     0.002 C 
ENDROOT
BRANCH   8  17
ATOM     17  C   UNL d   1     -46.028  12.379  23.138  0.00  0.00     0.295 C 
ATOM     18  N   UNL d   1     -45.467  12.607  22.574  0.00  0.00    -0.203 NA
ATOM     19  O   UNL d   1     -45.837  11.806  23.698  0.00  0.00    -0.264 OA
BRANCH  18  20
ATOM     20  C   UNL d   1     -44.718  12.261  22.574  0.00  0.00     0.127 C 
BRANCH  20  21
ATOM     21  C   UNL d   1     -44.145  12.519  22.042  0.00  0.00     0.119 A 
ATOM     22  O   UNL d   1     -44.157  13.102  21.449  0.00  0.00    -0.304 OA
ATOM     23  C   UNL d   1     -43.414  13.113  21.090  0.00  0.00     0.123 A 
ATOM     24  C   UNL d   1     -42.943  12.547  21.448  0.00  0.00     0.029 A 
ATOM     25  C   UNL d   1     -43.391  12.174  22.041  0.00  0.00     0.028 A 
ENDBRANCH  20  21
ENDBRANCH  18  20
ENDBRANCH   8  17
TORSDOF 3
ENDMDL
MODEL 3
REMARK VINA RESULT:      -6.0      8.012      9.617
REMARK  3 active torsions:
REMARK  status: ('A' for Active; 'I' for Inactive)
REMARK    1  A    between atoms: C_11  and  C_8 
REMARK       I    between atoms: N_14  and  C_11 
REMARK    2  A    between atoms: C_20  and  N_14 
REMARK    3  A    between atoms: C_21  and  C_20 
ROOT
ATOM      1  C   UNL d   1     -39.233  14.876  18.130  0.00  0.00     0.154 A 
ATOM      2  C   UNL d   1     -39.184  14.052  18.137  0.00  0.00     0.093 A 
ATOM      3  N   UNL d   1     -39.013  15.295  17.449  0.00  0.00    -0.210 NA
ATOM      4  N   UNL d   1     -38.696  14.069  16.790  0.00  0.00    -0.258 N 
ATOM      5  C   UNL d   1     -38.914  13.648  17.464  0.00  0.00     0.269 A 
ATOM      6  N   UNL d   1     -39.514  15.124  18.861  0.00  0.00    -0.285 N 
ATOM      7  C   UNL d   1     -38.745  14.892  16.782  0.00  0.00     0.152 A 
ATOM      8  C   UNL d   1     -39.640  14.457  19.325  0.00  0.00     0.124 A 
ATOM      9  C   UNL d   1     -39.435  13.793  18.873  0.00  0.00     0.030 A 
ATOM     10  C   UNL d   1     -38.429  13.665  16.124  0.00  0.00     0.084 A 
ATOM     11  C   UNL d   1     -38.528  15.312  16.109  0.00  0.00     0.038 A 
ATOM     12  C   UNL d   1     -38.211  14.086  15.450  0.00  0.00     0.018 A 
ATOM     13  C   UNL d   1     -38.260  14.909  15.443  0.00  0.00     0.005 A 
ATOM     14  O   UNL d   1     -38.865  12.825  17.472  0.00  0.00    -0.266 OA
ATOM     15  C   UNL d   1     -39.649  15.907  19.096  0.00  0.00     0.101 C 
ATOM     16  C   UNL d   1     -37.940  13.682  14.772  0.00  0.00     0.002 C 
ENDROOT
BRANCH   8  17
ATOM     17  C   UNL d   1     -39.922  14.452  20.100  0.00  0.00     0.295 C 
ATOM     18  N   UNL d   1     -39.415  14.235  20.718  0.00  0.00    -0.203 NA
ATOM     19  O   UNL d   1     -40.701  14.660  20.262  0.00  0.00    -0.264 OA
BRANCH  18  20
ATOM     20  C   UNL d   1     -39.693  14.228  21.495  0.00  0.00     0.127 C 
BRANCH  20  21
ATOM     21  C   UNL d   1     -39.219  13.929  22.099  0.00  0.00     0.119 A 
ATOM     22  O   UNL d   1     -38.807  13.212  22.181  0.00  0.00    -0.304 OA
ATOM     23  C   UNL d   1     -38.425  13.222  22.912  0.00  0.00     0.123 A 
ATOM     24  C   UNL d   1     -38.593  13.932  23.285  0.00  0.00     0.029 A 
ATOM     25  C   UNL d   1     -39.086  14.376  22.784  0.00  0.00     0.028 A 
ENDBRANCH  20  21
ENDBRANCH  18  20
ENDBRANCH   8  17
TORSDOF 3
ENDMDL
MODEL 4
REMARK VINA RESULT:      -5.4      7.951      8.670
REMARK  3 active torsions:
REMARK  status: ('A' for Active; 'I' for Inactive)
REMARK    1  A    between atoms: C_11  and  C_8 
REMARK       I    between atoms: N_14  and  C_11 
REMARK    2  A    between atoms: C_20  and  N_14 
REMARK    3  A    between atoms: C_21  and  C_20 
ROOT
ATOM      1  C   UNL d   1     -39.326  15.323  18.649  0.00  0.00     0.154 A 
ATOM      2  C   UNL d   1     -40.000  15.540  19.072  0.00  0.00     0.093 A 
ATOM      3  N   UNL d   1     -39.358  15.268  17.822  0.00  0.00    -0.210 NA
ATOM      4  N   UNL d   1     -40.734  15.649  17.846  0.00  0.00    -0.258 N 
ATOM      5  C   UNL d   1     -40.706  15.704  18.667  0.00  0.00     0.269 A 
ATOM      6  N   UNL d   1     -38.716  15.195  19.184  0.00  0.00    -0.285 N 
ATOM      7  C   UNL d   1     -40.059  15.431  17.423  0.00  0.00     0.152 A 
ATOM      8  C   UNL d   1     -39.007  15.333  19.940  0.00  0.00     0.124 A 
ATOM      9  C   UNL d   1     -39.805  15.547  19.867  0.00  0.00     0.030 A 
ATOM     10  C   UNL d   1     -41.436  15.812  17.448  0.00  0.00     0.084 A 
ATOM     11  C   UNL d   1     -40.087  15.377  16.603  0.00  0.00     0.038 A 
ATOM     12  C   UNL d   1     -41.463  15.757  16.626  0.00  0.00     0.018 A 
ATOM     13  C   UNL d   1     -40.789  15.540  16.204  0.00  0.00     0.005 A 
ATOM     14  O   UNL d   1     -41.380  15.922  19.090  0.00  0.00    -0.266 OA
ATOM     15  C   UNL d   1     -37.940  14.968  19.001  0.00  0.00     0.101 C 
ATOM     16  C   UNL d   1     -42.172  15.922  16.218  0.00  0.00     0.002 C 
ENDROOT
BRANCH   8  17
ATOM     17  C   UNL d   1     -38.582  15.269  20.644  0.00  0.00     0.295 C 
ATOM     18  N   UNL d   1     -38.748  14.652  21.169  0.00  0.00    -0.203 NA
ATOM     19  O   UNL d   1     -37.994  15.816  20.826  0.00  0.00    -0.264 OA
BRANCH  18  20
ATOM     20  C   UNL d   1     -38.325  14.585  21.874  0.00  0.00     0.127 C 
BRANCH  20  21
ATOM     21  C   UNL d   1     -38.546  14.025  22.436  0.00  0.00     0.119 A 
ATOM     22  O   UNL d   1     -39.272  13.654  22.597  0.00  0.00    -0.304 OA
ATOM     23  C   UNL d   1     -39.157  13.138  23.231  0.00  0.00     0.123 A 
ATOM     24  C   UNL d   1     -38.374  13.182  23.465  0.00  0.00     0.029 A 
ATOM     25  C   UNL d   1     -37.988  13.731  22.975  0.00  0.00     0.028 A 
ENDBRANCH  20  21
ENDBRANCH  18  20
ENDBRANCH   8  17
TORSDOF 3
ENDMDL
