MODEL 1
REMARK VINA RESULT:      -3.8      0.000      0.000
REMARK  3 active torsions:
REMARK  status: ('A' for Active; 'I' for Inactive)
REMARK       I    between atoms: C_4  and  N_1 
REMARK    1  A    between atoms: C_7  and  C_3 
REMARK    2  A    between atoms: C_8  and  C_4 
REMARK    3  A    between atoms: C_13  and  C_5 
ROOT
ATOM      1  N   UNL d   1      58.144  -1.023  30.408  0.00  0.00    -0.194 N 
ATOM      2  N   UNL d   1      57.492  -1.105  30.890  0.00  0.00    -0.163 NA
ATOM      3  C   UNL d   1      58.445  -0.259  30.507  0.00  0.00     0.091 A 
ATOM      4  C   UNL d   1      58.471  -1.612  29.888  0.00  0.00     0.286 C 
ATOM      5  C   UNL d   1      57.386  -0.390  31.290  0.00  0.00     0.103 A 
ATOM      6  C   UNL d   1      57.973   0.127  31.052  0.00  0.00     0.040 A 
ATOM      7  O   UNL d   1      58.103  -2.353  29.852  0.00  0.00    -0.265 OA
ENDROOT
BRANCH   3   8
ATOM      8  C   UNL d   1      59.109   0.054  30.117  0.00  0.00     0.057 A 
ATOM      9  C   UNL d   1      59.784   0.218  30.540  0.00  0.00     0.197 A 
ATOM     10  O   UNL d   1      59.817   0.079  31.339  0.00  0.00    -0.286 OA
ATOM     11  C   UNL d   1      60.448   0.532  30.150  0.00  0.00     0.042 A 
ATOM     12  C   UNL d   1      60.439   0.681  29.341  0.00  0.00     0.003 A 
ATOM     13  C   UNL d   1      59.745   0.508  28.931  0.00  0.00     0.000 A 
ATOM     14  C   UNL d   1      59.099   0.205  29.306  0.00  0.00     0.005 A 
ENDBRANCH   3   8
BRANCH   4  15
ATOM     15  C   UNL d   1      59.121  -1.452  29.442  0.00  0.00     0.087 A 
ATOM     16  S   UNL d   1      59.112  -1.100  28.722  0.00  0.00    -0.082 SA
ATOM     17  C   UNL d   1      59.904  -1.042  28.459  0.00  0.00     0.036 A 
ATOM     18  C   UNL d   1      60.392  -1.372  29.047  0.00  0.00     0.008 A 
ATOM     19  C   UNL d   1      59.908  -1.624  29.652  0.00  0.00     0.012 A 
ENDBRANCH   4  15
BRANCH   5  20
ATOM     20  C   UNL d   1      56.788  -0.230  31.836  0.00  0.00     0.019 A 
ATOM     21  C   UNL d   1      56.527  -0.832  32.350  0.00  0.00     0.002 A 
ATOM     22  C   UNL d   1      55.928  -0.676  32.898  0.00  0.00     0.000 A 
ATOM     23  C   UNL d   1      55.588   0.077  32.937  0.00  0.00     0.000 A 
ATOM     24  C   UNL d   1      55.849   0.679  32.424  0.00  0.00     0.000 A 
ATOM     25  C   UNL d   1      56.447   0.519  31.878  0.00  0.00     0.002 A 
ENDBRANCH   5  20
TORSDOF 3
ENDMDL
MODEL 2
REMARK VINA RESULT:      -2.0      1.642      4.258
REMARK  3 active torsions:
REMARK  status: ('A' for Active; 'I' for Inactive)
REMARK       I    between atoms: C_4  and  N_1 
REMARK    1  A    between atoms: C_7  and  C_3 
REMARK    2  A    between atoms: C_8  and  C_4 
REMARK    3  A    between atoms: C_13  and  C_5 
ROOT
ATOM      1  N   UNL d   1      57.034  -0.803  31.563  0.00  0.00    -0.194 N 
ATOM      2  N   UNL d   1      57.505  -0.805  30.897  0.00  0.00    -0.163 NA
ATOM      3  C   UNL d   1      57.056  -0.045  31.893  0.00  0.00     0.091 A 
ATOM      4  C   UNL d   1      56.591  -1.458  31.876  0.00  0.00     0.286 C 
ATOM      5  C   UNL d   1      57.821  -0.046  30.813  0.00  0.00     0.103 A 
ATOM      6  C   UNL d   1      57.543   0.417  31.426  0.00  0.00     0.040 A 
ATOM      7  O   UNL d   1      56.628  -2.184  31.478  0.00  0.00    -0.265 OA
ENDROOT
BRANCH   3   8
ATOM      8  C   UNL d   1      56.652   0.197  32.577  0.00  0.00     0.057 A 
ATOM      9  C   UNL d   1      57.072   0.406  33.241  0.00  0.00     0.197 A 
ATOM     10  O   UNL d   1      57.884   0.381  33.243  0.00  0.00    -0.286 OA
ATOM     11  C   UNL d   1      56.668   0.648  33.926  0.00  0.00     0.042 A 
ATOM     12  C   UNL d   1      55.846   0.681  33.949  0.00  0.00     0.003 A 
ATOM     13  C   UNL d   1      55.438   0.465  33.266  0.00  0.00     0.000 A 
ATOM     14  C   UNL d   1      55.827   0.230  32.600  0.00  0.00     0.005 A 
ENDBRANCH   3   8
BRANCH   4  15
ATOM     15  C   UNL d   1      56.147  -1.374  32.541  0.00  0.00     0.087 A 
ATOM     16  S   UNL d   1      56.405  -1.507  33.288  0.00  0.00    -0.082 SA
ATOM     17  C   UNL d   1      55.767  -1.354  33.807  0.00  0.00     0.036 A 
ATOM     18  C   UNL d   1      55.114  -1.125  33.346  0.00  0.00     0.008 A 
ATOM     19  C   UNL d   1      55.349  -1.137  32.565  0.00  0.00     0.012 A 
ENDBRANCH   4  15
BRANCH   5  20
ATOM     20  C   UNL d   1      58.331   0.196  30.210  0.00  0.00     0.019 A 
ATOM     21  C   UNL d   1      59.146   0.273  30.365  0.00  0.00     0.002 A 
ATOM     22  C   UNL d   1      59.659   0.516  29.764  0.00  0.00     0.000 A 
ATOM     23  C   UNL d   1      59.364   0.682  29.008  0.00  0.00     0.000 A 
ATOM     24  C   UNL d   1      58.549   0.605  28.854  0.00  0.00     0.000 A 
ATOM     25  C   UNL d   1      58.040   0.362  29.457  0.00  0.00     0.002 A 
ENDBRANCH   5  20
TORSDOF 3
ENDMDL
MODEL 3
REMARK VINA RESULT:      -1.6      9.017      9.810
REMARK  3 active torsions:
REMARK  status: ('A' for Active; 'I' for Inactive)
REMARK       I    between atoms: C_4  and  N_1 
REMARK    1  A    between atoms: C_7  and  C_3 
REMARK    2  A    between atoms: C_8  and  C_4 
REMARK    3  A    between atoms: C_13  and  C_5 
ROOT
ATOM      1  N   UNL d   1      59.805  -9.251  33.798  0.00  0.00    -0.194 N 
ATOM      2  N   UNL d   1      59.551  -9.544  33.081  0.00  0.00    -0.163 NA
ATOM      3  C   UNL d   1      59.187  -8.816  34.133  0.00  0.00     0.091 A 
ATOM      4  C   UNL d   1      60.570  -9.363  34.153  0.00  0.00     0.286 C 
ATOM      5  C   UNL d   1      58.772  -9.291  32.970  0.00  0.00     0.103 A 
ATOM      6  C   UNL d   1      58.553  -8.845  33.618  0.00  0.00     0.040 A 
ATOM      7  O   UNL d   1      61.131  -9.817  33.744  0.00  0.00    -0.265 OA
ENDROOT
BRANCH   3   8
ATOM      8  C   UNL d   1      59.213  -8.422  34.864  0.00  0.00     0.057 A 
ATOM      9  C   UNL d   1      58.872  -8.763  35.519  0.00  0.00     0.197 A 
ATOM     10  O   UNL d   1      58.506  -9.486  35.466  0.00  0.00    -0.286 OA
ATOM     11  C   UNL d   1      58.898  -8.369  36.251  0.00  0.00     0.042 A 
ATOM     12  C   UNL d   1      59.264  -7.635  36.329  0.00  0.00     0.003 A 
ATOM     13  C   UNL d   1      59.603  -7.306  35.654  0.00  0.00     0.000 A 
ATOM     14  C   UNL d   1      59.579  -7.686  34.943  0.00  0.00     0.005 A 
ENDBRANCH   3   8
BRANCH   4  15
ATOM     15  C   UNL d   1      60.744  -9.039  34.868  0.00  0.00     0.087 A 
ATOM     16  S   UNL d   1      61.024  -8.297  34.981  0.00  0.00    -0.082 SA
ATOM     17  C   UNL d   1      61.127  -8.189  35.805  0.00  0.00     0.036 A 
ATOM     18  C   UNL d   1      60.899  -8.894  36.184  0.00  0.00     0.008 A 
ATOM     19  C   UNL d   1      60.663  -9.417  35.605  0.00  0.00     0.012 A 
ENDBRANCH   4  15
BRANCH   5  20
ATOM     20  C   UNL d   1      58.301  -9.464  32.314  0.00  0.00     0.019 A 
ATOM     21  C   UNL d   1      58.652  -9.535  31.562  0.00  0.00     0.002 A 
ATOM     22  C   UNL d   1      58.184  -9.708  30.903  0.00  0.00     0.000 A 
ATOM     23  C   UNL d   1      57.367  -9.810  30.989  0.00  0.00     0.000 A 
ATOM     24  C   UNL d   1      57.017  -9.739  31.742  0.00  0.00     0.000 A 
ATOM     25  C   UNL d   1      57.488  -9.567  32.397  0.00  0.00     0.002 A 
ENDBRANCH   5  20
TORSDOF 3
ENDMDL
MODEL 4
REMARK VINA RESULT:      -1.0      1.780      4.615
REMARK  3 active torsions:
REMARK  status: ('A' for Active; 'I' for Inactive)
REMARK       I    between atoms: C_4  and  N_1 
REMARK    1  A    between atoms: C_7  and  C_3 
REMARK    2  A    between atoms: C_8  and  C_4 
REMARK    3  A    between atoms: C_13  and  C_5 
ROOT
ATOM      1  N   UNL d   1      57.631   0.241  32.314  0.00  0.00    -0.194 N 
ATOM      2  N   UNL d   1      58.179   0.369  31.724  0.00  0.00    -0.163 NA
ATOM      3  C   UNL d   1      56.940  -0.052  31.966  0.00  0.00     0.091 A 
ATOM      4  C   UNL d   1      57.737   0.379  33.147  0.00  0.00     0.286 C 
ATOM      5  C   UNL d   1      57.828   0.156  31.007  0.00  0.00     0.103 A 
ATOM      6  C   UNL d   1      57.068  -0.102  31.160  0.00  0.00     0.040 A 
ATOM      7  O   UNL d   1      58.466   0.675  33.407  0.00  0.00    -0.265 OA
ENDROOT
BRANCH   3   8
ATOM      8  C   UNL d   1      56.244  -0.256  32.371  0.00  0.00     0.057 A 
ATOM      9  C   UNL d   1      56.032  -1.039  32.440  0.00  0.00     0.197 A 
ATOM     10  O   UNL d   1      56.495  -1.623  32.117  0.00  0.00    -0.286 OA
ATOM     11  C   UNL d   1      55.336  -1.243  32.844  0.00  0.00     0.042 A 
ATOM     12  C   UNL d   1      54.850  -0.669  33.180  0.00  0.00     0.003 A 
ATOM     13  C   UNL d   1      55.082   0.118  33.098  0.00  0.00     0.000 A 
ATOM     14  C   UNL d   1      55.758   0.320  32.707  0.00  0.00     0.005 A 
ENDBRANCH   3   8
BRANCH   4  15
ATOM     15  C   UNL d   1      57.144   0.226  33.668  0.00  0.00     0.087 A 
ATOM     16  S   UNL d   1      56.492   0.680  33.772  0.00  0.00    -0.082 SA
ATOM     17  C   UNL d   1      56.024   0.319  34.364  0.00  0.00     0.036 A 
ATOM     18  C   UNL d   1      56.418  -0.370  34.614  0.00  0.00     0.008 A 
ATOM     19  C   UNL d   1      57.108  -0.426  34.184  0.00  0.00     0.012 A 
ENDBRANCH   4  15
BRANCH   5  20
ATOM     20  C   UNL d   1      58.189   0.198  30.266  0.00  0.00     0.019 A 
ATOM     21  C   UNL d   1      57.782   0.546  29.628  0.00  0.00     0.002 A 
ATOM     22  C   UNL d   1      58.140   0.591  28.884  0.00  0.00     0.000 A 
ATOM     23  C   UNL d   1      58.903   0.289  28.772  0.00  0.00     0.000 A 
ATOM     24  C   UNL d   1      59.310  -0.059  29.410  0.00  0.00     0.000 A 
ATOM     25  C   UNL d   1      58.949  -0.102  30.152  0.00  0.00     0.002 A 
ENDBRANCH   5  20
TORSDOF 3
ENDMDL
