MODEL 1
REMARK VINA RESULT:      -3.0      0.000      0.000
REMARK  6 active torsions:
REMARK  status: ('A' for Active; 'I' for Inactive)
REMARK    1  A    between atoms: N_3  and  S_1 
REMARK    2  A    between atoms: C_11  and  S_1 
REMARK    3  A    between atoms: C_2  and  N_3 
REMARK    4  A    between atoms: C_5  and  C_7 
REMARK       I    between atoms: C_7  and  N_12 
REMARK    5  A    between atoms: C_27  and  C_9 
REMARK    6  A    between atoms: N_12  and  C_20 
ROOT
ATOM      1  C   UNL d   1      33.135  19.076 -23.488  0.00  0.00     0.105 A 
ATOM      2  C   UNL d   1      33.211  18.856 -24.279  0.00  0.00     0.015 A 
ATOM      3  C   UNL d   1      33.090  18.508 -22.899  0.00  0.00     0.015 A 
ATOM      4  C   UNL d   1      33.196  17.482 -23.881  0.00  0.00     0.085 A 
ATOM      5  C   UNL d   1      33.241  18.050 -24.469  0.00  0.00     0.020 A 
ATOM      6  C   UNL d   1      33.121  17.712 -23.094  0.00  0.00     0.020 A 
ENDROOT
BRANCH   1   7
ATOM      7  S   UNL d   1      33.104  19.891 -23.288  0.00  0.00     0.287 S 
ATOM      8  O   UNL d   1      33.156  20.085 -24.089  0.00  0.00    -0.198 OA
ATOM      9  O   UNL d   1      33.072  20.689 -23.077  0.00  0.00    -0.198 OA
BRANCH   7  10
ATOM     10  N   UNL d   1      33.052  19.684 -22.483  0.00  0.00    -0.130 NA
BRANCH  10  11
ATOM     11  C   UNL d   1      32.822  20.247 -21.920  0.00  0.00     0.227 A 
ATOM     12  S   UNL d   1      33.231  20.422 -21.251  0.00  0.00    -0.025 SA
ATOM     13  C   UNL d   1      32.802  21.025 -20.837  0.00  0.00     0.135 A 
ATOM     14  N   UNL d   1      32.121  21.202 -21.286  0.00  0.00    -0.139 NA
ATOM     15  N   UNL d   1      32.153  20.704 -21.962  0.00  0.00    -0.120 NA
BRANCH  13  16
ATOM     16  C   UNL d   1      32.927  21.429 -20.135  0.00  0.00     0.028 C 
ATOM     17  C   UNL d   1      33.241  22.201 -20.167  0.00  0.00     0.002 C 
ENDBRANCH  13  16
ENDBRANCH  10  11
ENDBRANCH   7  10
ENDBRANCH   1   7
BRANCH   4  18
ATOM     18  N   UNL d   1      33.226  16.665 -24.068  0.00  0.00    -0.208 NA
ATOM     19  C   UNL d   1      32.539  16.278 -24.333  0.00  0.00     0.280 C 
ATOM     20  O   UNL d   1      32.557  15.480 -24.519  0.00  0.00    -0.265 OA
BRANCH  19  21
ATOM     21  C   UNL d   1      31.835  16.704 -24.407  0.00  0.00     0.069 A 
ATOM     22  C   UNL d   1      31.214  16.571 -23.886  0.00  0.00     0.063 A 
ATOM     23  C   UNL d   1      30.517  16.994 -23.960  0.00  0.00     0.023 A 
ATOM     24 CL   UNL d   1      31.285  16.017 -23.289  0.00  0.00    -0.082 Cl
ATOM     25  C   UNL d   1      30.419  17.562 -24.557  0.00  0.00     0.059 A 
ATOM     26  C   UNL d   1      31.059  17.693 -25.088  0.00  0.00     0.012 A 
ATOM     27 CL   UNL d   1      29.714  17.988 -24.632  0.00  0.00    -0.082 Cl
ATOM     28  C   UNL d   1      31.757  17.270 -25.014  0.00  0.00     0.006 A 
ENDBRANCH  19  21
ENDBRANCH   4  18
TORSDOF 6
ENDMDL
MODEL 2
REMARK VINA RESULT:      -0.5      1.226      1.328
REMARK  6 active torsions:
REMARK  status: ('A' for Active; 'I' for Inactive)
REMARK    1  A    between atoms: N_3  and  S_1 
REMARK    2  A    between atoms: C_11  and  S_1 
REMARK    3  A    between atoms: C_2  and  N_3 
REMARK    4  A    between atoms: C_5  and  C_7 
REMARK       I    between atoms: C_7  and  N_12 
REMARK    5  A    between atoms: C_27  and  C_9 
REMARK    6  A    between atoms: N_12  and  C_20 
ROOT
ATOM      1  C   UNL d   1      32.940  18.877 -22.945  0.00  0.00     0.105 A 
ATOM      2  C   UNL d   1      33.144  18.902 -23.744  0.00  0.00     0.015 A 
ATOM      3  C   UNL d   1      32.828  18.160 -22.566  0.00  0.00     0.015 A 
ATOM      4  C   UNL d   1      33.123  17.473 -23.778  0.00  0.00     0.085 A 
ATOM      5  C   UNL d   1      33.234  18.190 -24.157  0.00  0.00     0.020 A 
ATOM      6  C   UNL d   1      32.919  17.458 -22.980  0.00  0.00     0.020 A 
ENDROOT
BRANCH   1   7
ATOM      7  S   UNL d   1      32.847  19.595 -22.520  0.00  0.00     0.287 S 
ATOM      8  O   UNL d   1      32.458  19.185 -21.918  0.00  0.00    -0.198 OA
ATOM      9  O   UNL d   1      32.763  20.310 -22.115  0.00  0.00    -0.198 OA
BRANCH   7  10
ATOM     10  N   UNL d   1      33.240  19.999 -23.133  0.00  0.00    -0.130 NA
BRANCH  10  11
ATOM     11  C   UNL d   1      33.235  20.827 -23.160  0.00  0.00     0.227 A 
ATOM     12  S   UNL d   1      33.226  21.309 -22.517  0.00  0.00    -0.025 SA
ATOM     13  C   UNL d   1      33.223  22.110 -22.794  0.00  0.00     0.135 A 
ATOM     14  N   UNL d   1      33.230  22.087 -23.628  0.00  0.00    -0.139 NA
ATOM     15  N   UNL d   1      33.237  21.273 -23.838  0.00  0.00    -0.120 NA
BRANCH  13  16
ATOM     16  C   UNL d   1      33.214  22.839 -22.420  0.00  0.00     0.028 C 
ATOM     17  C   UNL d   1      33.068  23.522 -22.876  0.00  0.00     0.002 C 
ENDBRANCH  13  16
ENDBRANCH  10  11
ENDBRANCH   7  10
ENDBRANCH   1   7
BRANCH   4  18
ATOM     18  N   UNL d   1      33.213  16.749 -24.192  0.00  0.00    -0.208 NA
ATOM     19  C   UNL d   1      32.565  16.427 -24.603  0.00  0.00     0.280 C 
ATOM     20  O   UNL d   1      32.642  15.720 -25.011  0.00  0.00    -0.265 OA
BRANCH  19  21
ATOM     21  C   UNL d   1      31.841  16.824 -24.598  0.00  0.00     0.069 A 
ATOM     22  C   UNL d   1      31.194  16.498 -24.212  0.00  0.00     0.063 A 
ATOM     23  C   UNL d   1      30.476  16.893 -24.207  0.00  0.00     0.023 A 
ATOM     24 CL   UNL d   1      31.257  15.779 -23.830  0.00  0.00    -0.082 Cl
ATOM     25  C   UNL d   1      30.385  17.625 -24.588  0.00  0.00     0.059 A 
ATOM     26  C   UNL d   1      31.053  17.953 -24.982  0.00  0.00     0.012 A 
ATOM     27 CL   UNL d   1      29.660  18.023 -24.583  0.00  0.00    -0.082 Cl
ATOM     28  C   UNL d   1      31.771  17.559 -24.986  0.00  0.00     0.006 A 
ENDBRANCH  19  21
ENDBRANCH   4  18
TORSDOF 6
ENDMDL
