MODEL 1
REMARK VINA RESULT:      -5.6      0.000      0.000
REMARK  3 active torsions:
REMARK  status: ('A' for Active; 'I' for Inactive)
REMARK    1  A    between atoms: S_6  and  C_1 
REMARK    2  A    between atoms: C_9  and  S_6 
REMARK    3  A    between atoms: C_7  and  C_9 
ROOT
ATOM      1  C   UNL d   1     -41.365-122.548 -53.453  0.00  0.00     0.137 A 
ATOM      2  N   UNL d   1     -41.349-121.981 -52.860  0.00  0.00    -0.232 NA
ATOM      3  S   UNL d   1     -41.300-123.287 -53.110  0.00  0.00    -0.060 SA
ATOM      4  C   UNL d   1     -41.274-122.362 -52.147  0.00  0.00     0.088 A 
ATOM      5  C   UNL d   1     -41.244-123.179 -52.303  0.00  0.00     0.049 A 
ATOM      6  C   UNL d   1     -41.230-122.091 -51.380  0.00  0.00     0.020 A 
ATOM      7  C   UNL d   1     -41.169-123.706 -51.688  0.00  0.00     0.008 A 
ATOM      8  C   UNL d   1     -41.123-123.442 -50.902  0.00  0.00     0.001 A 
ATOM      9  C   UNL d   1     -41.153-122.644 -50.750  0.00  0.00     0.002 A 
ENDROOT
BRANCH   1  10
ATOM     10  S   UNL d   1     -41.435-122.379 -54.249  0.00  0.00    -0.077 SA
BRANCH  10  11
ATOM     11  C   UNL d   1     -42.151-122.056 -54.520  0.00  0.00     0.161 C 
BRANCH  11  12
ATOM     12  C   UNL d   1     -42.239-121.874 -55.327  0.00  0.00     0.197 C 
ATOM     13  O   UNL d   1     -42.975-121.987 -55.709  0.00  0.00    -0.647 OA
ATOM     14  O   UNL d   1     -41.607-121.585 -55.748  0.00  0.00    -0.647 OA
ENDBRANCH  11  12
ENDBRANCH  10  11
ENDBRANCH   1  10
TORSDOF 3
ENDMDL
MODEL 2
REMARK VINA RESULT:      -5.0      2.302      3.539
REMARK  3 active torsions:
REMARK  status: ('A' for Active; 'I' for Inactive)
REMARK    1  A    between atoms: S_6  and  C_1 
REMARK    2  A    between atoms: C_9  and  S_6 
REMARK    3  A    between atoms: C_7  and  C_9 
ROOT
ATOM      1  C   UNL d   1     -41.435-122.316 -52.626  0.00  0.00     0.137 A 
ATOM      2  N   UNL d   1     -41.893-121.790 -53.058  0.00  0.00    -0.232 NA
ATOM      3  S   UNL d   1     -41.123-122.871 -53.137  0.00  0.00    -0.060 SA
ATOM      4  C   UNL d   1     -41.869-122.014 -53.838  0.00  0.00     0.088 A 
ATOM      5  C   UNL d   1     -41.386-122.691 -53.888  0.00  0.00     0.049 A 
ATOM      6  C   UNL d   1     -42.211-121.707 -54.511  0.00  0.00     0.020 A 
ATOM      7  C   UNL d   1     -41.257-123.044 -54.609  0.00  0.00     0.008 A 
ATOM      8  C   UNL d   1     -41.601-122.740 -55.301  0.00  0.00     0.001 A 
ATOM      9  C   UNL d   1     -42.072-122.079 -55.253  0.00  0.00     0.002 A 
ENDROOT
BRANCH   1  10
ATOM     10  S   UNL d   1     -41.324-122.272 -51.818  0.00  0.00    -0.077 SA
BRANCH  10  11
ATOM     11  C   UNL d   1     -41.787-122.762 -51.331  0.00  0.00     0.161 C 
BRANCH  11  12
ATOM     12  C   UNL d   1     -41.776-122.648 -50.507  0.00  0.00     0.197 C 
ATOM     13  O   UNL d   1     -42.431-122.303 -50.118  0.00  0.00    -0.647 OA
ATOM     14  O   UNL d   1     -41.125-122.874 -50.076  0.00  0.00    -0.647 OA
ENDBRANCH  11  12
ENDBRANCH  10  11
ENDBRANCH   1  10
TORSDOF 3
ENDMDL
MODEL 3
REMARK VINA RESULT:      -4.6      1.995      2.621
REMARK  3 active torsions:
REMARK  status: ('A' for Active; 'I' for Inactive)
REMARK    1  A    between atoms: S_6  and  C_1 
REMARK    2  A    between atoms: C_9  and  S_6 
REMARK    3  A    between atoms: C_7  and  C_9 
ROOT
ATOM      1  C   UNL d   1     -41.598-122.490 -51.004  0.00  0.00     0.137 A 
ATOM      2  N   UNL d   1     -42.357-122.387 -50.710  0.00  0.00    -0.232 NA
ATOM      3  S   UNL d   1     -41.137-122.830 -50.422  0.00  0.00    -0.060 SA
ATOM      4  C   UNL d   1     -42.372-122.661 -49.945  0.00  0.00     0.088 A 
ATOM      5  C   UNL d   1     -41.609-122.938 -49.765  0.00  0.00     0.049 A 
ATOM      6  C   UNL d   1     -42.963-122.700 -49.386  0.00  0.00     0.020 A 
ATOM      7  C   UNL d   1     -41.454-123.249 -49.030  0.00  0.00     0.008 A 
ATOM      8  C   UNL d   1     -42.048-123.294 -48.452  0.00  0.00     0.001 A 
ATOM      9  C   UNL d   1     -42.794-123.023 -48.628  0.00  0.00     0.002 A 
ENDROOT
BRANCH   1  10
ATOM     10  S   UNL d   1     -41.365-122.281 -51.758  0.00  0.00    -0.077 SA
BRANCH  10  11
ATOM     11  C   UNL d   1     -41.317-122.879 -52.334  0.00  0.00     0.161 C 
BRANCH  11  12
ATOM     12  C   UNL d   1     -41.189-122.671 -53.129  0.00  0.00     0.197 C 
ATOM     13  O   UNL d   1     -41.125-121.868 -53.353  0.00  0.00    -0.647 OA
ATOM     14  O   UNL d   1     -41.125-123.253 -53.694  0.00  0.00    -0.647 OA
ENDBRANCH  11  12
ENDBRANCH  10  11
ENDBRANCH   1  10
TORSDOF 3
ENDMDL
MODEL 4
REMARK VINA RESULT:      -4.3      2.764      3.808
REMARK  3 active torsions:
REMARK  status: ('A' for Active; 'I' for Inactive)
REMARK    1  A    between atoms: S_6  and  C_1 
REMARK    2  A    between atoms: C_9  and  S_6 
REMARK    3  A    between atoms: C_7  and  C_9 
ROOT
ATOM      1  C   UNL d   1     -41.226-122.833 -51.687  0.00  0.00     0.137 A 
ATOM      2  N   UNL d   1     -41.123-123.528 -52.111  0.00  0.00    -0.232 NA
ATOM      3  S   UNL d   1     -41.369-122.225 -52.214  0.00  0.00    -0.060 SA
ATOM      4  C   UNL d   1     -41.202-123.357 -52.901  0.00  0.00     0.088 A 
ATOM      5  C   UNL d   1     -41.355-122.542 -52.965  0.00  0.00     0.049 A 
ATOM      6  C   UNL d   1     -41.157-123.818 -53.571  0.00  0.00     0.020 A 
ATOM      7  C   UNL d   1     -41.460-122.206 -53.698  0.00  0.00     0.008 A 
ATOM      8  C   UNL d   1     -41.417-122.665 -54.389  0.00  0.00     0.001 A 
ATOM      9  C   UNL d   1     -41.267-123.462 -54.326  0.00  0.00     0.002 A 
ENDROOT
BRANCH   1  10
ATOM     10  S   UNL d   1     -41.187-122.781 -50.873  0.00  0.00    -0.077 SA
BRANCH  10  11
ATOM     11  C   UNL d   1     -41.862-122.989 -50.434  0.00  0.00     0.161 C 
BRANCH  11  12
ATOM     12  C   UNL d   1     -41.843-122.937 -49.604  0.00  0.00     0.197 C 
ATOM     13  O   UNL d   1     -42.530-122.726 -49.176  0.00  0.00    -0.647 OA
ATOM     14  O   UNL d   1     -41.152-123.092 -49.205  0.00  0.00    -0.647 OA
ENDBRANCH  11  12
ENDBRANCH  10  11
ENDBRANCH   1  10
TORSDOF 3
ENDMDL
