MODEL 1
REMARK VINA RESULT:      46.5      0.000      0.000
REMARK  5 active torsions:
REMARK  status: ('A' for Active; 'I' for Inactive)
REMARK    1  A    between atoms: C_2  and  C_3 
REMARK    2  A    between atoms: N_4  and  C_2 
REMARK    3  A    between atoms: C_10  and  N_4 
REMARK    4  A    between atoms: O_16  and  C_11 
REMARK    5  A    between atoms: C_19  and  O_16 
ROOT
ATOM      1  C   UNL d   1     -50.377  26.899  33.341  0.00  0.00     0.153 C 
ATOM      2  S   UNL d   1     -50.886  27.551  33.331  0.00  0.00    -0.056 SA
ENDROOT
BRANCH   1   3
ATOM      3  C   UNL d   1     -50.694  26.137  33.333  0.00  0.00     0.109 A 
ATOM      4  N   UNL d   1     -51.518  26.028  33.341  0.00  0.00    -0.243 NA
ATOM      5  C   UNL d   1     -51.835  25.267  33.333  0.00  0.00     0.081 A 
ATOM      6  C   UNL d   1     -51.334  24.610  33.317  0.00  0.00     0.018 A 
ATOM      7  C   UNL d   1     -52.652  25.163  33.341  0.00  0.00     0.019 A 
ATOM      8  C   UNL d   1     -50.511  24.708  33.309  0.00  0.00     0.003 A 
ATOM      9  C   UNL d   1     -51.651  23.850  33.309  0.00  0.00     0.002 A 
ATOM     10  C   UNL d   1     -50.188  25.474  33.317  0.00  0.00     0.021 A 
ATOM     11  C   UNL d   1     -52.469  23.745  33.317  0.00  0.00     0.000 A 
ATOM     12  C   UNL d   1     -52.970  24.402  33.333  0.00  0.00     0.002 A 
ENDBRANCH   1   3
BRANCH   1  13
ATOM     13  N   UNL d   1     -49.558  27.005  33.359  0.00  0.00    -0.233 NA
BRANCH  13  14
ATOM     14  C   UNL d   1     -49.227  27.577  33.859  0.00  0.00     0.083 A 
ATOM     15  C   UNL d   1     -48.694  27.345  34.446  0.00  0.00     0.021 A 
ATOM     16  C   UNL d   1     -48.368  27.919  34.941  0.00  0.00     0.026 A 
ATOM     17  C   UNL d   1     -48.570  28.713  34.850  0.00  0.00     0.100 A 
ATOM     18  C   UNL d   1     -49.106  28.937  34.257  0.00  0.00     0.026 A 
ATOM     19  C   UNL d   1     -49.434  28.369  33.761  0.00  0.00     0.021 A 
BRANCH  17  20
ATOM     20  O   UNL d   1     -48.239  29.288  35.351  0.00  0.00    -0.305 OA
BRANCH  20  21
ATOM     21  C   UNL d   1     -48.056  30.036  35.053  0.00  0.00     0.123 C 
ATOM     22  C   UNL d   1     -47.414  30.451  35.356  0.00  0.00     0.029 C 
ENDBRANCH  20  21
ENDBRANCH  17  20
ENDBRANCH  13  14
ENDBRANCH   1  13
TORSDOF 5
ENDMDL
MODEL 2
REMARK VINA RESULT:      48.3      0.747      1.093
REMARK  5 active torsions:
REMARK  status: ('A' for Active; 'I' for Inactive)
REMARK    1  A    between atoms: C_2  and  C_3 
REMARK    2  A    between atoms: N_4  and  C_2 
REMARK    3  A    between atoms: C_10  and  N_4 
REMARK    4  A    between atoms: O_16  and  C_11 
REMARK    5  A    between atoms: C_19  and  O_16 
ROOT
ATOM      1  C   UNL d   1     -50.083  26.227  33.351  0.00  0.00     0.153 C 
ATOM      2  S   UNL d   1     -49.366  25.814  33.370  0.00  0.00    -0.056 SA
ENDROOT
BRANCH   1   3
ATOM      3  C   UNL d   1     -50.792  25.806  33.342  0.00  0.00     0.109 A 
ATOM      4  N   UNL d   1     -50.784  24.975  33.333  0.00  0.00    -0.243 NA
ATOM      5  C   UNL d   1     -51.494  24.554  33.324  0.00  0.00     0.081 A 
ATOM      6  C   UNL d   1     -52.214  24.958  33.324  0.00  0.00     0.018 A 
ATOM      7  C   UNL d   1     -51.482  23.730  33.316  0.00  0.00     0.019 A 
ATOM      8  C   UNL d   1     -52.233  25.787  33.333  0.00  0.00     0.003 A 
ATOM      9  C   UNL d   1     -52.923  24.537  33.315  0.00  0.00     0.002 A 
ATOM     10  C   UNL d   1     -51.521  26.214  33.342  0.00  0.00     0.021 A 
ATOM     11  C   UNL d   1     -52.912  23.713  33.306  0.00  0.00     0.000 A 
ATOM     12  C   UNL d   1     -52.191  23.309  33.307  0.00  0.00     0.002 A 
ENDBRANCH   1   3
BRANCH   1  13
ATOM     13  N   UNL d   1     -50.092  27.053  33.341  0.00  0.00    -0.233 NA
BRANCH  13  14
ATOM     14  C   UNL d   1     -49.526  27.477  33.772  0.00  0.00     0.083 A 
ATOM     15  C   UNL d   1     -48.783  27.143  33.910  0.00  0.00     0.021 A 
ATOM     16  C   UNL d   1     -48.225  27.570  34.339  0.00  0.00     0.026 A 
ATOM     17  C   UNL d   1     -48.404  28.322  34.628  0.00  0.00     0.100 A 
ATOM     18  C   UNL d   1     -49.153  28.650  34.485  0.00  0.00     0.026 A 
ATOM     19  C   UNL d   1     -49.714  28.228  34.057  0.00  0.00     0.021 A 
BRANCH  17  20
ATOM     20  O   UNL d   1     -47.837  28.749  35.060  0.00  0.00    -0.305 OA
BRANCH  20  21
ATOM     21  C   UNL d   1     -48.054  29.446  35.445  0.00  0.00     0.123 C 
ATOM     22  C   UNL d   1     -47.829  30.173  35.133  0.00  0.00     0.029 C 
ENDBRANCH  20  21
ENDBRANCH  17  20
ENDBRANCH  13  14
ENDBRANCH   1  13
TORSDOF 5
ENDMDL
