MODEL 1
REMARK VINA RESULT:      -1.3      0.000      0.000
REMARK  4 active torsions:
REMARK  status: ('A' for Active; 'I' for Inactive)
REMARK    1  A    between atoms: C_11  and  C_3 
REMARK    2  A    between atoms: C_10  and  N_5 
REMARK    3  A    between atoms: O_17  and  C_11 
REMARK    4  A    between atoms: C_22  and  O_17 
ROOT
ATOM      1  C   UNL d   1     -41.422-121.526 -51.761  0.00  0.00     0.086 A 
ATOM      2  C   UNL d   1     -41.450-121.965 -52.460  0.00  0.00     0.038 A 
ATOM      3  C   UNL d   1     -41.638-122.770 -52.452  0.00  0.00     0.165 A 
ATOM      4  C   UNL d   1     -41.586-121.906 -51.047  0.00  0.00     0.282 A 
ATOM      5  N   UNL d   1     -41.772-122.696 -51.029  0.00  0.00    -0.194 N 
ATOM      6  N   UNL d   1     -41.798-123.128 -51.731  0.00  0.00    -0.157 NA
ATOM      7  C   UNL d   1     -41.220-120.748 -51.954  0.00  0.00     0.137 A 
ATOM      8  C   UNL d   1     -41.264-121.455 -53.088  0.00  0.00     0.039 A 
ATOM      9  S   UNL d   1     -41.123-120.706 -52.772  0.00  0.00    -0.066 SA
ATOM     10  O   UNL d   1     -41.560-121.474 -50.345  0.00  0.00    -0.265 OA
ATOM     11  N   UNL d   1     -41.133-120.131 -51.422  0.00  0.00    -0.141 N 
ENDROOT
BRANCH   5  12
ATOM     12  C   UNL d   1     -41.936-123.072 -50.306  0.00  0.00     0.087 A 
ATOM     13  C   UNL d   1     -42.698-123.075 -50.015  0.00  0.00     0.031 A 
ATOM     14  C   UNL d   1     -42.877-123.440 -49.306  0.00  0.00     0.059 A 
ATOM     15 CL   UNL d   1     -43.647-123.443 -49.011  0.00  0.00    -0.082 Cl
ATOM     16  C   UNL d   1     -42.268-123.814 -48.875  0.00  0.00     0.011 A 
ATOM     17  C   UNL d   1     -41.498-123.811 -49.169  0.00  0.00     0.002 A 
ATOM     18  C   UNL d   1     -41.331-123.440 -49.885  0.00  0.00     0.019 A 
ENDBRANCH   5  12
BRANCH   3  19
ATOM     19  C   UNL d   1     -41.664-123.202 -53.154  0.00  0.00     0.320 C 
ATOM     20  O   UNL d   1     -41.124-123.810 -53.284  0.00  0.00    -0.257 OA
BRANCH  19  21
ATOM     21  O   UNL d   1     -42.235-123.022 -53.728  0.00  0.00    -0.270 OA
BRANCH  21  22
ATOM     22  C   UNL d   1     -42.339-123.516 -54.378  0.00  0.00     0.126 C 
ATOM     23  C   UNL d   1     -42.454-123.193 -55.130  0.00  0.00     0.029 C 
ENDBRANCH  21  22
ENDBRANCH  19  21
ENDBRANCH   3  19
TORSDOF 4
ENDMDL
