MODEL 1
REMARK VINA RESULT:      -9.8      0.000      0.000
REMARK  4 active torsions:
REMARK  status: ('A' for Active; 'I' for Inactive)
REMARK    1  A    between atoms: C_6  and  C_1 
REMARK    2  A    between atoms: S_7  and  C_3 
REMARK    3  A    between atoms: C_17  and  S_7 
REMARK    4  A    between atoms: C_18  and  C_17 
ROOT
ATOM      1  C   UNL d   1      52.533  33.834  53.623  0.00  0.00     0.087 A 
ATOM      2  N   UNL d   1      52.857  34.333  54.184  0.00  0.00    -0.245 NA
ATOM      3  C   UNL d   1      53.003  33.159  53.551  0.00  0.00     0.049 A 
ATOM      4  C   UNL d   1      53.628  33.233  54.071  0.00  0.00     0.025 A 
ATOM      5  C   UNL d   1      53.540  33.958  54.463  0.00  0.00     0.082 A 
ATOM      6  C   UNL d   1      54.261  32.732  54.232  0.00  0.00     0.002 A 
ATOM      7  C   UNL d   1      54.079  34.195  55.021  0.00  0.00     0.019 A 
ATOM      8  C   UNL d   1      54.813  32.970  54.801  0.00  0.00     0.000 A 
ATOM      9  C   UNL d   1      54.717  33.694  55.186  0.00  0.00     0.002 A 
ENDROOT
BRANCH   1  10
ATOM     10  C   UNL d   1      51.855  33.945  53.181  0.00  0.00     0.018 A 
ATOM     11  C   UNL d   1      51.111  33.760  53.511  0.00  0.00     0.002 A 
ATOM     12  C   UNL d   1      50.428  33.867  53.079  0.00  0.00     0.011 A 
ATOM     13  C   UNL d   1      50.487  34.159  52.314  0.00  0.00     0.058 A 
ATOM     14  C   UNL d   1      51.244  34.342  51.991  0.00  0.00     0.011 A 
ATOM     15 CL   UNL d   1      49.800  34.267  51.878  0.00  0.00    -0.082 Cl
ATOM     16  C   UNL d   1      51.916  34.236  52.418  0.00  0.00     0.002 A 
ENDBRANCH   1  10
BRANCH   3  17
ATOM     17  S   UNL d   1      52.883  32.511  53.050  0.00  0.00    -0.083 SA
BRANCH  17  18
ATOM     18  C   UNL d   1      52.925  31.725  53.336  0.00  0.00     0.058 C 
BRANCH  18  19
ATOM     19  C   UNL d   1      52.849  31.076  52.832  0.00  0.00     0.129 C 
ATOM     20  N   UNL d   1      52.540  30.356  53.100  0.00  0.00    -0.146 N 
ENDBRANCH  18  19
ENDBRANCH  17  18
ENDBRANCH   3  17
TORSDOF 4
ENDMDL
MODEL 2
REMARK VINA RESULT:      -9.1      1.839      3.737
REMARK  4 active torsions:
REMARK  status: ('A' for Active; 'I' for Inactive)
REMARK    1  A    between atoms: C_6  and  C_1 
REMARK    2  A    between atoms: S_7  and  C_3 
REMARK    3  A    between atoms: C_17  and  S_7 
REMARK    4  A    between atoms: C_18  and  C_17 
ROOT
ATOM      1  C   UNL d   1      53.876  31.852  54.048  0.00  0.00     0.087 A 
ATOM      2  N   UNL d   1      54.008  31.064  54.225  0.00  0.00    -0.245 NA
ATOM      3  C   UNL d   1      53.282  31.910  53.477  0.00  0.00     0.049 A 
ATOM      4  C   UNL d   1      53.039  31.153  53.293  0.00  0.00     0.025 A 
ATOM      5  C   UNL d   1      53.486  30.629  53.754  0.00  0.00     0.082 A 
ATOM      6  C   UNL d   1      52.468  30.881  52.765  0.00  0.00     0.002 A 
ATOM      7  C   UNL d   1      53.372  29.827  53.697  0.00  0.00     0.019 A 
ATOM      8  C   UNL d   1      52.350  30.065  52.704  0.00  0.00     0.000 A 
ATOM      9  C   UNL d   1      52.800  29.550  53.167  0.00  0.00     0.002 A 
ENDROOT
BRANCH   1  10
ATOM     10  C   UNL d   1      54.248  32.509  54.362  0.00  0.00     0.018 A 
ATOM     11  C   UNL d   1      54.039  32.777  55.124  0.00  0.00     0.002 A 
ATOM     12  C   UNL d   1      54.403  33.430  55.447  0.00  0.00     0.011 A 
ATOM     13  C   UNL d   1      54.979  33.819  55.008  0.00  0.00     0.058 A 
ATOM     14  C   UNL d   1      55.181  33.539  54.239  0.00  0.00     0.011 A 
ATOM     15 CL   UNL d   1      55.346  34.477  55.331  0.00  0.00    -0.082 Cl
ATOM     16  C   UNL d   1      54.820  32.894  53.922  0.00  0.00     0.002 A 
ENDBRANCH   1  10
BRANCH   3  17
ATOM     17  S   UNL d   1      52.973  32.599  53.138  0.00  0.00    -0.083 SA
BRANCH  17  18
ATOM     18  C   UNL d   1      52.152  32.757  53.144  0.00  0.00     0.058 C 
BRANCH  18  19
ATOM     19  C   UNL d   1      51.838  33.433  52.789  0.00  0.00     0.129 C 
ATOM     20  N   UNL d   1      51.148  33.789  53.075  0.00  0.00    -0.146 N 
ENDBRANCH  18  19
ENDBRANCH  17  18
ENDBRANCH   3  17
TORSDOF 4
ENDMDL
MODEL 3
REMARK VINA RESULT:      -8.6      1.030      2.468
REMARK  4 active torsions:
REMARK  status: ('A' for Active; 'I' for Inactive)
REMARK    1  A    between atoms: C_6  and  C_1 
REMARK    2  A    between atoms: S_7  and  C_3 
REMARK    3  A    between atoms: C_17  and  S_7 
REMARK    4  A    between atoms: C_18  and  C_17 
ROOT
ATOM      1  C   UNL d   1      52.248  32.279  53.044  0.00  0.00     0.087 A 
ATOM      2  N   UNL d   1      52.053  31.518  52.817  0.00  0.00    -0.245 NA
ATOM      3  C   UNL d   1      53.001  32.279  53.384  0.00  0.00     0.049 A 
ATOM      4  C   UNL d   1      53.281  31.513  53.371  0.00  0.00     0.025 A 
ATOM      5  C   UNL d   1      52.696  31.041  53.021  0.00  0.00     0.082 A 
ATOM      6  C   UNL d   1      53.992  31.192  53.634  0.00  0.00     0.002 A 
ATOM      7  C   UNL d   1      52.810  30.243  52.928  0.00  0.00     0.019 A 
ATOM      8  C   UNL d   1      54.112  30.379  53.541  0.00  0.00     0.000 A 
ATOM      9  C   UNL d   1      53.524  29.916  53.191  0.00  0.00     0.002 A 
ENDROOT
BRANCH   1  10
ATOM     10  C   UNL d   1      51.802  32.959  52.966  0.00  0.00     0.018 A 
ATOM     11  C   UNL d   1      51.150  33.086  53.472  0.00  0.00     0.002 A 
ATOM     12  C   UNL d   1      50.699  33.761  53.403  0.00  0.00     0.011 A 
ATOM     13  C   UNL d   1      50.896  34.312  52.827  0.00  0.00     0.058 A 
ATOM     14  C   UNL d   1      51.557  34.172  52.321  0.00  0.00     0.011 A 
ATOM     15 CL   UNL d   1      50.442  34.991  52.756  0.00  0.00    -0.082 Cl
ATOM     16  C   UNL d   1      52.001  33.506  52.391  0.00  0.00     0.002 A 
ENDBRANCH   1  10
BRANCH   3  17
ATOM     17  S   UNL d   1      53.416  32.927  53.689  0.00  0.00    -0.083 SA
BRANCH  17  18
ATOM     18  C   UNL d   1      53.798  32.889  54.433  0.00  0.00     0.058 C 
BRANCH  18  19
ATOM     19  C   UNL d   1      54.224  33.528  54.735  0.00  0.00     0.129 C 
ATOM     20  N   UNL d   1      54.564  33.501  55.489  0.00  0.00    -0.146 N 
ENDBRANCH  18  19
ENDBRANCH  17  18
ENDBRANCH   3  17
TORSDOF 4
ENDMDL
MODEL 4
REMARK VINA RESULT:      -8.5      1.880      3.560
REMARK  4 active torsions:
REMARK  status: ('A' for Active; 'I' for Inactive)
REMARK    1  A    between atoms: C_6  and  C_1 
REMARK    2  A    between atoms: S_7  and  C_3 
REMARK    3  A    between atoms: C_17  and  S_7 
REMARK    4  A    between atoms: C_18  and  C_17 
ROOT
ATOM      1  C   UNL d   1      52.737  32.183  53.188  0.00  0.00     0.087 A 
ATOM      2  N   UNL d   1      52.269  32.476  52.584  0.00  0.00    -0.245 NA
ATOM      3  C   UNL d   1      52.976  32.805  53.676  0.00  0.00     0.049 A 
ATOM      4  C   UNL d   1      52.657  33.494  53.377  0.00  0.00     0.025 A 
ATOM      5  C   UNL d   1      52.220  33.293  52.702  0.00  0.00     0.082 A 
ATOM      6  C   UNL d   1      52.711  34.274  53.636  0.00  0.00     0.002 A 
ATOM      7  C   UNL d   1      51.831  33.863  52.275  0.00  0.00     0.019 A 
ATOM      8  C   UNL d   1      52.316  34.858  53.203  0.00  0.00     0.000 A 
ATOM      9  C   UNL d   1      51.883  34.648  52.532  0.00  0.00     0.002 A 
ENDROOT
BRANCH   1  10
ATOM     10  C   UNL d   1      52.957  31.408  53.326  0.00  0.00     0.018 A 
ATOM     11  C   UNL d   1      52.445  30.902  53.747  0.00  0.00     0.002 A 
ATOM     12  C   UNL d   1      52.654  30.128  53.891  0.00  0.00     0.011 A 
ATOM     13  C   UNL d   1      53.378  29.856  53.613  0.00  0.00     0.058 A 
ATOM     14  C   UNL d   1      53.887  30.378  53.189  0.00  0.00     0.011 A 
ATOM     15 CL   UNL d   1      53.590  29.077  53.756  0.00  0.00    -0.082 Cl
ATOM     16  C   UNL d   1      53.679  31.141  53.048  0.00  0.00     0.002 A 
ENDBRANCH   1  10
BRANCH   3  17
ATOM     17  S   UNL d   1      53.452  32.763  54.352  0.00  0.00    -0.083 SA
BRANCH  17  18
ATOM     18  C   UNL d   1      54.063  33.318  54.490  0.00  0.00     0.058 C 
BRANCH  18  19
ATOM     19  C   UNL d   1      54.512  33.305  55.183  0.00  0.00     0.129 C 
ATOM     20  N   UNL d   1      55.265  33.646  55.214  0.00  0.00    -0.146 N 
ENDBRANCH  18  19
ENDBRANCH  17  18
ENDBRANCH   3  17
TORSDOF 4
ENDMDL
MODEL 5
REMARK VINA RESULT:      -8.5      1.062      2.259
REMARK  4 active torsions:
REMARK  status: ('A' for Active; 'I' for Inactive)
REMARK    1  A    between atoms: C_6  and  C_1 
REMARK    2  A    between atoms: S_7  and  C_3 
REMARK    3  A    between atoms: C_17  and  S_7 
REMARK    4  A    between atoms: C_18  and  C_17 
ROOT
ATOM      1  C   UNL d   1      52.099  33.252  53.010  0.00  0.00     0.087 A 
ATOM      2  N   UNL d   1      52.262  32.450  52.993  0.00  0.00    -0.245 NA
ATOM      3  C   UNL d   1      52.739  33.655  53.340  0.00  0.00     0.049 A 
ATOM      4  C   UNL d   1      53.310  33.104  53.532  0.00  0.00     0.025 A 
ATOM      5  C   UNL d   1      53.017  32.359  53.317  0.00  0.00     0.082 A 
ATOM      6  C   UNL d   1      54.055  33.191  53.872  0.00  0.00     0.002 A 
ATOM      7  C   UNL d   1      53.459  31.689  53.438  0.00  0.00     0.019 A 
ATOM      8  C   UNL d   1      54.509  32.511  53.997  0.00  0.00     0.000 A 
ATOM      9  C   UNL d   1      54.208  31.772  53.780  0.00  0.00     0.002 A 
ENDROOT
BRANCH   1  10
ATOM     10  C   UNL d   1      51.424  33.635  52.754  0.00  0.00     0.018 A 
ATOM     11  C   UNL d   1      50.751  33.662  53.248  0.00  0.00     0.002 A 
ATOM     12  C   UNL d   1      50.073  34.042  53.003  0.00  0.00     0.011 A 
ATOM     13  C   UNL d   1      50.065  34.397  52.262  0.00  0.00     0.058 A 
ATOM     14  C   UNL d   1      50.751  34.363  51.772  0.00  0.00     0.011 A 
ATOM     15 CL   UNL d   1      49.383  34.779  52.014  0.00  0.00    -0.082 Cl
ATOM     16  C   UNL d   1      51.419  33.988  52.016  0.00  0.00     0.002 A 
ENDBRANCH   1  10
BRANCH   3  17
ATOM     17  S   UNL d   1      52.813  34.470  53.465  0.00  0.00    -0.083 SA
BRANCH  17  18
ATOM     18  C   UNL d   1      53.024  34.779  54.213  0.00  0.00     0.058 C 
BRANCH  18  19
ATOM     19  C   UNL d   1      53.187  35.581  54.321  0.00  0.00     0.129 C 
ATOM     20  N   UNL d   1      52.808  36.023  54.909  0.00  0.00    -0.146 N 
ENDBRANCH  18  19
ENDBRANCH  17  18
ENDBRANCH   3  17
TORSDOF 4
ENDMDL
MODEL 6
REMARK VINA RESULT:      -8.1      1.714      2.998
REMARK  4 active torsions:
REMARK  status: ('A' for Active; 'I' for Inactive)
REMARK    1  A    between atoms: C_6  and  C_1 
REMARK    2  A    between atoms: S_7  and  C_3 
REMARK    3  A    between atoms: C_17  and  S_7 
REMARK    4  A    between atoms: C_18  and  C_17 
ROOT
ATOM      1  C   UNL d   1      53.674  32.030  54.019  0.00  0.00     0.087 A 
ATOM      2  N   UNL d   1      54.288  32.146  54.547  0.00  0.00    -0.245 NA
ATOM      3  C   UNL d   1      53.326  32.757  53.839  0.00  0.00     0.049 A 
ATOM      4  C   UNL d   1      53.723  33.334  54.256  0.00  0.00     0.025 A 
ATOM      5  C   UNL d   1      54.318  32.959  54.695  0.00  0.00     0.082 A 
ATOM      6  C   UNL d   1      53.615  34.150  54.289  0.00  0.00     0.002 A 
ATOM      7  C   UNL d   1      54.814  33.389  55.172  0.00  0.00     0.019 A 
ATOM      8  C   UNL d   1      54.118  34.591  54.775  0.00  0.00     0.000 A 
ATOM      9  C   UNL d   1      54.708  34.209  55.208  0.00  0.00     0.002 A 
ENDROOT
BRANCH   1  10
ATOM     10  C   UNL d   1      53.413  31.326  53.695  0.00  0.00     0.018 A 
ATOM     11  C   UNL d   1      52.987  30.787  54.168  0.00  0.00     0.002 A 
ATOM     12  C   UNL d   1      52.722  30.083  53.857  0.00  0.00     0.011 A 
ATOM     13  C   UNL d   1      52.882  29.914  53.068  0.00  0.00     0.058 A 
ATOM     14  C   UNL d   1      53.314  30.468  52.600  0.00  0.00     0.011 A 
ATOM     15 CL   UNL d   1      52.616  29.205  52.753  0.00  0.00    -0.082 Cl
ATOM     16  C   UNL d   1      53.574  31.162  52.910  0.00  0.00     0.002 A 
ENDBRANCH   1  10
BRANCH   3  17
ATOM     17  S   UNL d   1      52.688  32.899  53.329  0.00  0.00    -0.083 SA
BRANCH  17  18
ATOM     18  C   UNL d   1      52.028  33.351  53.574  0.00  0.00     0.058 C 
BRANCH  18  19
ATOM     19  C   UNL d   1      51.417  33.542  53.053  0.00  0.00     0.129 C 
ATOM     20  N   UNL d   1      50.626  33.534  53.295  0.00  0.00    -0.146 N 
ENDBRANCH  18  19
ENDBRANCH  17  18
ENDBRANCH   3  17
TORSDOF 4
ENDMDL
MODEL 7
REMARK VINA RESULT:      -7.9      1.654      3.303
REMARK  4 active torsions:
REMARK  status: ('A' for Active; 'I' for Inactive)
REMARK    1  A    between atoms: C_6  and  C_1 
REMARK    2  A    between atoms: S_7  and  C_3 
REMARK    3  A    between atoms: C_17  and  S_7 
REMARK    4  A    between atoms: C_18  and  C_17 
ROOT
ATOM      1  C   UNL d   1      52.787  33.861  53.809  0.00  0.00     0.087 A 
ATOM      2  N   UNL d   1      52.241  34.469  53.851  0.00  0.00    -0.245 NA
ATOM      3  C   UNL d   1      52.522  33.290  53.275  0.00  0.00     0.049 A 
ATOM      4  C   UNL d   1      51.804  33.539  52.978  0.00  0.00     0.025 A 
ATOM      5  C   UNL d   1      51.628  34.267  53.333  0.00  0.00     0.082 A 
ATOM      6  C   UNL d   1      51.294  33.193  52.433  0.00  0.00     0.002 A 
ATOM      7  C   UNL d   1      50.943  34.662  53.150  0.00  0.00     0.019 A 
ATOM      8  C   UNL d   1      50.594  33.592  52.244  0.00  0.00     0.000 A 
ATOM      9  C   UNL d   1      50.427  34.318  52.602  0.00  0.00     0.002 A 
ENDROOT
BRANCH   1  10
ATOM     10  C   UNL d   1      53.494  33.790  54.213  0.00  0.00     0.018 A 
ATOM     11  C   UNL d   1      53.492  33.536  55.008  0.00  0.00     0.002 A 
ATOM     12  C   UNL d   1      54.191  33.461  55.420  0.00  0.00     0.011 A 
ATOM     13  C   UNL d   1      54.896  33.641  55.038  0.00  0.00     0.058 A 
ATOM     14  C   UNL d   1      54.885  33.897  54.234  0.00  0.00     0.011 A 
ATOM     15 CL   UNL d   1      55.600  33.566  55.452  0.00  0.00    -0.082 Cl
ATOM     16  C   UNL d   1      54.195  33.970  53.830  0.00  0.00     0.002 A 
ENDBRANCH   1  10
BRANCH   3  17
ATOM     17  S   UNL d   1      52.899  32.584  53.063  0.00  0.00    -0.083 SA
BRANCH  17  18
ATOM     18  C   UNL d   1      52.500  31.849  53.098  0.00  0.00     0.058 C 
BRANCH  18  19
ATOM     19  C   UNL d   1      52.858  31.149  52.846  0.00  0.00     0.129 C 
ATOM     20  N   UNL d   1      52.686  30.424  53.206  0.00  0.00    -0.146 N 
ENDBRANCH  18  19
ENDBRANCH  17  18
ENDBRANCH   3  17
TORSDOF 4
ENDMDL
