MODEL 1
REMARK VINA RESULT:      35.7      0.000      0.000
REMARK  3 active torsions:
REMARK  status: ('A' for Active; 'I' for Inactive)
REMARK    1  A    between atoms: C_7  and  C_2 
REMARK       I    between atoms: N_9  and  C_7 
REMARK    2  A    between atoms: C_12  and  N_9 
REMARK    3  A    between atoms: C_11  and  C_12 
ROOT
ATOM      1  C   UNL d   1      22.815  12.765  -3.158  0.00  0.00     0.285 C 
ATOM      2  N   UNL d   1      23.107  12.721  -3.929  0.00  0.00    -0.206 NA
ATOM      3  O   UNL d   1      22.017  12.920  -3.023  0.00  0.00    -0.265 OA
ENDROOT
BRANCH   1   4
ATOM      4  C   UNL d   1      23.330  12.652  -2.513  0.00  0.00     0.133 A 
ATOM      5  C   UNL d   1      23.207  13.055  -1.799  0.00  0.00     0.272 A 
ATOM      6  N   UNL d   1      23.716  12.938  -1.174  0.00  0.00    -0.252 N 
ATOM      7  O   UNL d   1      22.570  13.572  -1.726  0.00  0.00    -0.266 OA
ATOM      8  C   UNL d   1      24.352  12.421  -1.248  0.00  0.00     0.182 A 
ATOM      9  C   UNL d   1      23.737  13.252  -0.413  0.00  0.00     0.092 A 
ATOM     10  N   UNL d   1      24.480  12.021  -1.946  0.00  0.00    -0.220 NA
ATOM     11  S   UNL d   1      24.768  12.414  -0.532  0.00  0.00    -0.048 SA
ATOM     12  C   UNL d   1      23.966  12.135  -2.586  0.00  0.00     0.111 A 
ATOM     13  C   UNL d   1      24.385  12.929  -0.019  0.00  0.00     0.057 A 
ENDBRANCH   1   4
BRANCH   2  14
ATOM     14  C   UNL d   1      23.905  12.566  -4.058  0.00  0.00     0.103 C 
BRANCH  14  15
ATOM     15  C   UNL d   1      24.191  12.536  -4.827  0.00  0.00     0.030 A 
ATOM     16  C   UNL d   1      24.434  13.229  -5.211  0.00  0.00     0.059 A 
ATOM     17 CL   UNL d   1      24.388  13.951  -4.817  0.00  0.00    -0.082 Cl
ATOM     18  C   UNL d   1      24.719  13.206  -5.976  0.00  0.00     0.011 A 
ATOM     19  C   UNL d   1      24.766  12.479  -6.378  0.00  0.00     0.001 A 
ATOM     20  C   UNL d   1      24.525  11.787  -5.998  0.00  0.00     0.000 A 
ATOM     21  C   UNL d   1      24.236  11.814  -5.222  0.00  0.00     0.002 A 
ENDBRANCH  14  15
ENDBRANCH   2  14
TORSDOF 3
ENDMDL
