MODEL 1
REMARK VINA RESULT:     -10.0      0.000      0.000
REMARK  2 active torsions:
REMARK  status: ('A' for Active; 'I' for Inactive)
REMARK    1  A    between atoms: C_4  and  C_1 
REMARK    2  A    between atoms: C_8  and  C_4 
ROOT
ATOM      1  C   UNL d   1      52.761  32.858  53.379  0.00  0.00     0.139 A 
ATOM      2  O   UNL d   1      52.773  33.425  52.774  0.00  0.00    -0.304 OA
ATOM      3  C   UNL d   1      52.008  32.778  53.658  0.00  0.00     0.030 A 
ATOM      4  C   UNL d   1      51.993  33.695  52.688  0.00  0.00     0.100 A 
ATOM      5  C   UNL d   1      51.522  33.297  53.233  0.00  0.00     0.025 A 
ATOM      6  C   UNL d   1      51.660  34.259  52.176  0.00  0.00     0.025 A 
ATOM      7  C   UNL d   1      50.706  33.451  53.280  0.00  0.00     0.002 A 
ATOM      8  C   UNL d   1      50.851  34.410  52.225  0.00  0.00     0.002 A 
ATOM      9  C   UNL d   1      50.380  34.012  52.769  0.00  0.00     0.000 A 
ENDROOT
BRANCH   1  10
ATOM     10  C   UNL d   1      53.435  32.436  53.653  0.00  0.00     0.218 C 
ATOM     11  O   UNL d   1      53.555  31.642  53.434  0.00  0.00    -0.284 OA
BRANCH  10  12
ATOM     12  C   UNL d   1      53.991  32.799  54.144  0.00  0.00     0.041 A 
ATOM     13  C   UNL d   1      54.671  33.121  53.799  0.00  0.00     0.003 A 
ATOM     14  C   UNL d   1      55.233  33.488  54.290  0.00  0.00     0.000 A 
ATOM     15  C   UNL d   1      55.115  33.528  55.103  0.00  0.00     0.000 A 
ATOM     16  C   UNL d   1      54.432  33.203  55.440  0.00  0.00     0.000 A 
ATOM     17  C   UNL d   1      53.873  32.839  54.956  0.00  0.00     0.003 A 
ENDBRANCH  10  12
ENDBRANCH   1  10
TORSDOF 2
ENDMDL
MODEL 2
REMARK VINA RESULT:     -10.0      0.663      3.622
REMARK  2 active torsions:
REMARK  status: ('A' for Active; 'I' for Inactive)
REMARK    1  A    between atoms: C_4  and  C_1 
REMARK    2  A    between atoms: C_8  and  C_4 
ROOT
ATOM      1  C   UNL d   1      53.156  32.909  53.529  0.00  0.00     0.139 A 
ATOM      2  O   UNL d   1      53.086  32.899  54.356  0.00  0.00    -0.304 OA
ATOM      3  C   UNL d   1      53.903  33.134  53.324  0.00  0.00     0.030 A 
ATOM      4  C   UNL d   1      53.824  33.129  54.657  0.00  0.00     0.100 A 
ATOM      5  C   UNL d   1      54.327  33.274  54.021  0.00  0.00     0.025 A 
ATOM      6  C   UNL d   1      54.093  33.222  55.437  0.00  0.00     0.025 A 
ATOM      7  C   UNL d   1      55.112  33.515  54.150  0.00  0.00     0.002 A 
ATOM      8  C   UNL d   1      54.873  33.462  55.562  0.00  0.00     0.002 A 
ATOM      9  C   UNL d   1      55.376  33.607  54.927  0.00  0.00     0.000 A 
ENDROOT
BRANCH   1  10
ATOM     10  C   UNL d   1      52.536  32.712  52.994  0.00  0.00     0.218 C 
ATOM     11  O   UNL d   1      52.558  31.999  52.566  0.00  0.00    -0.284 OA
BRANCH  10  12
ATOM     12  C   UNL d   1      51.895  33.220  52.883  0.00  0.00     0.041 A 
ATOM     13  C   UNL d   1      51.214  33.102  53.339  0.00  0.00     0.003 A 
ATOM     14  C   UNL d   1      50.567  33.613  53.229  0.00  0.00     0.000 A 
ATOM     15  C   UNL d   1      50.604  34.223  52.679  0.00  0.00     0.000 A 
ATOM     16  C   UNL d   1      51.289  34.335  52.227  0.00  0.00     0.000 A 
ATOM     17  C   UNL d   1      51.932  33.830  52.333  0.00  0.00     0.003 A 
ENDBRANCH  10  12
ENDBRANCH   1  10
TORSDOF 2
ENDMDL
MODEL 3
REMARK VINA RESULT:      -9.6      1.855      3.586
REMARK  2 active torsions:
REMARK  status: ('A' for Active; 'I' for Inactive)
REMARK    1  A    between atoms: C_4  and  C_1 
REMARK    2  A    between atoms: C_8  and  C_4 
ROOT
ATOM      1  C   UNL d   1      53.607  32.338  53.600  0.00  0.00     0.139 A 
ATOM      2  O   UNL d   1      53.401  32.507  54.385  0.00  0.00    -0.304 OA
ATOM      3  C   UNL d   1      54.321  32.674  53.430  0.00  0.00     0.030 A 
ATOM      4  C   UNL d   1      54.018  32.963  54.698  0.00  0.00     0.100 A 
ATOM      5  C   UNL d   1      54.585  33.066  54.110  0.00  0.00     0.025 A 
ATOM      6  C   UNL d   1      54.127  33.296  55.452  0.00  0.00     0.025 A 
ATOM      7  C   UNL d   1      55.275  33.505  54.260  0.00  0.00     0.002 A 
ATOM      8  C   UNL d   1      54.813  33.731  55.598  0.00  0.00     0.002 A 
ATOM      9  C   UNL d   1      55.380  33.834  55.010  0.00  0.00     0.000 A 
ENDROOT
BRANCH   1  10
ATOM     10  C   UNL d   1      53.137  31.884  53.068  0.00  0.00     0.218 C 
ATOM     11  O   UNL d   1      52.785  32.241  52.405  0.00  0.00    -0.284 OA
BRANCH  10  12
ATOM     12  C   UNL d   1      53.017  31.077  53.193  0.00  0.00     0.041 A 
ATOM     13  C   UNL d   1      52.251  30.814  53.365  0.00  0.00     0.003 A 
ATOM     14  C   UNL d   1      52.126  30.002  53.491  0.00  0.00     0.000 A 
ATOM     15  C   UNL d   1      52.752  29.470  53.446  0.00  0.00     0.000 A 
ATOM     16  C   UNL d   1      53.515  29.741  53.274  0.00  0.00     0.000 A 
ATOM     17  C   UNL d   1      53.643  30.546  53.148  0.00  0.00     0.003 A 
ENDBRANCH  10  12
ENDBRANCH   1  10
TORSDOF 2
ENDMDL
MODEL 4
REMARK VINA RESULT:      -9.5      1.723      2.910
REMARK  2 active torsions:
REMARK  status: ('A' for Active; 'I' for Inactive)
REMARK    1  A    between atoms: C_4  and  C_1 
REMARK    2  A    between atoms: C_8  and  C_4 
ROOT
ATOM      1  C   UNL d   1      53.835  32.234  53.524  0.00  0.00     0.139 A 
ATOM      2  O   UNL d   1      53.246  32.001  52.989  0.00  0.00    -0.304 OA
ATOM      3  C   UNL d   1      54.039  31.607  53.990  0.00  0.00     0.030 A 
ATOM      4  C   UNL d   1      53.091  31.201  53.142  0.00  0.00     0.100 A 
ATOM      5  C   UNL d   1      53.579  30.958  53.758  0.00  0.00     0.025 A 
ATOM      6  C   UNL d   1      52.560  30.668  52.789  0.00  0.00     0.025 A 
ATOM      7  C   UNL d   1      53.550  30.176  54.038  0.00  0.00     0.002 A 
ATOM      8  C   UNL d   1      52.533  29.892  53.069  0.00  0.00     0.002 A 
ATOM      9  C   UNL d   1      53.021  29.649  53.685  0.00  0.00     0.000 A 
ENDROOT
BRANCH   1  10
ATOM     10  C   UNL d   1      54.165  33.007  53.567  0.00  0.00     0.218 C 
ATOM     11  O   UNL d   1      54.940  33.152  53.303  0.00  0.00    -0.284 OA
BRANCH  10  12
ATOM     12  C   UNL d   1      53.728  33.637  53.873  0.00  0.00     0.041 A 
ATOM     13  C   UNL d   1      53.790  33.806  54.681  0.00  0.00     0.003 A 
ATOM     14  C   UNL d   1      53.350  34.440  54.992  0.00  0.00     0.000 A 
ATOM     15  C   UNL d   1      52.864  34.889  54.506  0.00  0.00     0.000 A 
ATOM     16  C   UNL d   1      52.806  34.715  53.698  0.00  0.00     0.000 A 
ATOM     17  C   UNL d   1      53.241  34.087  53.386  0.00  0.00     0.003 A 
ENDBRANCH  10  12
ENDBRANCH   1  10
TORSDOF 2
ENDMDL
MODEL 5
REMARK VINA RESULT:      -9.3      1.292      3.495
REMARK  2 active torsions:
REMARK  status: ('A' for Active; 'I' for Inactive)
REMARK    1  A    between atoms: C_4  and  C_1 
REMARK    2  A    between atoms: C_8  and  C_4 
ROOT
ATOM      1  C   UNL d   1      52.889  32.570  53.168  0.00  0.00     0.139 A 
ATOM      2  O   UNL d   1      52.621  31.992  52.637  0.00  0.00    -0.304 OA
ATOM      3  C   UNL d   1      53.299  32.218  53.767  0.00  0.00     0.030 A 
ATOM      4  C   UNL d   1      52.882  31.262  52.933  0.00  0.00     0.100 A 
ATOM      5  C   UNL d   1      53.300  31.401  53.628  0.00  0.00     0.025 A 
ATOM      6  C   UNL d   1      52.786  30.488  52.646  0.00  0.00     0.025 A 
ATOM      7  C   UNL d   1      53.632  30.770  54.055  0.00  0.00     0.002 A 
ATOM      8  C   UNL d   1      53.118  29.864  53.071  0.00  0.00     0.002 A 
ATOM      9  C   UNL d   1      53.535  30.003  53.767  0.00  0.00     0.000 A 
ENDROOT
BRANCH   1  10
ATOM     10  C   UNL d   1      52.750  33.397  53.086  0.00  0.00     0.218 C 
ATOM     11  O   UNL d   1      53.376  33.940  53.154  0.00  0.00    -0.284 OA
BRANCH  10  12
ATOM     12  C   UNL d   1      51.991  33.685  52.937  0.00  0.00     0.041 A 
ATOM     13  C   UNL d   1      51.820  33.974  52.179  0.00  0.00     0.003 A 
ATOM     14  C   UNL d   1      51.056  34.265  52.026  0.00  0.00     0.000 A 
ATOM     15  C   UNL d   1      50.483  34.266  52.615  0.00  0.00     0.000 A 
ATOM     16  C   UNL d   1      50.661  33.976  53.370  0.00  0.00     0.000 A 
ATOM     17  C   UNL d   1      51.417  33.687  53.526  0.00  0.00     0.003 A 
ENDBRANCH  10  12
ENDBRANCH   1  10
TORSDOF 2
ENDMDL
MODEL 6
REMARK VINA RESULT:      -8.9      1.623      2.640
REMARK  2 active torsions:
REMARK  status: ('A' for Active; 'I' for Inactive)
REMARK    1  A    between atoms: C_4  and  C_1 
REMARK    2  A    between atoms: C_8  and  C_4 
ROOT
ATOM      1  C   UNL d   1      53.782  32.830  53.661  0.00  0.00     0.139 A 
ATOM      2  O   UNL d   1      53.329  33.339  53.188  0.00  0.00    -0.304 OA
ATOM      3  C   UNL d   1      53.873  33.153  54.395  0.00  0.00     0.030 A 
ATOM      4  C   UNL d   1      53.142  33.995  53.660  0.00  0.00     0.100 A 
ATOM      5  C   UNL d   1      53.477  33.881  54.403  0.00  0.00     0.025 A 
ATOM      6  C   UNL d   1      52.704  34.682  53.495  0.00  0.00     0.025 A 
ATOM      7  C   UNL d   1      53.383  34.451  55.001  0.00  0.00     0.002 A 
ATOM      8  C   UNL d   1      52.613  35.246  54.091  0.00  0.00     0.002 A 
ATOM      9  C   UNL d   1      52.947  35.132  54.834  0.00  0.00     0.000 A 
ENDROOT
BRANCH   1  10
ATOM     10  C   UNL d   1      54.094  32.091  53.407  0.00  0.00     0.218 C 
ATOM     11  O   UNL d   1      54.881  32.033  53.142  0.00  0.00    -0.284 OA
BRANCH  10  12
ATOM     12  C   UNL d   1      53.628  31.409  53.414  0.00  0.00     0.041 A 
ATOM     13  C   UNL d   1      53.737  30.864  54.027  0.00  0.00     0.003 A 
ATOM     14  C   UNL d   1      53.269  30.176  54.038  0.00  0.00     0.000 A 
ATOM     15  C   UNL d   1      52.710  30.042  53.450  0.00  0.00     0.000 A 
ATOM     16  C   UNL d   1      52.608  30.592  52.840  0.00  0.00     0.000 A 
ATOM     17  C   UNL d   1      53.070  31.275  52.826  0.00  0.00     0.003 A 
ENDBRANCH  10  12
ENDBRANCH   1  10
TORSDOF 2
ENDMDL
