MODEL 1
REMARK VINA RESULT:      -8.2      0.000      0.000
REMARK  5 active torsions:
REMARK  status: ('A' for Active; 'I' for Inactive)
REMARK    1  A    between atoms: C_15  and  C_3 
REMARK    2  A    between atoms: S_9  and  C_4 
REMARK       I    between atoms: N_6  and  C_8 
REMARK    3  A    between atoms: C_16  and  N_7 
REMARK    4  A    between atoms: C_8  and  C_14 
REMARK    5  A    between atoms: C_14  and  S_9 
ROOT
ATOM      1  N   UNL d   1      51.033  34.146  52.947  0.00  0.00    -0.269 N 
ATOM      2  N   UNL d   1      52.443  33.679  53.667  0.00  0.00    -0.301 N 
ATOM      3  C   UNL d   1      50.322  34.384  52.589  0.00  0.00     0.272 C 
ATOM      4  C   UNL d   1      51.209  34.381  53.718  0.00  0.00     0.102 A 
ATOM      5  C   UNL d   1      51.567  33.675  52.537  0.00  0.00     0.102 A 
ATOM      6  C   UNL d   1      52.278  33.437  52.893  0.00  0.00     0.100 A 
ATOM      7  C   UNL d   1      51.913  34.150  54.079  0.00  0.00     0.100 A 
ATOM      8  O   UNL d   1      50.145  34.151  51.823  0.00  0.00    -0.266 OA
ENDROOT
BRANCH   3   9
ATOM      9  C   UNL d   1      49.794  34.855  53.008  0.00  0.00     0.100 C 
BRANCH   9  10
ATOM     10  S   UNL d   1      49.145  35.195  52.626  0.00  0.00    -0.036 SA
BRANCH  10  11
ATOM     11  C   UNL d   1      48.598  35.659  53.051  0.00  0.00     0.236 A 
ATOM     12  O   UNL d   1      47.795  35.540  53.113  0.00  0.00    -0.263 OA
ATOM     13  C   UNL d   1      47.479  36.139  53.590  0.00  0.00     0.205 A 
ATOM     14  N   UNL d   1      48.097  36.627  53.818  0.00  0.00    -0.120 NA
ATOM     15  N   UNL d   1      48.798  36.328  53.482  0.00  0.00    -0.114 NA
BRANCH  13  16
ATOM     16  C   UNL d   1      46.692  36.254  53.813  0.00  0.00     0.043 A 
ATOM     17  C   UNL d   1      46.443  36.027  54.562  0.00  0.00     0.004 A 
ATOM     18  C   UNL d   1      45.657  36.142  54.786  0.00  0.00     0.000 A 
ATOM     19  C   UNL d   1      45.124  36.483  54.258  0.00  0.00     0.000 A 
ATOM     20  C   UNL d   1      45.376  36.709  53.505  0.00  0.00     0.000 A 
ATOM     21  C   UNL d   1      46.159  36.594  53.285  0.00  0.00     0.004 A 
ENDBRANCH  13  16
ENDBRANCH  10  11
ENDBRANCH   9  10
ENDBRANCH   3   9
BRANCH   2  22
ATOM     22  C   UNL d   1      53.151  33.443  54.022  0.00  0.00     0.064 A 
ATOM     23  C   UNL d   1      53.602  33.992  54.430  0.00  0.00     0.018 A 
ATOM     24  C   UNL d   1      54.318  33.762  54.792  0.00  0.00     0.002 A 
ATOM     25  C   UNL d   1      54.566  32.982  54.735  0.00  0.00     0.000 A 
ATOM     26  C   UNL d   1      54.113  32.424  54.324  0.00  0.00     0.002 A 
ATOM     27  C   UNL d   1      53.402  32.663  53.968  0.00  0.00     0.018 A 
ENDBRANCH   2  22
TORSDOF 5
ENDMDL
MODEL 2
REMARK VINA RESULT:      -8.0      1.398      6.456
REMARK  5 active torsions:
REMARK  status: ('A' for Active; 'I' for Inactive)
REMARK    1  A    between atoms: C_15  and  C_3 
REMARK    2  A    between atoms: S_9  and  C_4 
REMARK       I    between atoms: N_6  and  C_8 
REMARK    3  A    between atoms: C_16  and  N_7 
REMARK    4  A    between atoms: C_8  and  C_14 
REMARK    5  A    between atoms: C_14  and  S_9 
ROOT
ATOM      1  N   UNL d   1      49.345  34.834  52.130  0.00  0.00    -0.269 N 
ATOM      2  N   UNL d   1      47.949  35.583  52.592  0.00  0.00    -0.301 N 
ATOM      3  C   UNL d   1      50.050  34.456  51.903  0.00  0.00     0.272 C 
ATOM      4  C   UNL d   1      49.220  35.038  52.920  0.00  0.00     0.102 A 
ATOM      5  C   UNL d   1      48.768  35.006  51.572  0.00  0.00     0.102 A 
ATOM      6  C   UNL d   1      48.064  35.383  51.798  0.00  0.00     0.100 A 
ATOM      7  C   UNL d   1      48.524  35.412  53.153  0.00  0.00     0.100 A 
ATOM      8  O   UNL d   1      50.177  34.252  51.119  0.00  0.00    -0.266 OA
ENDROOT
BRANCH   3   9
ATOM      9  C   UNL d   1      50.622  34.288  52.470  0.00  0.00     0.100 C 
BRANCH   9  10
ATOM     10  S   UNL d   1      51.391  34.089  52.240  0.00  0.00    -0.036 SA
BRANCH  10  11
ATOM     11  C   UNL d   1      51.860  33.590  52.715  0.00  0.00     0.236 A 
ATOM     12  O   UNL d   1      52.108  32.834  52.540  0.00  0.00    -0.263 OA
ATOM     13  C   UNL d   1      52.561  32.555  53.175  0.00  0.00     0.205 A 
ATOM     14  N   UNL d   1      52.587  33.148  53.741  0.00  0.00    -0.120 NA
ATOM     15  N   UNL d   1      52.149  33.796  53.455  0.00  0.00    -0.114 NA
BRANCH  13  16
ATOM     16  C   UNL d   1      52.931  31.822  53.255  0.00  0.00     0.043 A 
ATOM     17  C   UNL d   1      53.677  31.776  53.596  0.00  0.00     0.004 A 
ATOM     18  C   UNL d   1      54.048  31.043  53.677  0.00  0.00     0.000 A 
ATOM     19  C   UNL d   1      53.669  30.359  53.416  0.00  0.00     0.000 A 
ATOM     20  C   UNL d   1      52.919  30.407  53.073  0.00  0.00     0.000 A 
ATOM     21  C   UNL d   1      52.553  31.138  52.994  0.00  0.00     0.004 A 
ENDBRANCH  13  16
ENDBRANCH  10  11
ENDBRANCH   9  10
ENDBRANCH   3   9
BRANCH   2  22
ATOM     22  C   UNL d   1      47.249  35.958  52.818  0.00  0.00     0.064 A 
ATOM     23  C   UNL d   1      47.178  36.263  53.576  0.00  0.00     0.018 A 
ATOM     24  C   UNL d   1      46.474  36.643  53.812  0.00  0.00     0.002 A 
ATOM     25  C   UNL d   1      45.854  36.710  53.279  0.00  0.00     0.000 A 
ATOM     26  C   UNL d   1      45.921  36.403  52.513  0.00  0.00     0.002 A 
ATOM     27  C   UNL d   1      46.625  36.027  52.288  0.00  0.00     0.018 A 
ENDBRANCH   2  22
TORSDOF 5
ENDMDL
MODEL 3
REMARK VINA RESULT:      -7.7      1.631      2.097
REMARK  5 active torsions:
REMARK  status: ('A' for Active; 'I' for Inactive)
REMARK    1  A    between atoms: C_15  and  C_3 
REMARK    2  A    between atoms: S_9  and  C_4 
REMARK       I    between atoms: N_6  and  C_8 
REMARK    3  A    between atoms: C_16  and  N_7 
REMARK    4  A    between atoms: C_8  and  C_14 
REMARK    5  A    between atoms: C_14  and  S_9 
ROOT
ATOM      1  N   UNL d   1      51.587  33.625  53.081  0.00  0.00    -0.269 N 
ATOM      2  N   UNL d   1      52.423  32.207  53.204  0.00  0.00    -0.301 N 
ATOM      3  C   UNL d   1      51.161  34.336  53.017  0.00  0.00     0.272 C 
ATOM      4  C   UNL d   1      51.243  32.913  52.846  0.00  0.00     0.102 A 
ATOM      5  C   UNL d   1      52.352  33.625  53.379  0.00  0.00     0.102 A 
ATOM      6  C   UNL d   1      52.778  32.915  53.443  0.00  0.00     0.100 A 
ATOM      7  C   UNL d   1      51.658  32.204  52.907  0.00  0.00     0.100 A 
ATOM      8  O   UNL d   1      51.501  35.045  53.251  0.00  0.00    -0.266 OA
ENDROOT
BRANCH   3   9
ATOM      9  C   UNL d   1      50.395  34.326  52.718  0.00  0.00     0.100 C 
BRANCH   9  10
ATOM     10  S   UNL d   1      49.898  34.977  52.824  0.00  0.00    -0.036 SA
BRANCH  10  11
ATOM     11  C   UNL d   1      49.195  35.051  52.381  0.00  0.00     0.236 A 
ATOM     12  O   UNL d   1      48.522  35.458  52.591  0.00  0.00    -0.263 OA
ATOM     13  C   UNL d   1      47.967  35.377  51.981  0.00  0.00     0.205 A 
ATOM     14  N   UNL d   1      48.309  34.915  51.395  0.00  0.00    -0.120 NA
ATOM     15  N   UNL d   1      49.077  34.711  51.644  0.00  0.00    -0.114 NA
BRANCH  13  16
ATOM     16  C   UNL d   1      47.204  35.689  51.938  0.00  0.00     0.043 A 
ATOM     17  C   UNL d   1      46.960  36.247  52.489  0.00  0.00     0.004 A 
ATOM     18  C   UNL d   1      46.197  36.559  52.446  0.00  0.00     0.000 A 
ATOM     19  C   UNL d   1      45.683  36.311  51.852  0.00  0.00     0.000 A 
ATOM     20  C   UNL d   1      45.931  35.750  51.299  0.00  0.00     0.000 A 
ATOM     21  C   UNL d   1      46.690  35.441  51.344  0.00  0.00     0.004 A 
ENDBRANCH  13  16
ENDBRANCH  10  11
ENDBRANCH   9  10
ENDBRANCH   3   9
BRANCH   2  22
ATOM     22  C   UNL d   1      52.846  31.501  53.268  0.00  0.00     0.064 A 
ATOM     23  C   UNL d   1      53.556  31.490  53.677  0.00  0.00     0.018 A 
ATOM     24  C   UNL d   1      53.991  30.780  53.747  0.00  0.00     0.002 A 
ATOM     25  C   UNL d   1      53.701  30.095  53.402  0.00  0.00     0.000 A 
ATOM     26  C   UNL d   1      52.985  30.102  52.988  0.00  0.00     0.002 A 
ATOM     27  C   UNL d   1      52.560  30.812  52.924  0.00  0.00     0.018 A 
ENDBRANCH   2  22
TORSDOF 5
ENDMDL
MODEL 4
REMARK VINA RESULT:      -6.5      9.753     11.070
REMARK  5 active torsions:
REMARK  status: ('A' for Active; 'I' for Inactive)
REMARK    1  A    between atoms: C_15  and  C_3 
REMARK    2  A    between atoms: S_9  and  C_4 
REMARK       I    between atoms: N_6  and  C_8 
REMARK    3  A    between atoms: C_16  and  N_7 
REMARK    4  A    between atoms: C_8  and  C_14 
REMARK    5  A    between atoms: C_14  and  S_9 
ROOT
ATOM      1  N   UNL d   1      44.961  29.157  58.244  0.00  0.00    -0.269 N 
ATOM      2  N   UNL d   1      44.783  29.914  59.701  0.00  0.00    -0.301 N 
ATOM      3  C   UNL d   1      45.049  28.771  57.514  0.00  0.00     0.272 C 
ATOM      4  C   UNL d   1      44.730  28.732  58.913  0.00  0.00     0.102 A 
ATOM      5  C   UNL d   1      45.102  29.964  58.308  0.00  0.00     0.102 A 
ATOM      6  C   UNL d   1      45.014  30.351  59.037  0.00  0.00     0.100 A 
ATOM      7  C   UNL d   1      44.641  29.108  59.641  0.00  0.00     0.100 A 
ATOM      8  O   UNL d   1      45.278  29.192  56.847  0.00  0.00    -0.266 OA
ENDROOT
BRANCH   3   9
ATOM      9  C   UNL d   1      44.905  27.963  57.461  0.00  0.00     0.100 C 
BRANCH   9  10
ATOM     10  S   UNL d   1      44.896  27.589  56.724  0.00  0.00    -0.036 SA
BRANCH  10  11
ATOM     11  C   UNL d   1      44.792  26.763  56.669  0.00  0.00     0.236 A 
ATOM     12  O   UNL d   1      44.844  26.305  55.998  0.00  0.00    -0.263 OA
ATOM     13  C   UNL d   1      44.699  25.517  56.210  0.00  0.00     0.205 A 
ATOM     14  N   UNL d   1      44.559  25.498  57.017  0.00  0.00    -0.120 NA
ATOM     15  N   UNL d   1      44.616  26.277  57.306  0.00  0.00    -0.114 NA
BRANCH  13  16
ATOM     16  C   UNL d   1      44.691  24.850  55.723  0.00  0.00     0.043 A 
ATOM     17  C   UNL d   1      44.322  24.884  54.990  0.00  0.00     0.004 A 
ATOM     18  C   UNL d   1      44.314  24.217  54.503  0.00  0.00     0.000 A 
ATOM     19  C   UNL d   1      44.675  23.520  54.753  0.00  0.00     0.000 A 
ATOM     20  C   UNL d   1      45.045  23.488  55.490  0.00  0.00     0.000 A 
ATOM     21  C   UNL d   1      45.052  24.153  55.973  0.00  0.00     0.004 A 
ENDBRANCH  13  16
ENDBRANCH  10  11
ENDBRANCH   9  10
ENDBRANCH   3   9
BRANCH   2  22
ATOM     22  C   UNL d   1      44.695  30.298  60.427  0.00  0.00     0.064 A 
ATOM     23  C   UNL d   1      44.408  31.066  60.447  0.00  0.00     0.018 A 
ATOM     24  C   UNL d   1      44.317  31.461  61.176  0.00  0.00     0.002 A 
ATOM     25  C   UNL d   1      44.517  31.076  61.871  0.00  0.00     0.000 A 
ATOM     26  C   UNL d   1      44.807  30.301  61.856  0.00  0.00     0.002 A 
ATOM     27  C   UNL d   1      44.894  29.915  61.126  0.00  0.00     0.018 A 
ENDBRANCH   2  22
TORSDOF 5
ENDMDL
MODEL 5
REMARK VINA RESULT:      -6.2     10.467     11.846
REMARK  5 active torsions:
REMARK  status: ('A' for Active; 'I' for Inactive)
REMARK    1  A    between atoms: C_15  and  C_3 
REMARK    2  A    between atoms: S_9  and  C_4 
REMARK       I    between atoms: N_6  and  C_8 
REMARK    3  A    between atoms: C_16  and  N_7 
REMARK    4  A    between atoms: C_8  and  C_14 
REMARK    5  A    between atoms: C_14  and  S_9 
ROOT
ATOM      1  N   UNL d   1      44.477  29.864  62.384  0.00  0.00    -0.269 N 
ATOM      2  N   UNL d   1      44.419  28.819  63.660  0.00  0.00    -0.301 N 
ATOM      3  C   UNL d   1      44.507  30.386  61.738  0.00  0.00     0.272 C 
ATOM      4  C   UNL d   1      44.540  29.051  62.263  0.00  0.00     0.102 A 
ATOM      5  C   UNL d   1      44.384  30.153  63.147  0.00  0.00     0.102 A 
ATOM      6  C   UNL d   1      44.354  29.633  63.793  0.00  0.00     0.100 A 
ATOM      7  C   UNL d   1      44.512  28.526  62.899  0.00  0.00     0.100 A 
ATOM      8  O   UNL d   1      44.444  31.195  61.855  0.00  0.00    -0.266 OA
ENDROOT
BRANCH   3   9
ATOM      9  C   UNL d   1      44.600  30.086  60.978  0.00  0.00     0.100 C 
BRANCH   9  10
ATOM     10  S   UNL d   1      44.653  30.599  60.331  0.00  0.00    -0.036 SA
BRANCH  10  11
ATOM     11  C   UNL d   1      44.814  30.304  59.568  0.00  0.00     0.236 A 
ATOM     12  O   UNL d   1      44.777  29.529  59.322  0.00  0.00    -0.263 OA
ATOM     13  C   UNL d   1      44.983  29.500  58.520  0.00  0.00     0.205 A 
ATOM     14  N   UNL d   1      45.147  30.267  58.279  0.00  0.00    -0.120 NA
ATOM     15  N   UNL d   1      45.042  30.771  58.933  0.00  0.00    -0.114 NA
BRANCH  13  16
ATOM     16  C   UNL d   1      45.026  28.840  58.027  0.00  0.00     0.043 A 
ATOM     17  C   UNL d   1      44.653  28.852  57.295  0.00  0.00     0.004 A 
ATOM     18  C   UNL d   1      44.696  28.192  56.801  0.00  0.00     0.000 A 
ATOM     19  C   UNL d   1      45.112  27.523  57.043  0.00  0.00     0.000 A 
ATOM     20  C   UNL d   1      45.486  27.513  57.779  0.00  0.00     0.000 A 
ATOM     21  C   UNL d   1      45.442  28.171  58.268  0.00  0.00     0.004 A 
ENDBRANCH  13  16
ENDBRANCH  10  11
ENDBRANCH   9  10
ENDBRANCH   3   9
BRANCH   2  22
ATOM     22  C   UNL d   1      44.389  28.300  64.302  0.00  0.00     0.064 A 
ATOM     23  C   UNL d   1      44.382  27.491  64.170  0.00  0.00     0.018 A 
ATOM     24  C   UNL d   1      44.352  26.960  64.814  0.00  0.00     0.002 A 
ATOM     25  C   UNL d   1      44.329  27.255  65.578  0.00  0.00     0.000 A 
ATOM     26  C   UNL d   1      44.336  28.071  65.716  0.00  0.00     0.002 A 
ATOM     27  C   UNL d   1      44.366  28.591  65.070  0.00  0.00     0.018 A 
ENDBRANCH   2  22
TORSDOF 5
ENDMDL
MODEL 6
REMARK VINA RESULT:      -5.7     10.948     12.067
REMARK  5 active torsions:
REMARK  status: ('A' for Active; 'I' for Inactive)
REMARK    1  A    between atoms: C_15  and  C_3 
REMARK    2  A    between atoms: S_9  and  C_4 
REMARK       I    between atoms: N_6  and  C_8 
REMARK    3  A    between atoms: C_16  and  N_7 
REMARK    4  A    between atoms: C_8  and  C_14 
REMARK    5  A    between atoms: C_14  and  S_9 
ROOT
ATOM      1  N   UNL d   1      44.859  27.590  57.440  0.00  0.00    -0.269 N 
ATOM      2  N   UNL d   1      44.839  28.762  58.603  0.00  0.00    -0.301 N 
ATOM      3  C   UNL d   1      44.867  26.996  56.859  0.00  0.00     0.272 C 
ATOM      4  C   UNL d   1      44.692  27.400  58.225  0.00  0.00     0.102 A 
ATOM      5  C   UNL d   1      45.016  28.370  57.239  0.00  0.00     0.102 A 
ATOM      6  C   UNL d   1      45.008  28.965  57.818  0.00  0.00     0.100 A 
ATOM      7  C   UNL d   1      44.681  27.983  58.808  0.00  0.00     0.100 A 
ATOM      8  O   UNL d   1      45.033  27.183  56.078  0.00  0.00    -0.266 OA
ENDROOT
BRANCH   3   9
ATOM      9  C   UNL d   1      44.708  26.217  57.072  0.00  0.00     0.100 C 
BRANCH   9  10
ATOM     10  S   UNL d   1      44.779  25.611  56.515  0.00  0.00    -0.036 SA
BRANCH  10  11
ATOM     11  C   UNL d   1      44.667  24.815  56.737  0.00  0.00     0.236 A 
ATOM     12  O   UNL d   1      44.869  24.469  57.446  0.00  0.00    -0.263 OA
ATOM     13  C   UNL d   1      44.652  23.670  57.417  0.00  0.00     0.205 A 
ATOM     14  N   UNL d   1      44.315  23.531  56.682  0.00  0.00    -0.120 NA
ATOM     15  N   UNL d   1      44.323  24.246  56.256  0.00  0.00    -0.114 NA
BRANCH  13  16
ATOM     16  C   UNL d   1      44.744  23.094  58.001  0.00  0.00     0.043 A 
ATOM     17  C   UNL d   1      45.264  22.469  57.880  0.00  0.00     0.004 A 
ATOM     18  C   UNL d   1      45.356  21.893  58.464  0.00  0.00     0.000 A 
ATOM     19  C   UNL d   1      44.926  21.945  59.166  0.00  0.00     0.000 A 
ATOM     20  C   UNL d   1      44.404  22.574  59.285  0.00  0.00     0.000 A 
ATOM     21  C   UNL d   1      44.315  23.146  58.703  0.00  0.00     0.004 A 
ENDBRANCH  13  16
ENDBRANCH  10  11
ENDBRANCH   9  10
ENDBRANCH   3   9
BRANCH   2  22
ATOM     22  C   UNL d   1      44.831  29.352  59.180  0.00  0.00     0.064 A 
ATOM     23  C   UNL d   1      44.604  29.167  59.946  0.00  0.00     0.018 A 
ATOM     24  C   UNL d   1      44.593  29.758  60.536  0.00  0.00     0.002 A 
ATOM     25  C   UNL d   1      44.810  30.524  60.342  0.00  0.00     0.000 A 
ATOM     26  C   UNL d   1      45.040  30.716  59.570  0.00  0.00     0.002 A 
ATOM     27  C   UNL d   1      45.048  30.121  58.991  0.00  0.00     0.018 A 
ENDBRANCH   2  22
TORSDOF 5
ENDMDL
