MODEL 1
REMARK VINA RESULT:       3.3      0.000      0.000
REMARK  1 active torsions:
REMARK  status: ('A' for Active; 'I' for Inactive)
REMARK    1  A    between atoms: C_2  and  C_1 
ROOT
ATOM      1  C   UNL d   1      24.612  12.475  -2.884  0.00  0.00     0.067 A 
ATOM      2  C   UNL d   1      24.567  13.216  -1.667  0.00  0.00     0.123 A 
ATOM      3  C   UNL d   1      24.529  13.198  -2.492  0.00  0.00     0.033 A 
ATOM      4  C   UNL d   1      24.686  12.521  -1.239  0.00  0.00     0.123 A 
ATOM      5  O   UNL d   1      24.484  13.942  -1.271  0.00  0.00    -0.301 OA
ATOM      6  O   UNL d   1      24.723  12.546  -0.412  0.00  0.00    -0.301 OA
ATOM      7  C   UNL d   1      24.731  11.779  -2.456  0.00  0.00     0.008 A 
ATOM      8  C   UNL d   1      24.768  11.802  -1.633  0.00  0.00     0.027 A 
ATOM      9  C   UNL d   1      24.522  13.962  -0.442  0.00  0.00     0.149 A 
ATOM     10  C   UNL d   1      24.641  13.267  -0.014  0.00  0.00     0.149 A 
ENDROOT
BRANCH   1  11
ATOM     11  C   UNL d   1      24.574  12.456  -3.709  0.00  0.00     0.211 C 
ATOM     12  O   UNL d   1      24.343  11.792  -4.141  0.00  0.00    -0.644 OA
ATOM     13  O   UNL d   1      24.765  13.102  -4.188  0.00  0.00    -0.644 OA
ENDBRANCH   1  11
TORSDOF 1
ENDMDL
