MODEL 1
REMARK VINA RESULT:      24.4      0.000      0.000
REMARK  7 active torsions:
REMARK  status: ('A' for Active; 'I' for Inactive)
REMARK    1  A    between atoms: C_3  and  C_1 
REMARK    2  A    between atoms: O_13  and  C_1 
REMARK       I    between atoms: C_2  and  N_7 
REMARK    3  A    between atoms: C_4  and  C_2 
REMARK    4  A    between atoms: C_6  and  C_4 
REMARK    5  A    between atoms: C_5  and  C_6 
REMARK    6  A    between atoms: O_14  and  C_5 
REMARK    7  A    between atoms: N_7  and  C_9 
ROOT
ATOM      1  C   UNL d   1      56.660  49.019  49.998  0.00  0.00     0.063 A 
ATOM      2  C   UNL d   1      57.426  49.336  50.027  0.00  0.00     0.023 A 
ATOM      3  C   UNL d   1      57.813  49.394  50.749  0.00  0.00     0.059 A 
ATOM      4  C   UNL d   1      56.286  48.762  50.687  0.00  0.00     0.006 A 
ATOM      5  C   UNL d   1      56.676  48.821  51.404  0.00  0.00     0.002 A 
ATOM      6  C   UNL d   1      57.439  49.137  51.438  0.00  0.00     0.017 A 
ENDROOT
BRANCH   3   7
ATOM      7  N   UNL d   1      58.573  49.708  50.788  0.00  0.00    -0.321 N 
ATOM      8  C   UNL d   1      59.222  49.216  50.804  0.00  0.00     0.258 C 
ATOM      9  O   UNL d   1      59.106  48.405  50.780  0.00  0.00    -0.267 OA
ATOM     10  H   UNL d   1      58.678  50.520  50.811  0.00  0.00     0.169 HD
BRANCH   8  11
ATOM     11  C   UNL d   1      59.970  49.531  50.842  0.00  0.00     0.067 C 
BRANCH  11  12
ATOM     12  C   UNL d   1      60.578  49.093  51.168  0.00  0.00     0.072 C 
BRANCH  12  13
ATOM     13  C   UNL d   1      61.097  49.437  51.708  0.00  0.00     0.178 C 
ATOM     14  O   UNL d   1      61.877  49.583  51.485  0.00  0.00    -0.646 OA
BRANCH  13  15
ATOM     15  O   UNL d   1      60.843  49.636  52.469  0.00  0.00    -0.773 OA
ATOM     16  H   UNL d   1      61.027  49.132  53.100  0.00  0.00     0.167 HD
ENDBRANCH  13  15
ENDBRANCH  12  13
ENDBRANCH  11  12
ENDBRANCH   8  11
ENDBRANCH   3   7
BRANCH   1  17
ATOM     17  C   UNL d   1      56.275  48.963  49.270  0.00  0.00     0.178 C 
ATOM     18  O   UNL d   1      56.108  49.640  48.830  0.00  0.00    -0.646 OA
BRANCH  17  19
ATOM     19  O   UNL d   1      56.055  48.221  48.982  0.00  0.00    -0.773 OA
ATOM     20  H   UNL d   1      55.501  47.764  49.388  0.00  0.00     0.167 HD
ENDBRANCH  17  19
ENDBRANCH   1  17
TORSDOF 7
ENDMDL
MODEL 2
REMARK VINA RESULT:      26.5      1.031      1.334
REMARK  7 active torsions:
REMARK  status: ('A' for Active; 'I' for Inactive)
REMARK    1  A    between atoms: C_3  and  C_1 
REMARK    2  A    between atoms: O_13  and  C_1 
REMARK       I    between atoms: C_2  and  N_7 
REMARK    3  A    between atoms: C_4  and  C_2 
REMARK    4  A    between atoms: C_6  and  C_4 
REMARK    5  A    between atoms: C_5  and  C_6 
REMARK    6  A    between atoms: O_14  and  C_5 
REMARK    7  A    between atoms: N_7  and  C_9 
ROOT
ATOM      1  C   UNL d   1      57.404  49.585  50.356  0.00  0.00     0.063 A 
ATOM      2  C   UNL d   1      58.203  49.615  50.138  0.00  0.00     0.023 A 
ATOM      3  C   UNL d   1      58.780  49.676  50.720  0.00  0.00     0.059 A 
ATOM      4  C   UNL d   1      57.185  49.616  51.151  0.00  0.00     0.006 A 
ATOM      5  C   UNL d   1      57.763  49.677  51.727  0.00  0.00     0.002 A 
ATOM      6  C   UNL d   1      58.561  49.707  51.515  0.00  0.00     0.017 A 
ENDROOT
BRANCH   3   7
ATOM      7  N   UNL d   1      59.576  49.706  50.513  0.00  0.00    -0.321 N 
ATOM      8  C   UNL d   1      60.153  49.569  51.071  0.00  0.00     0.258 C 
ATOM      9  O   UNL d   1      59.928  49.400  51.841  0.00  0.00    -0.267 OA
ATOM     10  H   UNL d   1      59.791  49.876  49.741  0.00  0.00     0.169 HD
BRANCH   8  11
ATOM     11  C   UNL d   1      60.938  49.600  50.862  0.00  0.00     0.067 C 
BRANCH  11  12
ATOM     12  C   UNL d   1      61.264  48.994  50.422  0.00  0.00     0.072 C 
BRANCH  12  13
ATOM     13  C   UNL d   1      61.587  48.333  50.797  0.00  0.00     0.178 C 
ATOM     14  O   UNL d   1      61.769  47.664  50.354  0.00  0.00    -0.646 OA
BRANCH  13  15
ATOM     15  O   UNL d   1      61.729  48.339  51.611  0.00  0.00    -0.773 OA
ATOM     16  H   UNL d   1      62.433  48.011  51.900  0.00  0.00     0.167 HD
ENDBRANCH  13  15
ENDBRANCH  12  13
ENDBRANCH  11  12
ENDBRANCH   8  11
ENDBRANCH   3   7
BRANCH   1  17
ATOM     17  C   UNL d   1      56.828  49.524  49.768  0.00  0.00     0.178 C 
ATOM     18  O   UNL d   1      57.040  49.357  48.988  0.00  0.00    -0.646 OA
BRANCH  17  19
ATOM     19  O   UNL d   1      56.034  49.630  49.964  0.00  0.00    -0.773 OA
ATOM     20  H   UNL d   1      55.825  49.960  50.691  0.00  0.00     0.167 HD
ENDBRANCH  17  19
ENDBRANCH   1  17
TORSDOF 7
ENDMDL
