MODEL 1
REMARK VINA RESULT:      -8.2      0.000      0.000
REMARK  3 active torsions:
REMARK  status: ('A' for Active; 'I' for Inactive)
REMARK    1  A    between atoms: C_6  and  C_1 
REMARK    2  A    between atoms: C_7  and  C_4 
REMARK    3  A    between atoms: O_14  and  C_6 
ROOT
ATOM      1  C   UNL d   1      51.139  34.050  52.777  0.00  0.00     0.167 A 
ATOM      2  C   UNL d   1      51.819  34.525  52.769  0.00  0.00     0.047 A 
ATOM      3  N   UNL d   1      51.740  33.201  53.737  0.00  0.00    -0.148 NA
ATOM      4  C   UNL d   1      52.419  33.672  53.731  0.00  0.00     0.105 A 
ATOM      5  N   UNL d   1      51.097  33.386  53.262  0.00  0.00    -0.143 NA
ENDROOT
BRANCH   4   6
ATOM      6  C   UNL d   1      53.145  33.657  54.121  0.00  0.00     0.019 A 
ATOM      7  C   UNL d   1      53.704  33.087  53.916  0.00  0.00     0.002 A 
ATOM      8  C   UNL d   1      54.429  33.071  54.304  0.00  0.00     0.000 A 
ATOM      9  C   UNL d   1      53.543  32.537  53.329  0.00  0.00     0.000 C 
ATOM     10  C   UNL d   1      54.595  33.626  54.899  0.00  0.00     0.000 A 
ATOM     11  C   UNL d   1      54.030  34.191  55.097  0.00  0.00     0.000 A 
ATOM     12  C   UNL d   1      55.324  33.608  55.287  0.00  0.00     0.000 C 
ATOM     13  C   UNL d   1      53.308  34.209  54.712  0.00  0.00     0.002 A 
ENDBRANCH   4   6
BRANCH   1  14
ATOM     14  C   UNL d   1      50.498  34.247  52.293  0.00  0.00     0.316 C 
ATOM     15  O   UNL d   1      50.574  34.201  51.476  0.00  0.00    -0.257 OA
BRANCH  14  16
ATOM     16  O   UNL d   1      49.789  34.488  52.627  0.00  0.00    -0.294 OA
ATOM     17  C   UNL d   1      49.156  34.782  52.130  0.00  0.00     0.185 C 
ENDBRANCH  14  16
ENDBRANCH   1  14
TORSDOF 3
ENDMDL
MODEL 2
REMARK VINA RESULT:      -8.1      2.706      3.819
REMARK  3 active torsions:
REMARK  status: ('A' for Active; 'I' for Inactive)
REMARK    1  A    between atoms: C_6  and  C_1 
REMARK    2  A    between atoms: C_7  and  C_4 
REMARK    3  A    between atoms: O_14  and  C_6 
ROOT
ATOM      1  C   UNL d   1      53.013  30.490  53.500  0.00  0.00     0.167 A 
ATOM      2  C   UNL d   1      53.110  30.994  54.153  0.00  0.00     0.047 A 
ATOM      3  N   UNL d   1      52.833  31.612  52.657  0.00  0.00    -0.148 NA
ATOM      4  C   UNL d   1      52.929  32.117  53.304  0.00  0.00     0.105 A 
ATOM      5  N   UNL d   1      52.874  30.798  52.750  0.00  0.00    -0.143 NA
ENDROOT
BRANCH   4   6
ATOM      6  C   UNL d   1      52.922  32.933  53.416  0.00  0.00     0.019 A 
ATOM      7  C   UNL d   1      53.630  33.327  53.575  0.00  0.00     0.002 A 
ATOM      8  C   UNL d   1      53.624  34.142  53.686  0.00  0.00     0.000 A 
ATOM      9  C   UNL d   1      54.336  32.912  53.622  0.00  0.00     0.000 C 
ATOM     10  C   UNL d   1      52.911  34.564  53.639  0.00  0.00     0.000 A 
ATOM     11  C   UNL d   1      52.210  34.162  53.480  0.00  0.00     0.000 A 
ATOM     12  C   UNL d   1      52.909  35.382  53.751  0.00  0.00     0.000 C 
ATOM     13  C   UNL d   1      52.213  33.351  53.369  0.00  0.00     0.002 A 
ENDBRANCH   4   6
BRANCH   1  14
ATOM     14  C   UNL d   1      53.057  29.671  53.608  0.00  0.00     0.316 C 
ATOM     15  O   UNL d   1      52.552  29.177  53.187  0.00  0.00    -0.257 OA
BRANCH  14  16
ATOM     16  O   UNL d   1      53.602  29.354  54.131  0.00  0.00    -0.294 OA
ATOM     17  C   UNL d   1      53.442  28.607  54.521  0.00  0.00     0.185 C 
ENDBRANCH  14  16
ENDBRANCH   1  14
TORSDOF 3
ENDMDL
MODEL 3
REMARK VINA RESULT:      -8.0      1.617      2.474
REMARK  3 active torsions:
REMARK  status: ('A' for Active; 'I' for Inactive)
REMARK    1  A    between atoms: C_6  and  C_1 
REMARK    2  A    between atoms: C_7  and  C_4 
REMARK    3  A    between atoms: O_14  and  C_6 
ROOT
ATOM      1  C   UNL d   1      51.492  33.608  52.903  0.00  0.00     0.167 A 
ATOM      2  C   UNL d   1      51.327  33.013  53.457  0.00  0.00     0.047 A 
ATOM      3  N   UNL d   1      52.610  32.873  52.441  0.00  0.00    -0.148 NA
ATOM      4  C   UNL d   1      52.449  32.278  52.992  0.00  0.00     0.105 A 
ATOM      5  N   UNL d   1      52.134  33.540  52.393  0.00  0.00    -0.143 NA
ENDROOT
BRANCH   4   6
ATOM      6  C   UNL d   1      52.793  31.557  53.192  0.00  0.00     0.019 A 
ATOM      7  C   UNL d   1      53.478  31.548  53.653  0.00  0.00     0.002 A 
ATOM      8  C   UNL d   1      53.822  30.828  53.853  0.00  0.00     0.000 A 
ATOM      9  C   UNL d   1      53.815  32.249  53.912  0.00  0.00     0.000 C 
ATOM     10  C   UNL d   1      53.483  30.117  53.592  0.00  0.00     0.000 A 
ATOM     11  C   UNL d   1      52.800  30.136  53.132  0.00  0.00     0.000 A 
ATOM     12  C   UNL d   1      53.831  29.396  53.794  0.00  0.00     0.000 C 
ATOM     13  C   UNL d   1      52.455  30.851  52.932  0.00  0.00     0.002 A 
ENDBRANCH   4   6
BRANCH   1  14
ATOM     14  C   UNL d   1      51.005  34.275  52.864  0.00  0.00     0.316 C 
ATOM     15  O   UNL d   1      51.282  35.000  53.135  0.00  0.00    -0.257 OA
BRANCH  14  16
ATOM     16  O   UNL d   1      50.247  34.214  52.557  0.00  0.00    -0.294 OA
ATOM     17  C   UNL d   1      49.670  34.830  52.705  0.00  0.00     0.185 C 
ENDBRANCH  14  16
ENDBRANCH   1  14
TORSDOF 3
ENDMDL
MODEL 4
REMARK VINA RESULT:      -7.5      2.031      3.088
REMARK  3 active torsions:
REMARK  status: ('A' for Active; 'I' for Inactive)
REMARK    1  A    between atoms: C_6  and  C_1 
REMARK    2  A    between atoms: C_7  and  C_4 
REMARK    3  A    between atoms: O_14  and  C_6 
ROOT
ATOM      1  C   UNL d   1      52.830  34.431  53.854  0.00  0.00     0.167 A 
ATOM      2  C   UNL d   1      52.801  33.818  54.413  0.00  0.00     0.047 A 
ATOM      3  N   UNL d   1      53.002  33.481  52.819  0.00  0.00    -0.148 NA
ATOM      4  C   UNL d   1      52.974  32.869  53.373  0.00  0.00     0.105 A 
ATOM      5  N   UNL d   1      52.931  34.264  53.054  0.00  0.00    -0.143 NA
ENDROOT
BRANCH   4   6
ATOM      6  C   UNL d   1      53.024  32.047  53.340  0.00  0.00     0.019 A 
ATOM      7  C   UNL d   1      53.677  31.667  53.671  0.00  0.00     0.002 A 
ATOM      8  C   UNL d   1      53.728  30.846  53.638  0.00  0.00     0.000 A 
ATOM      9  C   UNL d   1      54.273  32.099  54.031  0.00  0.00     0.000 C 
ATOM     10  C   UNL d   1      53.126  30.406  53.274  0.00  0.00     0.000 A 
ATOM     11  C   UNL d   1      52.479  30.794  52.946  0.00  0.00     0.000 A 
ATOM     12  C   UNL d   1      53.180  29.582  53.243  0.00  0.00     0.000 C 
ATOM     13  C   UNL d   1      52.425  31.611  52.977  0.00  0.00     0.002 A 
ENDBRANCH   4   6
BRANCH   1  14
ATOM     14  C   UNL d   1      52.757  35.216  54.105  0.00  0.00     0.316 C 
ATOM     15  O   UNL d   1      52.034  35.600  54.036  0.00  0.00    -0.257 OA
BRANCH  14  16
ATOM     16  O   UNL d   1      53.403  35.608  54.420  0.00  0.00    -0.294 OA
ATOM     17  C   UNL d   1      53.304  36.375  54.791  0.00  0.00     0.185 C 
ENDBRANCH  14  16
ENDBRANCH   1  14
TORSDOF 3
ENDMDL
MODEL 5
REMARK VINA RESULT:      -7.4      2.070      4.169
REMARK  3 active torsions:
REMARK  status: ('A' for Active; 'I' for Inactive)
REMARK    1  A    between atoms: C_6  and  C_1 
REMARK    2  A    between atoms: C_7  and  C_4 
REMARK    3  A    between atoms: O_14  and  C_6 
ROOT
ATOM      1  C   UNL d   1      53.621  33.186  54.419  0.00  0.00     0.167 A 
ATOM      2  C   UNL d   1      53.118  33.835  54.540  0.00  0.00     0.047 A 
ATOM      3  N   UNL d   1      52.809  32.753  53.344  0.00  0.00    -0.148 NA
ATOM      4  C   UNL d   1      52.306  33.398  53.461  0.00  0.00     0.105 A 
ATOM      5  N   UNL d   1      53.468  32.642  53.820  0.00  0.00    -0.143 NA
ENDROOT
BRANCH   4   6
ATOM      6  C   UNL d   1      51.619  33.676  53.103  0.00  0.00     0.019 A 
ATOM      7  C   UNL d   1      51.675  34.193  52.462  0.00  0.00     0.002 A 
ATOM      8  C   UNL d   1      50.988  34.471  52.104  0.00  0.00     0.000 A 
ATOM      9  C   UNL d   1      52.407  34.430  52.181  0.00  0.00     0.000 C 
ATOM     10  C   UNL d   1      50.245  34.233  52.387  0.00  0.00     0.000 A 
ATOM     11  C   UNL d   1      50.199  33.717  53.027  0.00  0.00     0.000 A 
ATOM     12  C   UNL d   1      49.557  34.514  52.025  0.00  0.00     0.000 C 
ATOM     13  C   UNL d   1      50.881  33.439  53.385  0.00  0.00     0.002 A 
ENDBRANCH   4   6
BRANCH   1  14
ATOM     14  C   UNL d   1      54.282  33.086  54.906  0.00  0.00     0.316 C 
ATOM     15  O   UNL d   1      54.228  32.612  55.576  0.00  0.00    -0.257 OA
BRANCH  14  16
ATOM     16  O   UNL d   1      54.989  33.458  54.723  0.00  0.00    -0.294 OA
ATOM     17  C   UNL d   1      55.482  33.781  55.345  0.00  0.00     0.185 C 
ENDBRANCH  14  16
ENDBRANCH   1  14
TORSDOF 3
ENDMDL
MODEL 6
REMARK VINA RESULT:      -5.4      9.593     10.604
REMARK  3 active torsions:
REMARK  status: ('A' for Active; 'I' for Inactive)
REMARK    1  A    between atoms: C_6  and  C_1 
REMARK    2  A    between atoms: C_7  and  C_4 
REMARK    3  A    between atoms: O_14  and  C_6 
ROOT
ATOM      1  C   UNL d   1      44.903  27.494  58.520  0.00  0.00     0.167 A 
ATOM      2  C   UNL d   1      44.314  28.057  58.682  0.00  0.00     0.047 A 
ATOM      3  N   UNL d   1      45.584  28.435  57.712  0.00  0.00    -0.148 NA
ATOM      4  C   UNL d   1      45.000  28.997  57.870  0.00  0.00     0.105 A 
ATOM      5  N   UNL d   1      45.540  27.682  58.035  0.00  0.00    -0.143 NA
ENDROOT
BRANCH   4   6
ATOM      6  C   UNL d   1      44.867  29.780  57.651  0.00  0.00     0.019 A 
ATOM      7  C   UNL d   1      44.683  29.956  56.866  0.00  0.00     0.002 A 
ATOM      8  C   UNL d   1      44.549  30.738  56.646  0.00  0.00     0.000 A 
ATOM      9  C   UNL d   1      44.632  29.360  56.306  0.00  0.00     0.000 C 
ATOM     10  C   UNL d   1      44.600  31.344  57.211  0.00  0.00     0.000 A 
ATOM     11  C   UNL d   1      44.785  31.158  57.992  0.00  0.00     0.000 A 
ATOM     12  C   UNL d   1      44.466  32.128  56.987  0.00  0.00     0.000 C 
ATOM     13  C   UNL d   1      44.918  30.381  58.213  0.00  0.00     0.002 A 
ENDBRANCH   4   6
BRANCH   1  14
ATOM     14  C   UNL d   1      44.846  26.739  58.852  0.00  0.00     0.316 C 
ATOM     15  O   UNL d   1      44.812  26.653  59.669  0.00  0.00    -0.257 OA
BRANCH  14  16
ATOM     16  O   UNL d   1      44.824  26.078  58.368  0.00  0.00    -0.294 OA
ATOM     17  C   UNL d   1      44.642  25.307  58.697  0.00  0.00     0.185 C 
ENDBRANCH  14  16
ENDBRANCH   1  14
TORSDOF 3
ENDMDL
