MODEL 1
REMARK VINA RESULT:      17.1      0.000      0.000
REMARK  7 active torsions:
REMARK  status: ('A' for Active; 'I' for Inactive)
REMARK    1  A    between atoms: C_6  and  N_1 
REMARK    2  A    between atoms: C_7  and  C_2 
REMARK    3  A    between atoms: C_11  and  C_6 
REMARK    4  A    between atoms: N_8  and  C_12 
REMARK    5  A    between atoms: C_9  and  N_8 
REMARK    6  A    between atoms: C_17  and  C_9 
REMARK    7  A    between atoms: C_12  and  C_11 
ROOT
ATOM      1  N   UNL d   1      13.783  12.483  -3.402  0.00  0.00    -0.301 N 
ATOM      2  C   UNL d   1      13.337  12.244  -4.636  0.00  0.00     0.061 A 
ATOM      3  C   UNL d   1      13.700  11.901  -3.985  0.00  0.00     0.084 A 
ATOM      4  C   UNL d   1      13.465  13.188  -3.705  0.00  0.00     0.064 A 
ATOM      5  C   UNL d   1      13.188  13.038  -4.472  0.00  0.00     0.021 A 
ATOM      6  C   UNL d   1      13.393  13.946  -3.381  0.00  0.00     0.018 A 
ATOM      7  C   UNL d   1      12.843  13.639  -4.909  0.00  0.00     0.002 A 
ATOM      8  C   UNL d   1      12.771  14.392  -4.588  0.00  0.00     0.000 A 
ATOM      9  C   UNL d   1      13.045  14.541  -3.829  0.00  0.00     0.002 A 
ENDROOT
BRANCH   1  10
ATOM     10  C   UNL d   1      14.118  12.389  -2.656  0.00  0.00     0.124 C 
BRANCH  10  11
ATOM     11  C   UNL d   1      13.704  11.986  -2.066  0.00  0.00     0.232 C 
ATOM     12  O   UNL d   1      12.907  11.783  -2.189  0.00  0.00    -0.283 OA
BRANCH  11  13
ATOM     13  C   UNL d   1      14.077  11.782  -1.352  0.00  0.00     0.137 C 
BRANCH  13  14
ATOM     14  N   UNL d   1      14.853  12.010  -1.208  0.00  0.00    -0.262 NA
BRANCH  14  15
ATOM     15  C   UNL d   1      15.037  12.458  -0.543  0.00  0.00     0.143 C 
ATOM     16  C   UNL d   1      15.622  12.208  -0.018  0.00  0.00     0.032 C 
ATOM     17  C   UNL d   1      15.546  11.806  -0.498  0.00  0.00     0.032 C 
BRANCH  15  18
ATOM     18  C   UNL d   1      14.631  13.169  -0.398  0.00  0.00     0.229 C 
ATOM     19  O   UNL d   1      15.026  13.804  -0.046  0.00  0.00    -0.286 OA
ENDBRANCH  15  18
ENDBRANCH  14  15
ENDBRANCH  13  14
ENDBRANCH  11  13
ENDBRANCH  10  11
ENDBRANCH   1  10
BRANCH   2  20
ATOM     20  C   UNL d   1      13.184  11.787  -5.304  0.00  0.00     0.236 C 
ATOM     21  O   UNL d   1      13.712  11.784  -5.939  0.00  0.00    -0.283 OA
ENDBRANCH   2  20
TORSDOF 7
ENDMDL
