MODEL 1
REMARK VINA RESULT:      87.4      0.000      0.000
REMARK  4 active torsions:
REMARK  status: ('A' for Active; 'I' for Inactive)
REMARK    1  A    between atoms: N_9  and  C_3 
REMARK    2  A    between atoms: C_11  and  C_5 
REMARK    3  A    between atoms: C_15  and  C_10 
REMARK    4  A    between atoms: C_18  and  C_15 
ROOT
ATOM      1  N   UNL d   1     -57.120 -99.542 -45.105  0.00  0.00    -0.196 N 
ATOM      2  C   UNL d   1     -56.704 -99.605 -44.383  0.00  0.00     0.167 A 
ATOM      3  C   UNL d   1     -57.882 -99.250 -45.089  0.00  0.00     0.152 A 
ATOM      4  N   UNL d   1     -55.996-100.064 -45.798  0.00  0.00    -0.163 NA
ATOM      5  C   UNL d   1     -55.946 -99.893 -44.376  0.00  0.00     0.055 A 
ATOM      6  C   UNL d   1     -55.580-100.126 -45.076  0.00  0.00     0.104 A 
ATOM      7  N   UNL d   1     -57.070 -99.371 -43.682  0.00  0.00    -0.227 NA
ATOM      8  C   UNL d   1     -58.251 -99.018 -44.408  0.00  0.00     0.057 A 
ATOM      9  C   UNL d   1     -57.834 -99.080 -43.685  0.00  0.00     0.086 A 
ATOM     10  C   UNL d   1     -54.818-100.417 -45.076  0.00  0.00     0.023 C 
ENDROOT
BRANCH   5  11
ATOM     11  C   UNL d   1     -55.536 -99.954 -43.664  0.00  0.00     0.004 A 
ATOM     12  C   UNL d   1     -55.505-100.678 -43.275  0.00  0.00     0.000 A 
ATOM     13  C   UNL d   1     -55.094-100.739 -42.565  0.00  0.00     0.000 A 
ATOM     14  C   UNL d   1     -54.716-100.077 -42.242  0.00  0.00     0.000 A 
ATOM     15  C   UNL d   1     -54.746 -99.350 -42.630  0.00  0.00     0.000 A 
ATOM     16  C   UNL d   1     -55.163 -99.288 -43.353  0.00  0.00     0.000 A 
ENDBRANCH   5  11
BRANCH   3  17
ATOM     17  N   UNL d   1     -58.312 -99.185 -45.834  0.00  0.00    -0.289 N 
ATOM     18  C   UNL d   1     -57.989 -98.862 -46.431  0.00  0.00     0.082 A 
ATOM     19  C   UNL d   1     -58.360 -98.807 -47.074  0.00  0.00     0.021 A 
ATOM     20  C   UNL d   1     -59.380 -99.395 -46.537  0.00  0.00     0.021 A 
ATOM     21  C   UNL d   1     -59.002 -99.451 -45.882  0.00  0.00     0.082 A 
ENDBRANCH   3  17
BRANCH   9  22
ATOM     22  C   UNL d   1     -58.211 -98.838 -42.953  0.00  0.00     0.019 C 
BRANCH  22  23
ATOM     23  C   UNL d   1     -59.047 -99.014 -42.807  0.00  0.00     0.002 C 
ATOM     24  C   UNL d   1     -59.414 -98.781 -42.075  0.00  0.00     0.000 C 
ENDBRANCH  22  23
ENDBRANCH   9  22
TORSDOF 4
ENDMDL
