MODEL 1
REMARK VINA RESULT:      94.7      0.000      0.000
REMARK  4 active torsions:
REMARK  status: ('A' for Active; 'I' for Inactive)
REMARK    1  A    between atoms: C_6  and  C_1 
REMARK    2  A    between atoms: C_10  and  C_2 
REMARK       I    between atoms: N_14  and  C_6 
REMARK    3  A    between atoms: C_8  and  C_15 
REMARK    4  A    between atoms: C_21  and  N_14 
ROOT
ATOM      1  C   UNL d   1     -50.509  25.785  33.841  0.00  0.00     0.283 C 
ATOM      2  N   UNL d   1     -50.023  25.925  34.492  0.00  0.00    -0.208 NA
ATOM      3  O   UNL d   1     -50.682  26.391  33.307  0.00  0.00    -0.265 OA
ENDROOT
BRANCH   2   4
ATOM      4  C   UNL d   1     -49.710  26.679  34.607  0.00  0.00     0.085 A 
ATOM      5  C   UNL d   1     -49.361  27.092  33.984  0.00  0.00     0.019 A 
ATOM      6  C   UNL d   1     -49.049  27.847  34.102  0.00  0.00     0.003 A 
ATOM      7  C   UNL d   1     -49.087  28.190  34.851  0.00  0.00     0.020 A 
ATOM      8  C   UNL d   1     -49.434  27.788  35.483  0.00  0.00     0.003 A 
ATOM      9  C   UNL d   1     -49.747  27.033  35.369  0.00  0.00     0.019 A 
BRANCH   7  10
ATOM     10  C   UNL d   1     -48.776  28.944  34.973  0.00  0.00     0.118 A 
ATOM     11  N   UNL d   1     -48.089  29.123  35.390  0.00  0.00    -0.059 NA
ATOM     12  C   UNL d   1     -47.991  29.940  35.371  0.00  0.00     0.735 A 
ATOM     13  N   UNL d   1     -47.404  30.424  35.695  0.00  0.00    -0.059 NA
ATOM     14  N   UNL d   1     -48.607  30.263  34.950  0.00  0.00    -0.136 N 
ATOM     15  C   UNL d   1     -47.450  31.238  35.586  0.00  0.00     0.119 A 
ATOM     16  C   UNL d   1     -48.073  31.569  35.159  0.00  0.00     0.041 A 
ATOM     17  C   UNL d   1     -48.652  31.086  34.840  0.00  0.00     0.100 A 
ATOM     18  C   UNL d   1     -49.094  29.648  34.702  0.00  0.00     0.118 A 
ENDBRANCH   7  10
ENDBRANCH   2   4
BRANCH   1  19
ATOM     19  C   UNL d   1     -50.828  25.033  33.716  0.00  0.00     0.102 A 
ATOM     20  C   UNL d   1     -51.613  24.862  33.550  0.00  0.00     0.116 A 
ATOM     21  N   UNL d   1     -51.680  24.038  33.468  0.00  0.00    -0.126 NA
ATOM     22  O   UNL d   1     -50.931  23.715  33.586  0.00  0.00    -0.211 OA
ATOM     23  C   UNL d   1     -50.401  24.326  33.740  0.00  0.00     0.131 A 
ATOM     24  C   UNL d   1     -49.599  24.254  33.890  0.00  0.00     0.029 C 
BRANCH  20  25
ATOM     25  C   UNL d   1     -52.222  25.395  33.476  0.00  0.00     0.031 A 
ATOM     26  C   UNL d   1     -52.996  25.133  33.453  0.00  0.00     0.059 A 
ATOM     27 CL   UNL d   1     -53.165  24.333  33.504  0.00  0.00    -0.082 Cl
ATOM     28  C   UNL d   1     -53.610  25.682  33.378  0.00  0.00     0.011 A 
ATOM     29  C   UNL d   1     -53.441  26.481  33.327  0.00  0.00     0.001 A 
ATOM     30  C   UNL d   1     -52.663  26.750  33.350  0.00  0.00     0.000 A 
ATOM     31  C   UNL d   1     -52.049  26.202  33.425  0.00  0.00     0.002 A 
ENDBRANCH  20  25
ENDBRANCH   1  19
TORSDOF 4
ENDMDL
MODEL 2
REMARK VINA RESULT:      96.8      2.518      6.343
REMARK  4 active torsions:
REMARK  status: ('A' for Active; 'I' for Inactive)
REMARK    1  A    between atoms: C_6  and  C_1 
REMARK    2  A    between atoms: C_10  and  C_2 
REMARK       I    between atoms: N_14  and  C_6 
REMARK    3  A    between atoms: C_8  and  C_15 
REMARK    4  A    between atoms: C_21  and  N_14 
ROOT
ATOM      1  C   UNL d   1     -48.578  30.257  34.639  0.00  0.00     0.283 C 
ATOM      2  N   UNL d   1     -48.731  29.952  33.889  0.00  0.00    -0.208 NA
ATOM      3  O   UNL d   1     -48.835  29.858  35.316  0.00  0.00    -0.265 OA
ENDROOT
BRANCH   2   4
ATOM      4  C   UNL d   1     -49.145  29.242  33.819  0.00  0.00     0.085 A 
ATOM      5  C   UNL d   1     -48.838  28.541  34.127  0.00  0.00     0.019 A 
ATOM      6  C   UNL d   1     -49.256  27.832  34.055  0.00  0.00     0.003 A 
ATOM      7  C   UNL d   1     -49.985  27.827  33.671  0.00  0.00     0.020 A 
ATOM      8  C   UNL d   1     -50.303  28.522  33.358  0.00  0.00     0.003 A 
ATOM      9  C   UNL d   1     -49.889  29.232  33.428  0.00  0.00     0.019 A 
BRANCH   7  10
ATOM     10  C   UNL d   1     -50.405  27.121  33.597  0.00  0.00     0.118 A 
ATOM     11  N   UNL d   1     -50.079  26.371  33.500  0.00  0.00    -0.059 NA
ATOM     12  C   UNL d   1     -50.700  25.833  33.451  0.00  0.00     0.735 A 
ATOM     13  N   UNL d   1     -50.700  25.013  33.353  0.00  0.00    -0.059 NA
ATOM     14  N   UNL d   1     -51.400  26.242  33.516  0.00  0.00    -0.136 N 
ATOM     15  C   UNL d   1     -51.418  24.612  33.322  0.00  0.00     0.119 A 
ATOM     16  C   UNL d   1     -52.130  25.024  33.389  0.00  0.00     0.041 A 
ATOM     17  C   UNL d   1     -52.125  25.836  33.486  0.00  0.00     0.100 A 
ATOM     18  C   UNL d   1     -51.219  27.040  33.607  0.00  0.00     0.118 A 
ENDBRANCH   7  10
ENDBRANCH   2   4
BRANCH   1  19
ATOM     19  C   UNL d   1     -48.164  30.967  34.721  0.00  0.00     0.102 A 
ATOM     20  C   UNL d   1     -47.531  31.103  35.226  0.00  0.00     0.116 A 
ATOM     21  N   UNL d   1     -47.292  31.891  35.123  0.00  0.00    -0.126 NA
ATOM     22  O   UNL d   1     -47.784  32.229  34.554  0.00  0.00    -0.211 OA
ATOM     23  C   UNL d   1     -48.325  31.661  34.303  0.00  0.00     0.131 A 
ATOM     24  C   UNL d   1     -48.915  31.759  33.743  0.00  0.00     0.029 C 
BRANCH  20  25
ATOM     25  C   UNL d   1     -47.193  30.570  35.736  0.00  0.00     0.031 A 
ATOM     26  C   UNL d   1     -46.416  30.339  35.635  0.00  0.00     0.059 A 
ATOM     27 CL   UNL d   1     -45.971  30.643  35.018  0.00  0.00    -0.082 Cl
ATOM     28  C   UNL d   1     -46.079  29.796  36.159  0.00  0.00     0.011 A 
ATOM     29  C   UNL d   1     -46.524  29.493  36.776  0.00  0.00     0.001 A 
ATOM     30  C   UNL d   1     -47.307  29.721  36.883  0.00  0.00     0.000 A 
ATOM     31  C   UNL d   1     -47.645  30.264  36.359  0.00  0.00     0.002 A 
ENDBRANCH  20  25
ENDBRANCH   1  19
TORSDOF 4
ENDMDL
