MODEL 1
REMARK VINA RESULT:      -4.6      0.000      0.000
REMARK  5 active torsions:
REMARK  status: ('A' for Active; 'I' for Inactive)
REMARK    1  A    between atoms: C_3  and  C_1 
REMARK    2  A    between atoms: C_5  and  C_3 
REMARK    3  A    between atoms: C_13  and  C_5 
REMARK    4  A    between atoms: C_10  and  C_11 
REMARK    5  A    between atoms: O_16  and  C_10 
ROOT
ATOM      1  C   UNL d   1      56.689   0.020  31.965  0.00  0.00     0.092 C 
ATOM      2  C   UNL d   1      56.782  -0.760  31.705  0.00  0.00     0.103 C 
ATOM      3  N   UNL d   1      56.873  -1.540  31.449  0.00  0.00    -0.191 NA
ENDROOT
BRANCH   1   4
ATOM      4  C   UNL d   1      56.325   0.172  32.689  0.00  0.00     0.120 A 
ATOM      5  N   UNL d   1      55.510   0.278  32.806  0.00  0.00    -0.238 NA
ATOM      6  C   UNL d   1      55.389   0.418  33.615  0.00  0.00     0.088 A 
ATOM      7  C   UNL d   1      54.702   0.559  34.047  0.00  0.00     0.020 A 
ATOM      8  C   UNL d   1      56.124   0.398  33.989  0.00  0.00     0.049 A 
ATOM      9  C   UNL d   1      54.755   0.682  34.863  0.00  0.00     0.002 A 
ATOM     10  C   UNL d   1      55.487   0.664  35.244  0.00  0.00     0.001 A 
ATOM     11  C   UNL d   1      56.172   0.523  34.812  0.00  0.00     0.008 A 
ATOM     12  S   UNL d   1      56.701   0.246  33.416  0.00  0.00    -0.066 SA
ENDBRANCH   1   4
BRANCH   1  13
ATOM     13  C   UNL d   1      56.963   0.638  31.495  0.00  0.00     0.012 C 
BRANCH  13  14
ATOM     14  C   UNL d   1      57.647   0.549  31.050  0.00  0.00     0.001 A 
ATOM     15  C   UNL d   1      57.602   0.329  30.263  0.00  0.00     0.000 A 
ATOM     16  C   UNL d   1      58.288   0.239  29.812  0.00  0.00     0.005 A 
ATOM     17  C   UNL d   1      59.027   0.370  30.157  0.00  0.00     0.063 A 
ATOM     18  C   UNL d   1      59.081   0.591  30.948  0.00  0.00     0.005 A 
ATOM     19  C   UNL d   1      58.391   0.682  31.401  0.00  0.00     0.000 A 
BRANCH  17  20
ATOM     20  C   UNL d   1      59.712   0.279  29.706  0.00  0.00     0.296 C 
ATOM     21  O   UNL d   1      59.783   0.673  28.978  0.00  0.00    -0.259 OA
BRANCH  20  22
ATOM     22  O   UNL d   1      60.324  -0.200  29.977  0.00  0.00    -0.296 OA
ATOM     23  C   UNL d   1      60.987  -0.333  29.500  0.00  0.00     0.185 C 
ENDBRANCH  20  22
ENDBRANCH  17  20
ENDBRANCH  13  14
ENDBRANCH   1  13
TORSDOF 5
ENDMDL
MODEL 2
REMARK VINA RESULT:      -4.2      2.400      5.048
REMARK  5 active torsions:
REMARK  status: ('A' for Active; 'I' for Inactive)
REMARK    1  A    between atoms: C_3  and  C_1 
REMARK    2  A    between atoms: C_5  and  C_3 
REMARK    3  A    between atoms: C_13  and  C_5 
REMARK    4  A    between atoms: C_10  and  C_11 
REMARK    5  A    between atoms: O_16  and  C_10 
ROOT
ATOM      1  C   UNL d   1      56.996  -0.171  31.466  0.00  0.00     0.092 C 
ATOM      2  C   UNL d   1      56.731  -0.891  31.775  0.00  0.00     0.103 C 
ATOM      3  N   UNL d   1      56.469  -1.611  32.081  0.00  0.00    -0.191 NA
ENDROOT
BRANCH   1   4
ATOM      4  C   UNL d   1      57.563  -0.162  30.867  0.00  0.00     0.120 A 
ATOM      5  N   UNL d   1      57.638  -0.729  30.266  0.00  0.00    -0.238 NA
ATOM      6  C   UNL d   1      58.278  -0.505  29.788  0.00  0.00     0.088 A 
ATOM      7  C   UNL d   1      58.607  -0.853  29.118  0.00  0.00     0.020 A 
ATOM      8  C   UNL d   1      58.592   0.194  30.096  0.00  0.00     0.049 A 
ATOM      9  C   UNL d   1      59.257  -0.495  28.752  0.00  0.00     0.002 A 
ATOM     10  C   UNL d   1      59.576   0.203  29.054  0.00  0.00     0.001 A 
ATOM     11  C   UNL d   1      59.248   0.551  29.724  0.00  0.00     0.008 A 
ATOM     12  S   UNL d   1      58.149   0.404  30.762  0.00  0.00    -0.066 SA
ENDBRANCH   1   4
BRANCH   1  13
ATOM     13  C   UNL d   1      56.687   0.534  31.761  0.00  0.00     0.012 C 
BRANCH  13  14
ATOM     14  C   UNL d   1      56.363   0.560  32.514  0.00  0.00     0.001 A 
ATOM     15  C   UNL d   1      56.845   0.521  33.174  0.00  0.00     0.000 A 
ATOM     16  C   UNL d   1      56.523   0.548  33.933  0.00  0.00     0.005 A 
ATOM     17  C   UNL d   1      55.705   0.614  34.031  0.00  0.00     0.063 A 
ATOM     18  C   UNL d   1      55.213   0.654  33.372  0.00  0.00     0.005 A 
ATOM     19  C   UNL d   1      55.537   0.627  32.609  0.00  0.00     0.000 A 
BRANCH  17  20
ATOM     20  C   UNL d   1      55.383   0.640  34.790  0.00  0.00     0.296 C 
ATOM     21  O   UNL d   1      54.558   0.628  34.889  0.00  0.00    -0.259 OA
BRANCH  20  22
ATOM     22  O   UNL d   1      55.876   0.679  35.447  0.00  0.00    -0.296 OA
ATOM     23  C   UNL d   1      55.553   0.661  36.209  0.00  0.00     0.185 C 
ENDBRANCH  20  22
ENDBRANCH  17  20
ENDBRANCH  13  14
ENDBRANCH   1  13
TORSDOF 5
ENDMDL
MODEL 3
REMARK VINA RESULT:      -3.6      2.450      5.164
REMARK  5 active torsions:
REMARK  status: ('A' for Active; 'I' for Inactive)
REMARK    1  A    between atoms: C_3  and  C_1 
REMARK    2  A    between atoms: C_5  and  C_3 
REMARK    3  A    between atoms: C_13  and  C_5 
REMARK    4  A    between atoms: C_10  and  C_11 
REMARK    5  A    between atoms: O_16  and  C_10 
ROOT
ATOM      1  C   UNL d   1      58.679   0.203  29.567  0.00  0.00     0.092 C 
ATOM      2  C   UNL d   1      58.088   0.443  29.040  0.00  0.00     0.103 C 
ATOM      3  N   UNL d   1      57.499   0.678  28.511  0.00  0.00    -0.191 NA
ENDROOT
BRANCH   1   4
ATOM      4  C   UNL d   1      59.154  -0.447  29.387  0.00  0.00     0.120 A 
ATOM      5  N   UNL d   1      58.889  -1.229  29.305  0.00  0.00    -0.238 NA
ATOM      6  C   UNL d   1      59.548  -1.699  29.124  0.00  0.00     0.088 A 
ATOM      7  C   UNL d   1      59.620  -2.508  28.984  0.00  0.00     0.020 A 
ATOM      8  C   UNL d   1      60.210  -1.207  29.095  0.00  0.00     0.049 A 
ATOM      9  C   UNL d   1      60.364  -2.825  28.813  0.00  0.00     0.002 A 
ATOM     10  C   UNL d   1      61.031  -2.340  28.782  0.00  0.00     0.001 A 
ATOM     11  C   UNL d   1      60.959  -1.533  28.922  0.00  0.00     0.008 A 
ATOM     12  S   UNL d   1      59.965  -0.435  29.257  0.00  0.00    -0.066 SA
ENDBRANCH   1   4
BRANCH   1  13
ATOM     13  C   UNL d   1      58.786   0.618  30.270  0.00  0.00     0.012 C 
BRANCH  13  14
ATOM     14  C   UNL d   1      58.270   0.510  30.898  0.00  0.00     0.001 A 
ATOM     15  C   UNL d   1      57.472   0.387  30.762  0.00  0.00     0.000 A 
ATOM     16  C   UNL d   1      56.950   0.278  31.391  0.00  0.00     0.005 A 
ATOM     17  C   UNL d   1      57.232   0.292  32.168  0.00  0.00     0.063 A 
ATOM     18  C   UNL d   1      58.033   0.415  32.314  0.00  0.00     0.005 A 
ATOM     19  C   UNL d   1      58.558   0.525  31.681  0.00  0.00     0.000 A 
BRANCH  17  20
ATOM     20  C   UNL d   1      56.710   0.182  32.797  0.00  0.00     0.296 C 
ATOM     21  O   UNL d   1      56.751   0.682  33.460  0.00  0.00    -0.259 OA
BRANCH  20  22
ATOM     22  O   UNL d   1      56.149  -0.419  32.768  0.00  0.00    -0.296 OA
ATOM     23  C   UNL d   1      55.416  -0.320  33.140  0.00  0.00     0.185 C 
ENDBRANCH  20  22
ENDBRANCH  17  20
ENDBRANCH  13  14
ENDBRANCH   1  13
TORSDOF 5
ENDMDL
MODEL 4
REMARK VINA RESULT:      -1.6      9.379     10.864
REMARK  5 active torsions:
REMARK  status: ('A' for Active; 'I' for Inactive)
REMARK    1  A    between atoms: C_3  and  C_1 
REMARK    2  A    between atoms: C_5  and  C_3 
REMARK    3  A    between atoms: C_13  and  C_5 
REMARK    4  A    between atoms: C_10  and  C_11 
REMARK    5  A    between atoms: O_16  and  C_10 
ROOT
ATOM      1  C   UNL d   1      59.349  -9.809  32.267  0.00  0.00     0.092 C 
ATOM      2  C   UNL d   1      58.589  -9.805  32.594  0.00  0.00     0.103 C 
ATOM      3  N   UNL d   1      57.828  -9.801  32.915  0.00  0.00    -0.191 NA
ENDROOT
BRANCH   1   4
ATOM      4  C   UNL d   1      59.446  -9.804  31.448  0.00  0.00     0.120 A 
ATOM      5  N   UNL d   1      60.174  -9.785  31.050  0.00  0.00    -0.238 NA
ATOM      6  C   UNL d   1      60.014  -9.786  30.236  0.00  0.00     0.088 A 
ATOM      7  C   UNL d   1      60.515  -9.772  29.582  0.00  0.00     0.020 A 
ATOM      8  C   UNL d   1      59.195  -9.807  30.138  0.00  0.00     0.049 A 
ATOM      9  C   UNL d   1      60.188  -9.778  28.822  0.00  0.00     0.002 A 
ATOM     10  C   UNL d   1      59.370  -9.798  28.716  0.00  0.00     0.001 A 
ATOM     11  C   UNL d   1      58.871  -9.813  29.369  0.00  0.00     0.008 A 
ATOM     12  S   UNL d   1      58.846  -9.818  30.888  0.00  0.00    -0.066 SA
ENDBRANCH   1   4
BRANCH   1  13
ATOM     13  C   UNL d   1      60.003  -9.818  32.767  0.00  0.00     0.012 C 
BRANCH  13  14
ATOM     14  C   UNL d   1      59.980  -9.423  33.487  0.00  0.00     0.001 A 
ATOM     15  C   UNL d   1      60.424  -8.745  33.601  0.00  0.00     0.000 A 
ATOM     16  C   UNL d   1      60.403  -8.346  34.322  0.00  0.00     0.005 A 
ATOM     17  C   UNL d   1      59.931  -8.630  34.937  0.00  0.00     0.063 A 
ATOM     18  C   UNL d   1      59.482  -9.312  34.831  0.00  0.00     0.005 A 
ATOM     19  C   UNL d   1      59.502  -9.714  34.105  0.00  0.00     0.000 A 
BRANCH  17  20
ATOM     20  C   UNL d   1      59.911  -8.231  35.659  0.00  0.00     0.296 C 
ATOM     21  O   UNL d   1      60.476  -8.404  36.243  0.00  0.00    -0.259 OA
BRANCH  20  22
ATOM     22  O   UNL d   1      59.333  -7.661  35.800  0.00  0.00    -0.296 OA
ATOM     23  C   UNL d   1      59.502  -7.013  36.285  0.00  0.00     0.185 C 
ENDBRANCH  20  22
ENDBRANCH  17  20
ENDBRANCH  13  14
ENDBRANCH   1  13
TORSDOF 5
ENDMDL
