MODEL 1
REMARK VINA RESULT:      -5.3      0.000      0.000
REMARK  5 active torsions:
REMARK  status: ('A' for Active; 'I' for Inactive)
REMARK    1  A    between atoms: C_2  and  C_1 
REMARK    2  A    between atoms: C_3  and  C_1 
REMARK    3  A    between atoms: C_4  and  C_2 
REMARK    4  A    between atoms: C_6  and  C_3 
REMARK    5  A    between atoms: P_5  and  C_4 
ROOT
ATOM      1  C   UNL d   1      56.063  -0.070  32.823  0.00  0.00     0.389 C 
ATOM      2  F   UNL d   1      56.566  -0.472  33.330  0.00  0.00    -0.191 F 
ATOM      3  F   UNL d   1      55.548   0.342  32.300  0.00  0.00    -0.191 F 
ENDROOT
BRANCH   1   4
ATOM      4  C   UNL d   1      56.566  -0.261  32.168  0.00  0.00     0.387 C 
ATOM      5  F   UNL d   1      56.722  -0.995  32.514  0.00  0.00    -0.190 F 
ATOM      6  F   UNL d   1      56.402   0.491  31.821  0.00  0.00    -0.190 F 
BRANCH   4   7
ATOM      7  C   UNL d   1      57.056  -0.455  31.537  0.00  0.00     0.329 C 
ATOM      8  O   UNL d   1      57.058  -1.220  31.222  0.00  0.00    -0.275 OA
BRANCH   7   9
ATOM      9  P   UNL d   1      57.564   0.123  31.200  0.00  0.00     0.339 P 
ATOM     10  O   UNL d   1      57.026   0.255  30.595  0.00  0.00    -0.634 OA
ATOM     11  O   UNL d   1      58.111  -0.008  31.811  0.00  0.00    -0.634 OA
ATOM     12  O   UNL d   1      58.069   0.682  30.886  0.00  0.00    -0.634 OA
ENDBRANCH   7   9
ENDBRANCH   4   7
ENDBRANCH   1   4
BRANCH   1  13
ATOM     13  C   UNL d   1      55.569   0.120  33.452  0.00  0.00     0.393 C 
ATOM     14  F   UNL d   1      54.934  -0.234  33.060  0.00  0.00    -0.188 F 
ATOM     15  F   UNL d   1      56.210   0.483  33.857  0.00  0.00    -0.188 F 
BRANCH  13  16
ATOM     16  C   UNL d   1      55.069   0.309  34.081  0.00  0.00     0.322 C 
ATOM     17  F   UNL d   1      54.272   0.469  33.937  0.00  0.00    -0.171 F 
ATOM     18  F   UNL d   1      55.361   0.340  34.854  0.00  0.00    -0.171 F 
ENDBRANCH  13  16
ENDBRANCH   1  13
TORSDOF 5
ENDMDL
MODEL 2
REMARK VINA RESULT:      -5.1      1.136      1.772
REMARK  5 active torsions:
REMARK  status: ('A' for Active; 'I' for Inactive)
REMARK    1  A    between atoms: C_2  and  C_1 
REMARK    2  A    between atoms: C_3  and  C_1 
REMARK    3  A    between atoms: C_4  and  C_2 
REMARK    4  A    between atoms: C_6  and  C_3 
REMARK    5  A    between atoms: P_5  and  C_4 
ROOT
ATOM      1  C   UNL d   1      56.777  -0.457  31.939  0.00  0.00     0.389 C 
ATOM      2  F   UNL d   1      56.987  -1.209  31.689  0.00  0.00    -0.191 F 
ATOM      3  F   UNL d   1      56.563   0.316  32.194  0.00  0.00    -0.191 F 
ENDROOT
BRANCH   1   4
ATOM      4  C   UNL d   1      57.358  -0.120  31.422  0.00  0.00     0.387 C 
ATOM      5  F   UNL d   1      57.336   0.577  31.865  0.00  0.00    -0.190 F 
ATOM      6  F   UNL d   1      57.375  -0.835  30.973  0.00  0.00    -0.190 F 
BRANCH   4   7
ATOM      7  C   UNL d   1      57.921   0.215  30.925  0.00  0.00     0.329 C 
ATOM      8  O   UNL d   1      58.532   0.682  31.231  0.00  0.00    -0.275 OA
BRANCH   7   9
ATOM      9  P   UNL d   1      57.886   0.089  30.096  0.00  0.00     0.339 P 
ATOM     10  O   UNL d   1      58.456  -0.498  30.152  0.00  0.00    -0.634 OA
ATOM     11  O   UNL d   1      57.307   0.682  30.034  0.00  0.00    -0.634 OA
ATOM     12  O   UNL d   1      57.838  -0.022  29.288  0.00  0.00    -0.634 OA
ENDBRANCH   7   9
ENDBRANCH   4   7
ENDBRANCH   1   4
BRANCH   1  13
ATOM     13  C   UNL d   1      56.211  -0.775  32.443  0.00  0.00     0.393 C 
ATOM     14  F   UNL d   1      55.790  -0.065  32.417  0.00  0.00    -0.188 F 
ATOM     15  F   UNL d   1      56.634  -1.500  32.475  0.00  0.00    -0.188 F 
BRANCH  13  16
ATOM     16  C   UNL d   1      55.640  -1.090  32.949  0.00  0.00     0.322 C 
ATOM     17  F   UNL d   1      55.213  -0.588  33.447  0.00  0.00    -0.171 F 
ATOM     18  F   UNL d   1      55.494  -1.903  32.962  0.00  0.00    -0.171 F 
ENDBRANCH  13  16
ENDBRANCH   1  13
TORSDOF 5
ENDMDL
MODEL 3
REMARK VINA RESULT:      -5.0      2.063      3.189
REMARK  5 active torsions:
REMARK  status: ('A' for Active; 'I' for Inactive)
REMARK    1  A    between atoms: C_2  and  C_1 
REMARK    2  A    between atoms: C_3  and  C_1 
REMARK    3  A    between atoms: C_4  and  C_2 
REMARK    4  A    between atoms: C_6  and  C_3 
REMARK    5  A    between atoms: P_5  and  C_4 
ROOT
ATOM      1  C   UNL d   1      57.059  -0.339  31.686  0.00  0.00     0.389 C 
ATOM      2  F   UNL d   1      57.424   0.278  32.085  0.00  0.00    -0.191 F 
ATOM      3  F   UNL d   1      56.682  -0.972  31.279  0.00  0.00    -0.191 F 
ENDROOT
BRANCH   1   4
ATOM      4  C   UNL d   1      56.635  -0.547  32.391  0.00  0.00     0.387 C 
ATOM      5  F   UNL d   1      56.066  -0.924  31.927  0.00  0.00    -0.190 F 
ATOM      6  F   UNL d   1      57.222  -0.160  32.859  0.00  0.00    -0.190 F 
BRANCH   4   7
ATOM      7  C   UNL d   1      56.218  -0.753  33.068  0.00  0.00     0.329 C 
ATOM      8  O   UNL d   1      56.296  -1.507  33.401  0.00  0.00    -0.275 OA
BRANCH   7   9
ATOM      9  P   UNL d   1      55.704  -0.200  33.436  0.00  0.00     0.339 P 
ATOM     10  O   UNL d   1      56.323   0.085  33.893  0.00  0.00    -0.634 OA
ATOM     11  O   UNL d   1      55.074  -0.485  32.976  0.00  0.00    -0.634 OA
ATOM     12  O   UNL d   1      55.192   0.332  33.783  0.00  0.00    -0.634 OA
ENDBRANCH   7   9
ENDBRANCH   4   7
ENDBRANCH   1   4
BRANCH   1  13
ATOM     13  C   UNL d   1      57.465  -0.144  30.998  0.00  0.00     0.393 C 
ATOM     14  F   UNL d   1      57.660  -0.939  30.889  0.00  0.00    -0.188 F 
ATOM     15  F   UNL d   1      57.270   0.667  31.103  0.00  0.00    -0.188 F 
BRANCH  13  16
ATOM     16  C   UNL d   1      57.873   0.047  30.307  0.00  0.00     0.322 C 
ATOM     17  F   UNL d   1      57.584   0.641  29.812  0.00  0.00    -0.171 F 
ATOM     18  F   UNL d   1      58.569  -0.352  30.107  0.00  0.00    -0.171 F 
ENDBRANCH  13  16
ENDBRANCH   1  13
TORSDOF 5
ENDMDL
