MODEL 1
REMARK VINA RESULT:      24.0      0.000      0.000
REMARK  4 active torsions:
REMARK  status: ('A' for Active; 'I' for Inactive)
REMARK    1  A    between atoms: N_2  and  S_1 
REMARK    2  A    between atoms: C_4  and  S_1 
REMARK    3  A    between atoms: C_11  and  C_3 
REMARK    4  A    between atoms: O_17  and  C_9 
ROOT
ATOM      1  S   UNL d   1      45.953 -17.911  42.841  0.00  0.00     0.273 S 
ATOM      2  O   UNL d   1      46.647 -18.048  43.277  0.00  0.00    -0.200 OA
ATOM      3  O   UNL d   1      45.266 -17.776  42.410  0.00  0.00    -0.200 OA
ENDROOT
BRANCH   1   4
ATOM      4  N   UNL d   1      46.160 -18.514  42.322  0.00  0.00    -0.213 N 
ATOM      5  C   UNL d   1      46.208 -19.316  42.503  0.00  0.00     0.157 A 
ATOM      6  N   UNL d   1      46.434 -19.722  41.821  0.00  0.00    -0.224 NA
ATOM      7  C   UNL d   1      46.527 -19.165  41.212  0.00  0.00     0.120 A 
ATOM      8  C   UNL d   1      46.358 -18.420  41.522  0.00  0.00     0.114 A 
BRANCH   5   9
ATOM      9  C   UNL d   1      46.055 -19.654  43.242  0.00  0.00     0.035 A 
ATOM     10  C   UNL d   1      45.322 -19.989  43.401  0.00  0.00     0.003 A 
ATOM     11  C   UNL d   1      45.165 -20.328  44.139  0.00  0.00     0.000 A 
ATOM     12  C   UNL d   1      45.759 -20.328  44.725  0.00  0.00     0.000 A 
ATOM     13  C   UNL d   1      46.492 -19.993  44.566  0.00  0.00     0.000 A 
ATOM     14  C   UNL d   1      46.645 -19.655  43.827  0.00  0.00     0.003 A 
ENDBRANCH   5   9
ENDBRANCH   1   4
BRANCH   1  15
ATOM     15  C   UNL d   1      45.743 -17.302  43.366  0.00  0.00     0.106 A 
ATOM     16  C   UNL d   1      45.930 -16.513  43.183  0.00  0.00     0.039 A 
ATOM     17  C   UNL d   1      45.723 -15.910  43.702  0.00  0.00     0.122 A 
ATOM     18  C   UNL d   1      45.328 -16.092  44.407  0.00  0.00     0.162 A 
ATOM     19  C   UNL d   1      45.142 -16.874  44.589  0.00  0.00     0.032 A 
ATOM     20  F   UNL d   1      45.120 -15.489  44.927  0.00  0.00    -0.202 F 
ATOM     21  C   UNL d   1      45.350 -17.474  44.068  0.00  0.00     0.015 A 
BRANCH  17  22
ATOM     22  O   UNL d   1      45.909 -15.129  43.520  0.00  0.00    -0.326 OA
ATOM     23  C   UNL d   1      45.725 -14.528  44.049  0.00  0.00     0.181 C 
ENDBRANCH  17  22
ENDBRANCH   1  15
TORSDOF 4
ENDMDL
MODEL 2
REMARK VINA RESULT:      24.8      1.150      2.188
REMARK  4 active torsions:
REMARK  status: ('A' for Active; 'I' for Inactive)
REMARK    1  A    between atoms: N_2  and  S_1 
REMARK    2  A    between atoms: C_4  and  S_1 
REMARK    3  A    between atoms: C_11  and  C_3 
REMARK    4  A    between atoms: O_17  and  C_9 
ROOT
ATOM      1  S   UNL d   1      46.089 -17.925  44.276  0.00  0.00     0.273 S 
ATOM      2  O   UNL d   1      45.525 -17.968  44.885  0.00  0.00    -0.200 OA
ATOM      3  O   UNL d   1      46.646 -17.882  43.673  0.00  0.00    -0.200 OA
ENDROOT
BRANCH   1   4
ATOM      4  N   UNL d   1      46.157 -18.744  44.281  0.00  0.00    -0.213 N 
ATOM      5  C   UNL d   1      46.119 -19.239  43.624  0.00  0.00     0.157 A 
ATOM      6  N   UNL d   1      46.214 -20.017  43.880  0.00  0.00    -0.224 NA
ATOM      7  C   UNL d   1      46.311 -20.004  44.705  0.00  0.00     0.120 A 
ATOM      8  C   UNL d   1      46.275 -19.218  44.952  0.00  0.00     0.114 A 
BRANCH   5   9
ATOM      9  C   UNL d   1      46.006 -18.995  42.842  0.00  0.00     0.035 A 
ATOM     10  C   UNL d   1      46.647 -18.921  42.334  0.00  0.00     0.003 A 
ATOM     11  C   UNL d   1      46.539 -18.677  41.551  0.00  0.00     0.000 A 
ATOM     12  C   UNL d   1      45.768 -18.505  41.278  0.00  0.00     0.000 A 
ATOM     13  C   UNL d   1      45.128 -18.579  41.786  0.00  0.00     0.000 A 
ATOM     14  C   UNL d   1      45.241 -18.823  42.568  0.00  0.00     0.003 A 
ENDBRANCH   5   9
ENDBRANCH   1   4
BRANCH   1  15
ATOM     15  C   UNL d   1      46.020 -17.097  44.271  0.00  0.00     0.106 A 
ATOM     16  C   UNL d   1      45.358 -16.732  44.616  0.00  0.00     0.039 A 
ATOM     17  C   UNL d   1      45.290 -15.913  44.611  0.00  0.00     0.122 A 
ATOM     18  C   UNL d   1      45.883 -15.453  44.261  0.00  0.00     0.162 A 
ATOM     19  C   UNL d   1      46.540 -15.813  43.918  0.00  0.00     0.032 A 
ATOM     20  F   UNL d   1      45.815 -14.633  44.256  0.00  0.00    -0.202 F 
ATOM     21  C   UNL d   1      46.605 -16.633  43.925  0.00  0.00     0.015 A 
BRANCH  17  22
ATOM     22  O   UNL d   1      44.633 -15.553  44.954  0.00  0.00    -0.326 OA
ATOM     23  C   UNL d   1      44.359 -14.835  44.664  0.00  0.00     0.181 C 
ENDBRANCH  17  22
ENDBRANCH   1  15
TORSDOF 4
ENDMDL
MODEL 3
REMARK VINA RESULT:      26.7      2.725      5.350
REMARK  4 active torsions:
REMARK  status: ('A' for Active; 'I' for Inactive)
REMARK    1  A    between atoms: N_2  and  S_1 
REMARK    2  A    between atoms: C_4  and  S_1 
REMARK    3  A    between atoms: C_11  and  C_3 
REMARK    4  A    between atoms: O_17  and  C_9 
ROOT
ATOM      1  S   UNL d   1      45.743 -14.172  44.464  0.00  0.00     0.273 S 
ATOM      2  O   UNL d   1      46.384 -14.360  43.969  0.00  0.00    -0.200 OA
ATOM      3  O   UNL d   1      45.110 -13.985  44.954  0.00  0.00    -0.200 OA
ENDROOT
BRANCH   1   4
ATOM      4  N   UNL d   1      45.986 -13.386  44.478  0.00  0.00    -0.213 N 
ATOM      5  C   UNL d   1      45.676 -12.774  44.024  0.00  0.00     0.157 A 
ATOM      6  N   UNL d   1      46.080 -12.080  44.213  0.00  0.00    -0.224 NA
ATOM      7  C   UNL d   1      46.647 -12.265  44.792  0.00  0.00     0.120 A 
ATOM      8  C   UNL d   1      46.588 -13.072  44.955  0.00  0.00     0.114 A 
BRANCH   5   9
ATOM      9  C   UNL d   1      45.064 -12.845  43.472  0.00  0.00     0.035 A 
ATOM     10  C   UNL d   1      45.227 -13.052  42.695  0.00  0.00     0.003 A 
ATOM     11  C   UNL d   1      44.618 -13.124  42.140  0.00  0.00     0.000 A 
ATOM     12  C   UNL d   1      43.830 -12.983  42.376  0.00  0.00     0.000 A 
ATOM     13  C   UNL d   1      43.666 -12.775  43.153  0.00  0.00     0.000 A 
ATOM     14  C   UNL d   1      44.278 -12.705  43.705  0.00  0.00     0.003 A 
ENDBRANCH   5   9
ENDBRANCH   1   4
BRANCH   1  15
ATOM     15  C   UNL d   1      45.498 -14.966  44.450  0.00  0.00     0.106 A 
ATOM     16  C   UNL d   1      45.992 -15.547  44.122  0.00  0.00     0.039 A 
ATOM     17  C   UNL d   1      45.750 -16.333  44.108  0.00  0.00     0.122 A 
ATOM     18  C   UNL d   1      45.013 -16.541  44.423  0.00  0.00     0.162 A 
ATOM     19  C   UNL d   1      44.522 -15.965  44.749  0.00  0.00     0.032 A 
ATOM     20  F   UNL d   1      44.770 -17.327  44.409  0.00  0.00    -0.202 F 
ATOM     21  C   UNL d   1      44.767 -15.181  44.761  0.00  0.00     0.015 A 
BRANCH  17  22
ATOM     22  O   UNL d   1      46.240 -16.909  43.782  0.00  0.00    -0.326 OA
ATOM     23  C   UNL d   1      46.289 -17.652  44.128  0.00  0.00     0.181 C 
ENDBRANCH  17  22
ENDBRANCH   1  15
TORSDOF 4
ENDMDL
