MODEL 1
REMARK VINA RESULT:      -2.8      0.000      0.000
REMARK  2 active torsions:
REMARK  status: ('A' for Active; 'I' for Inactive)
REMARK    1  A    between atoms: N_7  and  C_2 
REMARK    2  A    between atoms: C_10  and  N_7 
ROOT
ATOM      1  N   UNL d   1      32.014  16.313 -23.514  0.00  0.00     0.002 N 
ATOM      2  C   UNL d   1      31.245  16.321 -23.812  0.00  0.00     0.773 A 
ATOM      3  C   UNL d   1      32.449  17.011 -23.508  0.00  0.00     0.317 A 
ATOM      4  N   UNL d   1      30.914  17.028 -24.104  0.00  0.00     0.046 NA
ATOM      5  N   UNL d   1      31.356  17.717 -24.093  0.00  0.00    -0.127 NA
ATOM      6  C   UNL d   1      32.118  17.718 -23.799  0.00  0.00     0.162 A 
ATOM      7  O   UNL d   1      33.241  16.991 -23.198  0.00  0.00    -0.263 OA
ATOM      8  N   UNL d   1      32.339  15.619 -23.227  0.00  0.00    -0.023 N 
ATOM      9  C   UNL d   1      32.568  18.427 -23.790  0.00  0.00     0.028 C 
ENDROOT
BRANCH   2  10
ATOM     10  N   UNL d   1      30.804  15.595 -23.814  0.00  0.00    -0.058 NA
BRANCH  10  11
ATOM     11  C   UNL d   1      29.973  15.595 -23.754  0.00  0.00     0.100 A 
ATOM     12  C   UNL d   1      29.525  15.568 -24.436  0.00  0.00     0.020 A 
ATOM     13  C   UNL d   1      28.690  15.568 -24.376  0.00  0.00     0.002 A 
ATOM     14  C   UNL d   1      28.341  15.595 -23.638  0.00  0.00     0.000 A 
ATOM     15  C   UNL d   1      28.791  15.622 -22.961  0.00  0.00     0.002 A 
ATOM     16  C   UNL d   1      29.626  15.622 -23.020  0.00  0.00     0.020 A 
ENDBRANCH  10  11
ENDBRANCH   2  10
TORSDOF 2
ENDMDL
MODEL 2
REMARK VINA RESULT:      -2.8      1.341      3.456
REMARK  2 active torsions:
REMARK  status: ('A' for Active; 'I' for Inactive)
REMARK    1  A    between atoms: N_7  and  C_2 
REMARK    2  A    between atoms: C_10  and  N_7 
ROOT
ATOM      1  N   UNL d   1      30.557  16.097 -23.611  0.00  0.00     0.002 N 
ATOM      2  C   UNL d   1      30.946  16.704 -24.012  0.00  0.00     0.773 A 
ATOM      3  C   UNL d   1      29.735  16.083 -23.606  0.00  0.00     0.317 A 
ATOM      4  N   UNL d   1      30.511  17.295 -24.406  0.00  0.00     0.046 NA
ATOM      5  N   UNL d   1      29.693  17.271 -24.394  0.00  0.00    -0.127 NA
ATOM      6  C   UNL d   1      29.299  16.674 -23.999  0.00  0.00     0.162 A 
ATOM      7  O   UNL d   1      29.344  15.453 -23.190  0.00  0.00    -0.263 OA
ATOM      8  N   UNL d   1      30.984  15.516 -23.225  0.00  0.00    -0.023 N 
ATOM      9  C   UNL d   1      28.460  16.654 -23.990  0.00  0.00     0.028 C 
ENDROOT
BRANCH   2  10
ATOM     10  N   UNL d   1      31.796  16.709 -24.012  0.00  0.00    -0.058 NA
BRANCH  10  11
ATOM     11  C   UNL d   1      32.223  17.424 -24.030  0.00  0.00     0.100 A 
ATOM     12  C   UNL d   1      32.413  17.793 -23.328  0.00  0.00     0.020 A 
ATOM     13  C   UNL d   1      32.841  18.511 -23.346  0.00  0.00     0.002 A 
ATOM     14  C   UNL d   1      33.061  18.829 -24.066  0.00  0.00     0.000 A 
ATOM     15  C   UNL d   1      32.869  18.458 -24.765  0.00  0.00     0.002 A 
ATOM     16  C   UNL d   1      32.441  17.740 -24.746  0.00  0.00     0.020 A 
ENDBRANCH  10  11
ENDBRANCH   2  10
TORSDOF 2
ENDMDL
MODEL 3
REMARK VINA RESULT:      -2.6      1.752      2.613
REMARK  2 active torsions:
REMARK  status: ('A' for Active; 'I' for Inactive)
REMARK    1  A    between atoms: N_7  and  C_2 
REMARK    2  A    between atoms: C_10  and  N_7 
ROOT
ATOM      1  N   UNL d   1      32.872  18.748 -24.128  0.00  0.00     0.002 N 
ATOM      2  C   UNL d   1      32.690  18.036 -23.753  0.00  0.00     0.773 A 
ATOM      3  C   UNL d   1      33.054  19.407 -23.670  0.00  0.00     0.317 A 
ATOM      4  N   UNL d   1      32.690  17.985 -22.922  0.00  0.00     0.046 NA
ATOM      5  N   UNL d   1      32.873  18.648 -22.476  0.00  0.00    -0.127 NA
ATOM      6  C   UNL d   1      33.054  19.356 -22.839  0.00  0.00     0.162 A 
ATOM      7  O   UNL d   1      33.240  20.135 -24.067  0.00  0.00    -0.263 OA
ATOM      8  N   UNL d   1      32.871  18.798 -24.944  0.00  0.00    -0.023 N 
ATOM      9  C   UNL d   1      33.241  20.032 -22.377  0.00  0.00     0.028 C 
ENDROOT
BRANCH   2  10
ATOM     10  N   UNL d   1      32.503  17.361 -24.235  0.00  0.00    -0.058 NA
BRANCH  10  11
ATOM     11  C   UNL d   1      32.014  16.750 -23.950  0.00  0.00     0.100 A 
ATOM     12  C   UNL d   1      31.204  16.832 -24.001  0.00  0.00     0.020 A 
ATOM     13  C   UNL d   1      30.713  16.217 -23.714  0.00  0.00     0.002 A 
ATOM     14  C   UNL d   1      31.054  15.549 -23.391  0.00  0.00     0.000 A 
ATOM     15  C   UNL d   1      31.863  15.472 -23.342  0.00  0.00     0.002 A 
ATOM     16  C   UNL d   1      32.354  16.086 -23.629  0.00  0.00     0.020 A 
ENDBRANCH  10  11
ENDBRANCH   2  10
TORSDOF 2
ENDMDL
MODEL 4
REMARK VINA RESULT:      -1.9      3.094      4.206
REMARK  2 active torsions:
REMARK  status: ('A' for Active; 'I' for Inactive)
REMARK    1  A    between atoms: N_7  and  C_2 
REMARK    2  A    between atoms: C_10  and  N_7 
ROOT
ATOM      1  N   UNL d   1      33.239  19.738 -21.909  0.00  0.00     0.002 N 
ATOM      2  C   UNL d   1      33.240  19.567 -22.716  0.00  0.00     0.773 A 
ATOM      3  C   UNL d   1      33.239  20.524 -21.665  0.00  0.00     0.317 A 
ATOM      4  N   UNL d   1      33.240  20.183 -23.277  0.00  0.00     0.046 NA
ATOM      5  N   UNL d   1      33.239  20.962 -23.023  0.00  0.00    -0.127 NA
ATOM      6  C   UNL d   1      33.238  21.140 -22.226  0.00  0.00     0.162 A 
ATOM      7  O   UNL d   1      33.238  20.688 -20.831  0.00  0.00    -0.263 OA
ATOM      8  N   UNL d   1      33.240  19.133 -21.358  0.00  0.00    -0.023 N 
ATOM      9  C   UNL d   1      33.237  21.940 -21.971  0.00  0.00     0.028 C 
ENDROOT
BRANCH   2  10
ATOM     10  N   UNL d   1      33.241  18.753 -22.958  0.00  0.00    -0.058 NA
BRANCH  10  11
ATOM     11  C   UNL d   1      32.855  18.509 -23.654  0.00  0.00     0.100 A 
ATOM     12  C   UNL d   1      32.117  18.165 -23.601  0.00  0.00     0.020 A 
ATOM     13  C   UNL d   1      31.729  17.920 -24.301  0.00  0.00     0.002 A 
ATOM     14  C   UNL d   1      32.096  18.030 -25.022  0.00  0.00     0.000 A 
ATOM     15  C   UNL d   1      32.832  18.373 -25.071  0.00  0.00     0.002 A 
ATOM     16  C   UNL d   1      33.220  18.618 -24.371  0.00  0.00     0.020 A 
ENDBRANCH  10  11
ENDBRANCH   2  10
TORSDOF 2
ENDMDL
MODEL 5
REMARK VINA RESULT:      -1.6      2.132      4.288
REMARK  2 active torsions:
REMARK  status: ('A' for Active; 'I' for Inactive)
REMARK    1  A    between atoms: N_7  and  C_2 
REMARK    2  A    between atoms: C_10  and  N_7 
ROOT
ATOM      1  N   UNL d   1      32.599  17.711 -23.246  0.00  0.00     0.002 N 
ATOM      2  C   UNL d   1      32.669  18.532 -23.296  0.00  0.00     0.773 A 
ATOM      3  C   UNL d   1      32.058  17.325 -23.730  0.00  0.00     0.317 A 
ATOM      4  N   UNL d   1      32.196  18.963 -23.829  0.00  0.00     0.046 NA
ATOM      5  N   UNL d   1      31.660  18.568 -24.306  0.00  0.00    -0.127 NA
ATOM      6  C   UNL d   1      31.585  17.756 -24.263  0.00  0.00     0.162 A 
ATOM      7  O   UNL d   1      31.995  16.479 -23.670  0.00  0.00    -0.263 OA
ATOM      8  N   UNL d   1      33.063  17.288 -22.722  0.00  0.00    -0.023 N 
ATOM      9  C   UNL d   1      31.034  17.355 -24.754  0.00  0.00     0.028 C 
ENDROOT
BRANCH   2  10
ATOM     10  N   UNL d   1      33.231  18.922 -22.792  0.00  0.00    -0.058 NA
BRANCH  10  11
ATOM     11  C   UNL d   1      33.133  19.720 -22.572  0.00  0.00     0.100 A 
ATOM     12  C   UNL d   1      33.241  20.303 -23.133  0.00  0.00     0.020 A 
ATOM     13  C   UNL d   1      33.143  21.104 -22.912  0.00  0.00     0.002 A 
ATOM     14  C   UNL d   1      32.941  21.286 -22.142  0.00  0.00     0.000 A 
ATOM     15  C   UNL d   1      32.834  20.701 -21.586  0.00  0.00     0.002 A 
ATOM     16  C   UNL d   1      32.932  19.900 -21.806  0.00  0.00     0.020 A 
ENDBRANCH  10  11
ENDBRANCH   2  10
TORSDOF 2
ENDMDL
MODEL 6
REMARK VINA RESULT:      -1.5      1.416      2.027
REMARK  2 active torsions:
REMARK  status: ('A' for Active; 'I' for Inactive)
REMARK    1  A    between atoms: N_7  and  C_2 
REMARK    2  A    between atoms: C_10  and  N_7 
ROOT
ATOM      1  N   UNL d   1      32.808  18.030 -23.449  0.00  0.00     0.002 N 
ATOM      2  C   UNL d   1      32.599  17.546 -24.084  0.00  0.00     0.773 A 
ATOM      3  C   UNL d   1      33.019  18.812 -23.593  0.00  0.00     0.317 A 
ATOM      4  N   UNL d   1      32.604  17.847 -24.861  0.00  0.00     0.046 NA
ATOM      5  N   UNL d   1      32.816  18.627 -24.993  0.00  0.00    -0.127 NA
ATOM      6  C   UNL d   1      33.023  19.112 -24.370  0.00  0.00     0.162 A 
ATOM      7  O   UNL d   1      33.232  19.301 -22.931  0.00  0.00    -0.263 OA
ATOM      8  N   UNL d   1      32.804  17.735 -22.686  0.00  0.00    -0.023 N 
ATOM      9  C   UNL d   1      33.240  19.911 -24.510  0.00  0.00     0.028 C 
ENDROOT
BRANCH   2  10
ATOM     10  N   UNL d   1      32.383  16.740 -23.925  0.00  0.00    -0.058 NA
BRANCH  10  11
ATOM     11  C   UNL d   1      31.664  16.424 -24.204  0.00  0.00     0.100 A 
ATOM     12  C   UNL d   1      31.678  15.881 -24.813  0.00  0.00     0.020 A 
ATOM     13  C   UNL d   1      30.956  15.564 -25.093  0.00  0.00     0.002 A 
ATOM     14  C   UNL d   1      30.253  15.803 -24.752  0.00  0.00     0.000 A 
ATOM     15  C   UNL d   1      30.244  16.344 -24.145  0.00  0.00     0.002 A 
ATOM     16  C   UNL d   1      30.966  16.662 -23.864  0.00  0.00     0.020 A 
ENDBRANCH  10  11
ENDBRANCH   2  10
TORSDOF 2
ENDMDL
MODEL 7
REMARK VINA RESULT:      -1.2      4.749      6.024
REMARK  2 active torsions:
REMARK  status: ('A' for Active; 'I' for Inactive)
REMARK    1  A    between atoms: N_7  and  C_2 
REMARK    2  A    between atoms: C_10  and  N_7 
ROOT
ATOM      1  N   UNL d   1      32.888  21.740 -20.557  0.00  0.00     0.002 N 
ATOM      2  C   UNL d   1      32.881  21.412 -21.314  0.00  0.00     0.773 A 
ATOM      3  C   UNL d   1      32.543  22.476 -20.435  0.00  0.00     0.317 A 
ATOM      4  N   UNL d   1      32.527  21.823 -21.947  0.00  0.00     0.046 NA
ATOM      5  N   UNL d   1      32.186  22.555 -21.814  0.00  0.00    -0.127 NA
ATOM      6  C   UNL d   1      32.189  22.886 -21.067  0.00  0.00     0.162 A 
ATOM      7  O   UNL d   1      32.557  22.803 -19.651  0.00  0.00    -0.263 OA
ATOM      8  N   UNL d   1      33.236  21.336 -19.936  0.00  0.00    -0.023 N 
ATOM      9  C   UNL d   1      31.838  23.638 -20.936  0.00  0.00     0.028 C 
ENDROOT
BRANCH   2  10
ATOM     10  N   UNL d   1      33.240  20.651 -21.430  0.00  0.00    -0.058 NA
BRANCH  10  11
ATOM     11  C   UNL d   1      33.126  20.223 -22.135  0.00  0.00     0.100 A 
ATOM     12  C   UNL d   1      32.919  19.435 -22.094  0.00  0.00     0.020 A 
ATOM     13  C   UNL d   1      32.804  19.005 -22.803  0.00  0.00     0.002 A 
ATOM     14  C   UNL d   1      32.902  19.382 -23.521  0.00  0.00     0.000 A 
ATOM     15  C   UNL d   1      33.109  20.168 -23.558  0.00  0.00     0.002 A 
ATOM     16  C   UNL d   1      33.224  20.598 -22.849  0.00  0.00     0.020 A 
ENDBRANCH  10  11
ENDBRANCH   2  10
TORSDOF 2
ENDMDL
MODEL 8
REMARK VINA RESULT:      -0.1      7.105      8.447
REMARK  2 active torsions:
REMARK  status: ('A' for Active; 'I' for Inactive)
REMARK    1  A    between atoms: N_7  and  C_2 
REMARK    2  A    between atoms: C_10  and  N_7 
ROOT
ATOM      1  N   UNL d   1      32.173  22.336 -20.123  0.00  0.00     0.002 N 
ATOM      2  C   UNL d   1      32.759  22.630 -19.622  0.00  0.00     0.773 A 
ATOM      3  C   UNL d   1      32.069  22.680 -20.863  0.00  0.00     0.317 A 
ATOM      4  N   UNL d   1      33.239  23.267 -19.863  0.00  0.00     0.046 NA
ATOM      5  N   UNL d   1      33.126  23.602 -20.602  0.00  0.00    -0.127 NA
ATOM      6  C   UNL d   1      32.548  23.317 -21.104  0.00  0.00     0.162 A 
ATOM      7  O   UNL d   1      31.462  22.369 -21.370  0.00  0.00    -0.263 OA
ATOM      8  N   UNL d   1      31.703  21.711 -19.886  0.00  0.00    -0.023 N 
ATOM      9  C   UNL d   1      32.437  23.663 -21.860  0.00  0.00     0.028 C 
ENDROOT
BRANCH   2  10
ATOM     10  N   UNL d   1      32.859  22.268 -18.859  0.00  0.00    -0.058 NA
BRANCH  10  11
ATOM     11  C   UNL d   1      32.747  22.703 -18.157  0.00  0.00     0.100 A 
ATOM     12  C   UNL d   1      33.240  22.567 -17.522  0.00  0.00     0.020 A 
ATOM     13  C   UNL d   1      33.128  23.004 -16.817  0.00  0.00     0.002 A 
ATOM     14  C   UNL d   1      32.527  23.557 -16.779  0.00  0.00     0.000 A 
ATOM     15  C   UNL d   1      32.038  23.689 -17.416  0.00  0.00     0.002 A 
ATOM     16  C   UNL d   1      32.150  23.253 -18.121  0.00  0.00     0.020 A 
ENDBRANCH  10  11
ENDBRANCH   2  10
TORSDOF 2
ENDMDL
