MODEL 1
REMARK VINA RESULT:      20.9      0.000      0.000
REMARK  1 active torsions:
REMARK  status: ('A' for Active; 'I' for Inactive)
REMARK    1  A    between atoms: C_9  and  C_1 
ROOT
ATOM      1  C   UNL d   1      46.308 -18.588  43.500  0.00  0.00     0.087 A 
ATOM      2  N   UNL d   1      46.332 -18.988  44.245  0.00  0.00    -0.191 NA
ATOM      3  C   UNL d   1      46.413 -19.005  42.805  0.00  0.00     0.036 A 
ATOM      4  C   UNL d   1      46.470 -19.840  44.237  0.00  0.00     0.369 A 
ATOM      5  N   UNL d   1      46.573 -20.223  43.484  0.00  0.00    -0.191 NA
ATOM      6  C   UNL d   1      46.545 -19.814  42.797  0.00  0.00     0.088 A 
ATOM      7  C   UNL d   1      46.381 -18.562  42.086  0.00  0.00     0.014 A 
ATOM      8  O   UNL d   1      46.510 -20.330  44.955  0.00  0.00    -0.242 OA
ATOM      9  C   UNL d   1      46.647 -20.198  42.070  0.00  0.00     0.020 A 
ATOM     10  C   UNL d   1      46.481 -18.936  41.370  0.00  0.00     0.058 A 
ATOM     11  C   UNL d   1      46.619 -19.788  41.362  0.00  0.00     0.013 A 
ATOM     12 CL   UNL d   1      46.446 -18.473  40.652  0.00  0.00    -0.082 Cl
ENDROOT
BRANCH   1  13
ATOM     13  C   UNL d   1      46.182 -17.810  43.507  0.00  0.00     0.018 A 
ATOM     14  C   UNL d   1      45.589 -17.504  43.983  0.00  0.00     0.002 A 
ATOM     15  C   UNL d   1      45.426 -16.698  44.018  0.00  0.00     0.000 A 
ATOM     16  C   UNL d   1      45.911 -16.143  43.523  0.00  0.00     0.000 A 
ATOM     17  C   UNL d   1      46.503 -16.472  43.052  0.00  0.00     0.000 A 
ATOM     18  C   UNL d   1      46.636 -17.292  43.044  0.00  0.00     0.002 A 
ENDBRANCH   1  13
TORSDOF 1
ENDMDL
