MODEL 1
REMARK VINA RESULT:      21.6      0.000      0.000
REMARK  3 active torsions:
REMARK  status: ('A' for Active; 'I' for Inactive)
REMARK    1  A    between atoms: C_12  and  C_5 
REMARK    2  A    between atoms: C_14  and  C_12 
REMARK    3  A    between atoms: C_15  and  C_14 
ROOT
ATOM      1  C   UNL d   1      46.543 -19.744  43.005  0.00  0.00     0.206 A 
ATOM      2  C   UNL d   1      46.517 -19.018  43.396  0.00  0.00     0.063 A 
ATOM      3  C   UNL d   1      46.569 -18.345  42.148  0.00  0.00     0.111 A 
ATOM      4  C   UNL d   1      46.595 -19.068  41.759  0.00  0.00     0.214 A 
ATOM      5  C   UNL d   1      46.530 -18.322  42.971  0.00  0.00     0.018 A 
ATOM      6  O   UNL d   1      46.581 -19.769  42.194  0.00  0.00    -0.268 OA
ATOM      7  N   UNL d   1      46.523 -20.330  43.544  0.00  0.00    -0.123 NA
ATOM      8  N   UNL d   1      46.485 -20.007  44.279  0.00  0.00    -0.146 NA
ATOM      9  C   UNL d   1      46.481 -19.190  44.202  0.00  0.00     0.106 A 
ATOM     10  C   UNL d   1      46.583 -17.644  41.714  0.00  0.00     0.105 C 
ATOM     11  N   UNL d   1      46.596 -16.952  41.287  0.00  0.00    -0.191 NA
ATOM     12  N   UNL d   1      46.632 -19.090  40.966  0.00  0.00    -0.120 N 
ATOM     13  C   UNL d   1      46.440 -18.672  44.955  0.00  0.00     0.023 C 
ENDROOT
BRANCH   5  14
ATOM     14  C   UNL d   1      46.505 -17.609  43.355  0.00  0.00     0.001 C 
BRANCH  14  15
ATOM     15  C   UNL d   1      45.818 -17.205  43.836  0.00  0.00     0.000 C 
BRANCH  15  16
ATOM     16  C   UNL d   1      45.765 -16.414  44.068  0.00  0.00     0.000 A 
ATOM     17  C   UNL d   1      46.213 -16.132  44.719  0.00  0.00     0.000 A 
ATOM     18  C   UNL d   1      46.154 -15.352  44.939  0.00  0.00     0.000 A 
ATOM     19  C   UNL d   1      45.650 -14.831  44.521  0.00  0.00     0.000 A 
ATOM     20  C   UNL d   1      45.209 -15.109  43.881  0.00  0.00     0.000 A 
ATOM     21  C   UNL d   1      45.273 -15.904  43.661  0.00  0.00     0.000 A 
ENDBRANCH  15  16
ENDBRANCH  14  15
ENDBRANCH   5  14
TORSDOF 3
ENDMDL
MODEL 2
REMARK VINA RESULT:      24.4      0.622      2.129
REMARK  3 active torsions:
REMARK  status: ('A' for Active; 'I' for Inactive)
REMARK    1  A    between atoms: C_12  and  C_5 
REMARK    2  A    between atoms: C_14  and  C_12 
REMARK    3  A    between atoms: C_15  and  C_14 
ROOT
ATOM      1  C   UNL d   1      46.540 -19.282  41.746  0.00  0.00     0.206 A 
ATOM      2  C   UNL d   1      46.541 -18.501  42.012  0.00  0.00     0.063 A 
ATOM      3  C   UNL d   1      46.436 -18.956  43.352  0.00  0.00     0.111 A 
ATOM      4  C   UNL d   1      46.436 -19.733  43.088  0.00  0.00     0.214 A 
ATOM      5  C   UNL d   1      46.489 -18.337  42.809  0.00  0.00     0.018 A 
ATOM      6  O   UNL d   1      46.489 -19.893  42.280  0.00  0.00    -0.268 OA
ATOM      7  N   UNL d   1      46.596 -19.287  40.953  0.00  0.00    -0.123 NA
ATOM      8  N   UNL d   1      46.632 -18.528  40.689  0.00  0.00    -0.146 NA
ATOM      9  C   UNL d   1      46.599 -18.028  41.338  0.00  0.00     0.106 A 
ATOM     10  C   UNL d   1      46.384 -18.796  44.159  0.00  0.00     0.105 C 
ATOM     11  N   UNL d   1      46.333 -18.636  44.955  0.00  0.00    -0.191 NA
ATOM     12  N   UNL d   1      46.386 -20.329  43.611  0.00  0.00    -0.120 N 
ATOM     13  C   UNL d   1      46.629 -17.123  41.205  0.00  0.00     0.023 C 
ENDROOT
BRANCH   5  14
ATOM     14  C   UNL d   1      46.489 -17.570  43.069  0.00  0.00     0.001 C 
BRANCH  14  15
ATOM     15  C   UNL d   1      45.786 -16.970  43.184  0.00  0.00     0.000 C 
BRANCH  15  16
ATOM     16  C   UNL d   1      45.773 -16.298  43.664  0.00  0.00     0.000 A 
ATOM     17  C   UNL d   1      46.190 -15.607  43.436  0.00  0.00     0.000 A 
ATOM     18  C   UNL d   1      46.171 -14.951  43.916  0.00  0.00     0.000 A 
ATOM     19  C   UNL d   1      45.738 -14.962  44.631  0.00  0.00     0.000 A 
ATOM     20  C   UNL d   1      45.327 -15.642  44.855  0.00  0.00     0.000 A 
ATOM     21  C   UNL d   1      45.350 -16.307  44.363  0.00  0.00     0.000 A 
ENDBRANCH  15  16
ENDBRANCH  14  15
ENDBRANCH   5  14
TORSDOF 3
ENDMDL
