MODEL 1
REMARK VINA RESULT:      -7.5      0.000      0.000
REMARK  8 active torsions:
REMARK  status: ('A' for Active; 'I' for Inactive)
REMARK    1  A    between atoms: C_22  and  N_1 
REMARK       I    between atoms: N_8  and  C_12 
REMARK    2  A    between atoms: C_12  and  C_27 
REMARK    3  A    between atoms: C_23  and  N_13 
REMARK    4  A    between atoms: C_30  and  C_22 
REMARK    5  A    between atoms: C_26  and  C_23 
REMARK    6  A    between atoms: C_27  and  C_31 
REMARK    7  A    between atoms: C_32  and  C_30 
REMARK    8  A    between atoms: C_31  and  C_32 
ROOT
ATOM      1  C   UNL d   1     -42.341  13.710  21.137  0.00  0.00     0.002 C 
ENDROOT
BRANCH   1   2
ATOM      2  C   UNL d   1     -42.787  13.027  21.291  0.00  0.00     0.005 C 
BRANCH   2   3
ATOM      3  C   UNL d   1     -43.602  13.087  21.438  0.00  0.00     0.061 C 
BRANCH   3   4
ATOM      4  C   UNL d   1     -43.970  12.534  21.940  0.00  0.00     0.265 C 
ATOM      5  N   UNL d   1     -44.740  12.672  22.227  0.00  0.00    -0.269 N 
ATOM      6  C   UNL d   1     -45.097  12.120  22.723  0.00  0.00     0.102 A 
ATOM      7  C   UNL d   1     -45.146  13.357  22.017  0.00  0.00     0.102 A 
ATOM      8  C   UNL d   1     -45.863  12.253  23.010  0.00  0.00     0.100 A 
ATOM      9  N   UNL d   1     -46.268  12.939  22.800  0.00  0.00    -0.300 N 
ATOM     10  C   UNL d   1     -45.912  13.490  22.305  0.00  0.00     0.100 A 
ATOM     11  O   UNL d   1     -43.571  11.843  22.157  0.00  0.00    -0.267 OA
BRANCH   9  12
ATOM     12  C   UNL d   1     -47.031  13.072  23.086  0.00  0.00     0.080 C 
BRANCH  12  13
ATOM     13  C   UNL d   1     -47.682  12.772  22.682  0.00  0.00     0.018 A 
ATOM     14  C   UNL d   1     -48.017  12.057  22.918  0.00  0.00     0.002 A 
ATOM     15  C   UNL d   1     -48.673  11.751  22.513  0.00  0.00     0.000 A 
ATOM     16  C   UNL d   1     -48.990  12.165  21.873  0.00  0.00     0.000 A 
ATOM     17  C   UNL d   1     -48.650  12.884  21.638  0.00  0.00     0.000 A 
ATOM     18  C   UNL d   1     -47.998  13.185  22.042  0.00  0.00     0.002 A 
ENDBRANCH  12  13
ENDBRANCH   9  12
ENDBRANCH   3   4
ENDBRANCH   2   3
ENDBRANCH   1   2
BRANCH   1  19
ATOM     19  C   UNL d   1     -41.645  13.665  20.695  0.00  0.00     0.019 C 
BRANCH  19  20
ATOM     20  C   UNL d   1     -41.265  14.350  20.440  0.00  0.00     0.085 C 
BRANCH  20  21
ATOM     21  N   UNL d   1     -40.569  14.297  19.996  0.00  0.00    -0.249 N 
ATOM     22  C   UNL d   1     -40.605  14.164  19.177  0.00  0.00     0.268 A 
ATOM     23  C   UNL d   1     -39.911  14.111  18.737  0.00  0.00     0.076 A 
ATOM     24  O   UNL d   1     -41.337  14.085  18.805  0.00  0.00    -0.267 OA
ATOM     25  C   UNL d   1     -39.950  13.979  17.924  0.00  0.00     0.033 A 
ATOM     26  C   UNL d   1     -39.179  14.189  19.108  0.00  0.00     0.090 A 
ATOM     27  C   UNL d   1     -39.255  13.926  17.481  0.00  0.00     0.119 A 
ATOM     28  O   UNL d   1     -39.121  13.800  16.677  0.00  0.00    -0.300 OA
ATOM     29  C   UNL d   1     -38.522  14.004  17.852  0.00  0.00     0.121 A 
ATOM     30  C   UNL d   1     -38.309  13.801  16.557  0.00  0.00     0.304 A 
ATOM     31  O   UNL d   1     -37.940  13.926  17.276  0.00  0.00    -0.299 OA
ATOM     32  C   UNL d   1     -38.485  14.136  18.667  0.00  0.00     0.046 A 
ATOM     33  N   UNL d   1     -39.140  14.321  19.919  0.00  0.00    -0.218 NA
ATOM     34  C   UNL d   1     -39.837  14.375  20.367  0.00  0.00     0.208 A 
ATOM     35  S   UNL d   1     -39.793  14.508  21.187  0.00  0.00    -0.038 SA
ENDBRANCH  20  21
ENDBRANCH  19  20
ENDBRANCH   1  19
TORSDOF 8
ENDMDL
MODEL 2
REMARK VINA RESULT:      -6.9      2.763      8.357
REMARK  8 active torsions:
REMARK  status: ('A' for Active; 'I' for Inactive)
REMARK    1  A    between atoms: C_22  and  N_1 
REMARK       I    between atoms: N_8  and  C_12 
REMARK    2  A    between atoms: C_12  and  C_27 
REMARK    3  A    between atoms: C_23  and  N_13 
REMARK    4  A    between atoms: C_30  and  C_22 
REMARK    5  A    between atoms: C_26  and  C_23 
REMARK    6  A    between atoms: C_27  and  C_31 
REMARK    7  A    between atoms: C_32  and  C_30 
REMARK    8  A    between atoms: C_31  and  C_32 
ROOT
ATOM      1  C   UNL d   1     -45.241  13.413  22.387  0.00  0.00     0.002 C 
ENDROOT
BRANCH   1   2
ATOM      2  C   UNL d   1     -44.709  12.992  21.909  0.00  0.00     0.005 C 
BRANCH   2   3
ATOM      3  C   UNL d   1     -44.057  13.380  21.571  0.00  0.00     0.061 C 
BRANCH   3   4
ATOM      4  C   UNL d   1     -43.334  12.974  21.492  0.00  0.00     0.265 C 
ATOM      5  N   UNL d   1     -42.645  13.382  21.262  0.00  0.00    -0.269 N 
ATOM      6  C   UNL d   1     -41.934  12.973  21.186  0.00  0.00     0.102 A 
ATOM      7  C   UNL d   1     -42.671  14.191  21.110  0.00  0.00     0.102 A 
ATOM      8  C   UNL d   1     -41.246  13.376  20.958  0.00  0.00     0.100 A 
ATOM      9  N   UNL d   1     -41.273  14.185  20.806  0.00  0.00    -0.300 N 
ATOM     10  C   UNL d   1     -41.983  14.593  20.882  0.00  0.00     0.100 A 
ATOM     11  O   UNL d   1     -43.297  12.162  21.642  0.00  0.00    -0.267 OA
BRANCH   9  12
ATOM     12  C   UNL d   1     -40.589  14.585  20.579  0.00  0.00     0.080 C 
BRANCH  12  13
ATOM     13  C   UNL d   1     -40.454  14.755  19.785  0.00  0.00     0.018 A 
ATOM     14  C   UNL d   1     -40.637  15.501  19.488  0.00  0.00     0.002 A 
ATOM     15  C   UNL d   1     -40.503  15.676  18.688  0.00  0.00     0.000 A 
ATOM     16  C   UNL d   1     -40.185  15.100  18.190  0.00  0.00     0.000 A 
ATOM     17  C   UNL d   1     -40.002  14.349  18.492  0.00  0.00     0.000 A 
ATOM     18  C   UNL d   1     -40.136  14.179  19.287  0.00  0.00     0.002 A 
ENDBRANCH  12  13
ENDBRANCH   9  12
ENDBRANCH   3   4
ENDBRANCH   2   3
ENDBRANCH   1   2
BRANCH   1  19
ATOM     19  C   UNL d   1     -46.032  13.180  22.439  0.00  0.00     0.019 C 
BRANCH  19  20
ATOM     20  C   UNL d   1     -46.476  13.352  23.112  0.00  0.00     0.085 C 
BRANCH  20  21
ATOM     21  N   UNL d   1     -47.302  13.348  23.074  0.00  0.00    -0.249 N 
ATOM     22  C   UNL d   1     -47.715  14.036  22.858  0.00  0.00     0.268 A 
ATOM     23  C   UNL d   1     -48.537  14.030  22.821  0.00  0.00     0.076 A 
ATOM     24  O   UNL d   1     -47.297  14.726  22.681  0.00  0.00    -0.267 OA
ATOM     25  C   UNL d   1     -48.942  14.714  22.606  0.00  0.00     0.033 A 
ATOM     26  C   UNL d   1     -48.954  13.341  22.998  0.00  0.00     0.090 A 
ATOM     27  C   UNL d   1     -49.768  14.710  22.569  0.00  0.00     0.119 A 
ATOM     28  O   UNL d   1     -50.315  15.296  22.375  0.00  0.00    -0.300 OA
ATOM     29  C   UNL d   1     -50.185  14.021  22.746  0.00  0.00     0.121 A 
ATOM     30  C   UNL d   1     -51.064  14.967  22.434  0.00  0.00     0.304 A 
ATOM     31  O   UNL d   1     -50.987  14.185  22.661  0.00  0.00    -0.299 OA
ATOM     32  C   UNL d   1     -49.777  13.336  22.961  0.00  0.00     0.046 A 
ATOM     33  N   UNL d   1     -48.549  12.658  23.213  0.00  0.00    -0.218 NA
ATOM     34  C   UNL d   1     -47.719  12.659  23.251  0.00  0.00     0.208 A 
ATOM     35  S   UNL d   1     -47.314  11.967  23.468  0.00  0.00    -0.038 SA
ENDBRANCH  20  21
ENDBRANCH  19  20
ENDBRANCH   1  19
TORSDOF 8
ENDMDL
MODEL 3
REMARK VINA RESULT:      -6.6      2.850      8.378
REMARK  8 active torsions:
REMARK  status: ('A' for Active; 'I' for Inactive)
REMARK    1  A    between atoms: C_22  and  N_1 
REMARK       I    between atoms: N_8  and  C_12 
REMARK    2  A    between atoms: C_12  and  C_27 
REMARK    3  A    between atoms: C_23  and  N_13 
REMARK    4  A    between atoms: C_30  and  C_22 
REMARK    5  A    between atoms: C_26  and  C_23 
REMARK    6  A    between atoms: C_27  and  C_31 
REMARK    7  A    between atoms: C_32  and  C_30 
REMARK    8  A    between atoms: C_31  and  C_32 
ROOT
ATOM      1  C   UNL d   1     -45.259  13.443  22.200  0.00  0.00     0.002 C 
ENDROOT
BRANCH   1   2
ATOM      2  C   UNL d   1     -44.683  12.950  21.863  0.00  0.00     0.005 C 
BRANCH   2   3
ATOM      3  C   UNL d   1     -44.031  13.281  21.470  0.00  0.00     0.061 C 
BRANCH   3   4
ATOM      4  C   UNL d   1     -43.290  12.904  21.515  0.00  0.00     0.265 C 
ATOM      5  N   UNL d   1     -42.597  13.307  21.288  0.00  0.00    -0.269 N 
ATOM      6  C   UNL d   1     -41.868  12.926  21.335  0.00  0.00     0.102 A 
ATOM      7  C   UNL d   1     -42.636  14.083  21.017  0.00  0.00     0.102 A 
ATOM      8  C   UNL d   1     -41.176  13.324  21.110  0.00  0.00     0.100 A 
ATOM      9  N   UNL d   1     -41.217  14.101  20.839  0.00  0.00    -0.300 N 
ATOM     10  C   UNL d   1     -41.945  14.481  20.792  0.00  0.00     0.100 A 
ATOM     11  O   UNL d   1     -43.238  12.124  21.786  0.00  0.00    -0.267 OA
BRANCH   9  12
ATOM     12  C   UNL d   1     -40.529  14.496  20.615  0.00  0.00     0.080 C 
BRANCH  12  13
ATOM     13  C   UNL d   1     -40.032  14.818  21.188  0.00  0.00     0.018 A 
ATOM     14  C   UNL d   1     -39.440  14.353  21.523  0.00  0.00     0.002 A 
ATOM     15  C   UNL d   1     -38.937  14.674  22.101  0.00  0.00     0.000 A 
ATOM     16  C   UNL d   1     -39.032  15.458  22.338  0.00  0.00     0.000 A 
ATOM     17  C   UNL d   1     -39.630  15.922  21.998  0.00  0.00     0.000 A 
ATOM     18  C   UNL d   1     -40.127  15.602  21.425  0.00  0.00     0.002 A 
ENDBRANCH  12  13
ENDBRANCH   9  12
ENDBRANCH   3   4
ENDBRANCH   2   3
ENDBRANCH   1   2
BRANCH   1  19
ATOM     19  C   UNL d   1     -46.016  13.154  22.359  0.00  0.00     0.019 C 
BRANCH  19  20
ATOM     20  C   UNL d   1     -46.412  13.374  23.047  0.00  0.00     0.085 C 
BRANCH  20  21
ATOM     21  N   UNL d   1     -47.239  13.401  23.058  0.00  0.00    -0.249 N 
ATOM     22  C   UNL d   1     -47.637  14.105  22.866  0.00  0.00     0.268 A 
ATOM     23  C   UNL d   1     -48.460  14.130  22.877  0.00  0.00     0.076 A 
ATOM     24  O   UNL d   1     -47.206  14.779  22.665  0.00  0.00    -0.267 OA
ATOM     25  C   UNL d   1     -48.851  14.829  22.686  0.00  0.00     0.033 A 
ATOM     26  C   UNL d   1     -48.892  13.456  23.078  0.00  0.00     0.090 A 
ATOM     27  C   UNL d   1     -49.677  14.856  22.697  0.00  0.00     0.119 A 
ATOM     28  O   UNL d   1     -50.212  15.463  22.536  0.00  0.00    -0.300 OA
ATOM     29  C   UNL d   1     -50.109  14.183  22.898  0.00  0.00     0.121 A 
ATOM     30  C   UNL d   1     -50.969  15.162  22.638  0.00  0.00     0.304 A 
ATOM     31  O   UNL d   1     -50.908  14.377  22.860  0.00  0.00    -0.299 OA
ATOM     32  C   UNL d   1     -49.715  13.482  23.089  0.00  0.00     0.046 A 
ATOM     33  N   UNL d   1     -48.501  12.758  23.268  0.00  0.00    -0.218 NA
ATOM     34  C   UNL d   1     -47.671  12.728  23.259  0.00  0.00     0.208 A 
ATOM     35  S   UNL d   1     -47.280  12.020  23.452  0.00  0.00    -0.038 SA
ENDBRANCH  20  21
ENDBRANCH  19  20
ENDBRANCH   1  19
TORSDOF 8
ENDMDL
MODEL 4
REMARK VINA RESULT:      -4.6      1.899      7.992
REMARK  8 active torsions:
REMARK  status: ('A' for Active; 'I' for Inactive)
REMARK    1  A    between atoms: C_22  and  N_1 
REMARK       I    between atoms: N_8  and  C_12 
REMARK    2  A    between atoms: C_12  and  C_27 
REMARK    3  A    between atoms: C_23  and  N_13 
REMARK    4  A    between atoms: C_30  and  C_22 
REMARK    5  A    between atoms: C_26  and  C_23 
REMARK    6  A    between atoms: C_27  and  C_31 
REMARK    7  A    between atoms: C_32  and  C_30 
REMARK    8  A    between atoms: C_31  and  C_32 
ROOT
ATOM      1  C   UNL d   1     -42.820  12.967  21.206  0.00  0.00     0.002 C 
ENDROOT
BRANCH   1   2
ATOM      2  C   UNL d   1     -42.425  13.695  21.172  0.00  0.00     0.005 C 
BRANCH   2   3
ATOM      3  C   UNL d   1     -41.734  13.772  20.717  0.00  0.00     0.061 C 
BRANCH   3   4
ATOM      4  C   UNL d   1     -41.371  14.518  20.644  0.00  0.00     0.265 C 
ATOM      5  N   UNL d   1     -40.712  14.620  20.145  0.00  0.00    -0.269 N 
ATOM      6  C   UNL d   1     -40.359  15.361  20.078  0.00  0.00     0.102 A 
ATOM      7  C   UNL d   1     -40.412  13.983  19.717  0.00  0.00     0.102 A 
ATOM      8  C   UNL d   1     -39.703  15.466  19.582  0.00  0.00     0.100 A 
ATOM      9  N   UNL d   1     -39.404  14.829  19.155  0.00  0.00    -0.300 N 
ATOM     10  C   UNL d   1     -39.756  14.088  19.221  0.00  0.00     0.100 A 
ATOM     11  O   UNL d   1     -41.665  15.164  21.069  0.00  0.00    -0.267 OA
BRANCH   9  12
ATOM     12  C   UNL d   1     -38.751  14.933  18.661  0.00  0.00     0.080 C 
BRANCH  12  13
ATOM     13  C   UNL d   1     -38.856  15.005  17.848  0.00  0.00     0.018 A 
ATOM     14  C   UNL d   1     -38.998  15.746  17.517  0.00  0.00     0.002 A 
ATOM     15  C   UNL d   1     -39.104  15.823  16.698  0.00  0.00     0.000 A 
ATOM     16  C   UNL d   1     -39.067  15.156  16.215  0.00  0.00     0.000 A 
ATOM     17  C   UNL d   1     -38.924  14.411  16.551  0.00  0.00     0.000 A 
ATOM     18  C   UNL d   1     -38.819  14.337  17.365  0.00  0.00     0.002 A 
ENDBRANCH  12  13
ENDBRANCH   9  12
ENDBRANCH   3   4
ENDBRANCH   2   3
ENDBRANCH   1   2
BRANCH   1  19
ATOM     19  C   UNL d   1     -43.590  12.923  21.503  0.00  0.00     0.019 C 
BRANCH  19  20
ATOM     20  C   UNL d   1     -43.741  12.553  22.224  0.00  0.00     0.085 C 
BRANCH  20  21
ATOM     21  N   UNL d   1     -44.520  12.462  22.487  0.00  0.00    -0.249 N 
ATOM     22  C   UNL d   1     -45.073  13.073  22.377  0.00  0.00     0.268 A 
ATOM     23  C   UNL d   1     -45.847  12.980  22.640  0.00  0.00     0.076 A 
ATOM     24  O   UNL d   1     -44.843  13.772  22.005  0.00  0.00    -0.267 OA
ATOM     25  C   UNL d   1     -46.393  13.588  22.530  0.00  0.00     0.033 A 
ATOM     26  C   UNL d   1     -46.077  12.281  23.013  0.00  0.00     0.090 A 
ATOM     27  C   UNL d   1     -47.171  13.497  22.793  0.00  0.00     0.119 A 
ATOM     28  O   UNL d   1     -47.826  13.996  22.761  0.00  0.00    -0.300 OA
ATOM     29  C   UNL d   1     -47.401  12.797  23.165  0.00  0.00     0.121 A 
ATOM     30  C   UNL d   1     -48.456  13.604  23.114  0.00  0.00     0.304 A 
ATOM     31  O   UNL d   1     -48.197  12.869  23.362  0.00  0.00    -0.299 OA
ATOM     32  C   UNL d   1     -46.852  12.189  23.275  0.00  0.00     0.046 A 
ATOM     33  N   UNL d   1     -45.532  11.674  23.123  0.00  0.00    -0.218 NA
ATOM     34  C   UNL d   1     -44.750  11.763  22.859  0.00  0.00     0.208 A 
ATOM     35  S   UNL d   1     -44.203  11.148  22.972  0.00  0.00    -0.038 SA
ENDBRANCH  20  21
ENDBRANCH  19  20
ENDBRANCH   1  19
TORSDOF 8
ENDMDL
