MODEL 1
REMARK VINA RESULT:      -5.9      0.000      0.000
REMARK  2 active torsions:
REMARK  status: ('A' for Active; 'I' for Inactive)
REMARK    1  A    between atoms: C_2  and  C_1 
REMARK    2  A    between atoms: C_14  and  C_8 
ROOT
ATOM      1  C   UNL d   1      58.753  -0.643  30.039  0.00  0.00     0.106 A 
ATOM      2  C   UNL d   1      59.369  -0.126  29.900  0.00  0.00     0.304 A 
ATOM      3  C   UNL d   1      58.812  -1.426  29.776  0.00  0.00     0.011 A 
ATOM      4  C   UNL d   1      59.479  -1.685  29.380  0.00  0.00     0.023 A 
ATOM      5  O   UNL d   1      60.069  -0.370  29.492  0.00  0.00    -0.273 OA
ATOM      6  C   UNL d   1      60.095  -1.168  29.240  0.00  0.00     0.103 A 
ATOM      7  C   UNL d   1      59.538  -2.468  29.117  0.00  0.00     0.002 A 
ATOM      8  O   UNL d   1      59.304   0.682  30.173  0.00  0.00    -0.259 OA
ATOM      9  C   UNL d   1      60.795  -1.412  28.833  0.00  0.00     0.025 A 
ATOM     10  C   UNL d   1      60.207  -2.731  28.718  0.00  0.00     0.000 A 
ATOM     11  C   UNL d   1      60.824  -2.213  28.579  0.00  0.00     0.002 A 
ATOM     12  C   UNL d   1      58.910  -2.995  29.259  0.00  0.00     0.000 A 
ATOM     13  C   UNL d   1      60.267  -3.513  28.455  0.00  0.00     0.000 A 
ATOM     14  C   UNL d   1      58.962  -3.777  29.000  0.00  0.00     0.000 A 
ATOM     15  C   UNL d   1      59.646  -4.053  28.590  0.00  0.00     0.000 A 
ENDROOT
BRANCH   1  16
ATOM     16  C   UNL d   1      58.081  -0.375  30.441  0.00  0.00     0.210 A 
ATOM     17  O   UNL d   1      57.806  -0.584  31.191  0.00  0.00    -0.268 OA
ATOM     18  C   UNL d   1      57.117  -0.158  31.323  0.00  0.00     0.204 A 
ATOM     19  N   UNL d   1      56.965   0.307  30.669  0.00  0.00    -0.121 NA
ATOM     20  N   UNL d   1      57.557   0.179  30.117  0.00  0.00    -0.121 NA
BRANCH  18  21
ATOM     21  C   UNL d   1      56.615  -0.145  31.968  0.00  0.00     0.043 A 
ATOM     22  C   UNL d   1      56.306  -0.838  32.260  0.00  0.00     0.004 A 
ATOM     23  C   UNL d   1      55.797  -0.830  32.913  0.00  0.00     0.000 A 
ATOM     24  C   UNL d   1      55.604  -0.124  33.265  0.00  0.00     0.000 A 
ATOM     25  C   UNL d   1      55.920   0.574  32.964  0.00  0.00     0.000 A 
ATOM     26  C   UNL d   1      56.422   0.567  32.320  0.00  0.00     0.004 A 
ENDBRANCH  18  21
ENDBRANCH   1  16
TORSDOF 2
ENDMDL
MODEL 2
REMARK VINA RESULT:      -4.4      1.165      2.143
REMARK  2 active torsions:
REMARK  status: ('A' for Active; 'I' for Inactive)
REMARK    1  A    between atoms: C_2  and  C_1 
REMARK    2  A    between atoms: C_14  and  C_8 
ROOT
ATOM      1  C   UNL d   1      57.952  -0.718  30.547  0.00  0.00     0.106 A 
ATOM      2  C   UNL d   1      57.769  -1.497  30.385  0.00  0.00     0.304 A 
ATOM      3  C   UNL d   1      58.616  -0.375  30.192  0.00  0.00     0.011 A 
ATOM      4  C   UNL d   1      59.089  -0.805  29.682  0.00  0.00     0.023 A 
ATOM      5  O   UNL d   1      58.242  -1.964  29.861  0.00  0.00    -0.273 OA
ATOM      6  C   UNL d   1      58.905  -1.585  29.520  0.00  0.00     0.103 A 
ATOM      7  C   UNL d   1      59.753  -0.462  29.327  0.00  0.00     0.002 A 
ATOM      8  O   UNL d   1      57.082  -1.849  30.754  0.00  0.00    -0.259 OA
ATOM      9  C   UNL d   1      59.379  -2.051  28.996  0.00  0.00     0.025 A 
ATOM     10  C   UNL d   1      60.229  -0.893  28.815  0.00  0.00     0.000 A 
ATOM     11  C   UNL d   1      60.046  -1.672  28.652  0.00  0.00     0.002 A 
ATOM     12  C   UNL d   1      59.940   0.333  29.493  0.00  0.00     0.000 A 
ATOM     13  C   UNL d   1      60.893  -0.550  28.460  0.00  0.00     0.000 A 
ATOM     14  C   UNL d   1      60.600   0.681  29.143  0.00  0.00     0.000 A 
ATOM     15  C   UNL d   1      61.093   0.244  28.615  0.00  0.00     0.000 A 
ENDROOT
BRANCH   1  16
ATOM     16  C   UNL d   1      57.470  -0.287  31.064  0.00  0.00     0.210 A 
ATOM     17  O   UNL d   1      57.274  -0.449  31.850  0.00  0.00    -0.268 OA
ATOM     18  C   UNL d   1      56.781   0.154  32.105  0.00  0.00     0.204 A 
ATOM     19  N   UNL d   1      56.670   0.682  31.491  0.00  0.00    -0.121 NA
ATOM     20  N   UNL d   1      57.094   0.417  30.842  0.00  0.00    -0.121 NA
BRANCH  18  21
ATOM     21  C   UNL d   1      56.421   0.278  32.828  0.00  0.00     0.043 A 
ATOM     22  C   UNL d   1      56.856   0.550  33.459  0.00  0.00     0.004 A 
ATOM     23  C   UNL d   1      56.496   0.677  34.195  0.00  0.00     0.000 A 
ATOM     24  C   UNL d   1      55.704   0.528  34.287  0.00  0.00     0.000 A 
ATOM     25  C   UNL d   1      55.270   0.252  33.644  0.00  0.00     0.000 A 
ATOM     26  C   UNL d   1      55.624   0.127  32.918  0.00  0.00     0.004 A 
ENDBRANCH  18  21
ENDBRANCH   1  16
TORSDOF 2
ENDMDL
MODEL 3
REMARK VINA RESULT:      -3.3      1.470      5.535
REMARK  2 active torsions:
REMARK  status: ('A' for Active; 'I' for Inactive)
REMARK    1  A    between atoms: C_2  and  C_1 
REMARK    2  A    between atoms: C_14  and  C_8 
ROOT
ATOM      1  C   UNL d   1      57.304   0.385  32.404  0.00  0.00     0.106 A 
ATOM      2  C   UNL d   1      57.939   0.441  32.916  0.00  0.00     0.304 A 
ATOM      3  C   UNL d   1      56.535   0.417  32.706  0.00  0.00     0.011 A 
ATOM      4  C   UNL d   1      56.402   0.505  33.508  0.00  0.00     0.023 A 
ATOM      5  O   UNL d   1      57.828   0.532  33.750  0.00  0.00    -0.273 OA
ATOM      6  C   UNL d   1      57.036   0.561  34.020  0.00  0.00     0.103 A 
ATOM      7  C   UNL d   1      55.633   0.537  33.810  0.00  0.00     0.002 A 
ATOM      8  O   UNL d   1      58.732   0.407  32.600  0.00  0.00    -0.259 OA
ATOM      9  C   UNL d   1      56.926   0.653  34.854  0.00  0.00     0.025 A 
ATOM     10  C   UNL d   1      55.497   0.625  34.616  0.00  0.00     0.000 A 
ATOM     11  C   UNL d   1      56.131   0.682  35.128  0.00  0.00     0.002 A 
ATOM     12  C   UNL d   1      54.986   0.480  33.288  0.00  0.00     0.000 A 
ATOM     13  C   UNL d   1      54.727   0.658  34.918  0.00  0.00     0.000 A 
ATOM     14  C   UNL d   1      54.216   0.511  33.582  0.00  0.00     0.000 A 
ATOM     15  C   UNL d   1      54.070   0.602  34.408  0.00  0.00     0.000 A 
ENDROOT
BRANCH   1  16
ATOM     16  C   UNL d   1      57.444   0.296  31.593  0.00  0.00     0.210 A 
ATOM     17  O   UNL d   1      58.022  -0.153  31.211  0.00  0.00    -0.268 OA
ATOM     18  C   UNL d   1      57.916  -0.047  30.404  0.00  0.00     0.204 A 
ATOM     19  N   UNL d   1      57.286   0.458  30.285  0.00  0.00    -0.121 NA
ATOM     20  N   UNL d   1      56.986   0.676  31.016  0.00  0.00    -0.121 NA
BRANCH  18  21
ATOM     21  C   UNL d   1      58.327  -0.356  29.769  0.00  0.00     0.043 A 
ATOM     22  C   UNL d   1      58.661   0.140  29.217  0.00  0.00     0.004 A 
ATOM     23  C   UNL d   1      59.078  -0.168  28.572  0.00  0.00     0.000 A 
ATOM     24  C   UNL d   1      59.155  -0.972  28.488  0.00  0.00     0.000 A 
ATOM     25  C   UNL d   1      58.814  -1.469  29.049  0.00  0.00     0.000 A 
ATOM     26  C   UNL d   1      58.402  -1.165  29.686  0.00  0.00     0.004 A 
ENDBRANCH  18  21
ENDBRANCH   1  16
TORSDOF 2
ENDMDL
