MODEL 1
REMARK VINA RESULT:      77.6      0.000      0.000
REMARK  4 active torsions:
REMARK  status: ('A' for Active; 'I' for Inactive)
REMARK    1  A    between atoms: N_10  and  C_3 
REMARK    2  A    between atoms: C_15  and  C_5 
REMARK    3  A    between atoms: C_14  and  C_9 
REMARK       I    between atoms: C_11  and  N_12 
REMARK    4  A    between atoms: C_13  and  C_11 
ROOT
ATOM      1  N   UNL d   1      14.363  14.547  -2.639  0.00  0.00    -0.196 N 
ATOM      2  C   UNL d   1      14.283  13.852  -2.181  0.00  0.00     0.167 A 
ATOM      3  C   UNL d   1      14.103  14.546  -3.419  0.00  0.00     0.152 A 
ATOM      4  N   UNL d   1      14.952  15.199  -1.523  0.00  0.00    -0.163 NA
ATOM      5  C   UNL d   1      14.534  13.836  -1.406  0.00  0.00     0.055 A 
ATOM      6  N   UNL d   1      13.944  13.173  -2.515  0.00  0.00    -0.231 NA
ATOM      7  C   UNL d   1      13.763  13.864  -3.757  0.00  0.00     0.052 A 
ATOM      8  C   UNL d   1      14.873  14.515  -1.072  0.00  0.00     0.104 A 
ATOM      9  C   UNL d   1      13.683  13.180  -3.306  0.00  0.00     0.063 A 
ATOM     10  C   UNL d   1      15.131  14.511  -0.292  0.00  0.00     0.023 C 
ENDROOT
BRANCH   3  11
ATOM     11  N   UNL d   1      14.187  15.262  -3.891  0.00  0.00    -0.286 N 
ATOM     12  C   UNL d   1      13.655  15.738  -4.289  0.00  0.00     0.101 A 
ATOM     13  C   UNL d   1      13.925  16.394  -4.694  0.00  0.00     0.102 A 
ATOM     14  N   UNL d   1      14.722  16.570  -4.699  0.00  0.00    -0.267 N 
ATOM     15  C   UNL d   1      14.983  17.219  -5.100  0.00  0.00     0.288 C 
ATOM     16  C   UNL d   1      15.236  16.095  -4.305  0.00  0.00     0.102 A 
ATOM     17  O   UNL d   1      15.775  17.399  -5.109  0.00  0.00    -0.264 OA
ATOM     18  C   UNL d   1      14.970  15.435  -3.896  0.00  0.00     0.101 A 
BRANCH  15  19
ATOM     19  C   UNL d   1      14.464  17.694  -5.495  0.00  0.00     0.156 A 
ATOM     20  O   UNL d   1      14.463  18.493  -5.360  0.00  0.00    -0.300 OA
ATOM     21  C   UNL d   1      13.945  18.977  -5.753  0.00  0.00     0.123 A 
ATOM     22  C   UNL d   1      13.425  18.662  -6.284  0.00  0.00     0.029 A 
ATOM     23  C   UNL d   1      13.944  17.382  -6.026  0.00  0.00     0.032 A 
ENDBRANCH  15  19
ENDBRANCH   3  11
BRANCH   9  24
ATOM     24  C   UNL d   1      13.332  12.474  -3.651  0.00  0.00     0.036 C 
ATOM     25  C   UNL d   1      12.986  11.779  -3.997  0.00  0.00     0.006 C 
ATOM     26  C   UNL d   1      13.103  11.818  -3.143  0.00  0.00     0.006 C 
ATOM     27  C   UNL d   1      13.216  12.436  -4.500  0.00  0.00     0.006 C 
ENDBRANCH   9  24
BRANCH   5  28
ATOM     28  C   UNL d   1      14.455  13.148  -0.953  0.00  0.00     0.004 A 
ATOM     29  C   UNL d   1      15.050  12.578  -0.973  0.00  0.00     0.000 A 
ATOM     30  C   UNL d   1      14.969  11.883  -0.515  0.00  0.00     0.000 A 
ATOM     31  C   UNL d   1      14.296  11.780  -0.051  0.00  0.00     0.000 A 
ATOM     32  C   UNL d   1      13.704  12.359  -0.039  0.00  0.00     0.000 A 
ATOM     33  C   UNL d   1      13.784  13.043  -0.490  0.00  0.00     0.000 A 
ENDBRANCH   5  28
TORSDOF 4
ENDMDL
