MODEL 1
REMARK VINA RESULT:      -8.7      0.000      0.000
REMARK  4 active torsions:
REMARK  status: ('A' for Active; 'I' for Inactive)
REMARK    1  A    between atoms: N_8  and  C_2 
REMARK    2  A    between atoms: C_9  and  C_3 
REMARK       I    between atoms: C_6  and  N_7 
REMARK    3  A    between atoms: C_11  and  C_6 
REMARK    4  A    between atoms: N_7  and  N_8 
ROOT
ATOM      1  N   UNL d   1      51.317  33.938  53.295  0.00  0.00    -0.221 NA
ATOM      2  C   UNL d   1      52.031  33.656  53.024  0.00  0.00     0.186 A 
ATOM      3  C   UNL d   1      50.921  34.239  52.656  0.00  0.00     0.090 A 
ATOM      4  S   UNL d   1      52.074  33.782  52.225  0.00  0.00    -0.047 SA
ATOM      5  C   UNL d   1      51.384  34.145  51.997  0.00  0.00     0.058 A 
ENDROOT
BRANCH   2   6
ATOM      6  N   UNL d   1      52.628  33.292  53.491  0.00  0.00    -0.275 N 
ATOM      7  H   UNL d   1      53.083  33.759  53.994  0.00  0.00     0.189 HD
BRANCH   6   8
ATOM      8  N   UNL d   1      52.750  32.477  53.440  0.00  0.00    -0.264 N 
ATOM      9  C   UNL d   1      53.403  32.148  53.827  0.00  0.00     0.271 C 
ATOM     10  O   UNL d   1      53.525  31.332  53.776  0.00  0.00    -0.266 OA
ATOM     11  H   UNL d   1      52.226  32.020  53.011  0.00  0.00     0.190 HD
BRANCH   9  12
ATOM     12  C   UNL d   1      53.919  32.612  54.252  0.00  0.00     0.057 A 
ATOM     13  C   UNL d   1      54.586  32.902  53.853  0.00  0.00     0.005 A 
ATOM     14  C   UNL d   1      55.129  33.377  54.258  0.00  0.00     0.000 A 
ATOM     15  C   UNL d   1      55.019  33.566  55.049  0.00  0.00     0.000 A 
ATOM     16  C   UNL d   1      54.338  33.266  55.447  0.00  0.00     0.000 A 
ATOM     17  C   UNL d   1      53.797  32.794  55.047  0.00  0.00     0.005 A 
ENDBRANCH   9  12
ENDBRANCH   6   8
ENDBRANCH   2   6
BRANCH   3  18
ATOM     18  C   UNL d   1      50.173  34.583  52.678  0.00  0.00     0.018 A 
ATOM     19  C   UNL d   1      49.682  34.531  52.016  0.00  0.00     0.002 A 
ATOM     20  C   UNL d   1      48.933  34.872  52.031  0.00  0.00     0.000 A 
ATOM     21  C   UNL d   1      48.675  35.268  52.715  0.00  0.00     0.000 A 
ATOM     22  C   UNL d   1      49.167  35.321  53.377  0.00  0.00     0.000 A 
ATOM     23  C   UNL d   1      47.927  35.614  52.741  0.00  0.00     0.000 C 
ATOM     24  C   UNL d   1      49.920  34.976  53.358  0.00  0.00     0.002 A 
ENDBRANCH   3  18
TORSDOF 4
ENDMDL
MODEL 2
REMARK VINA RESULT:      -8.5      1.171      2.010
REMARK  4 active torsions:
REMARK  status: ('A' for Active; 'I' for Inactive)
REMARK    1  A    between atoms: N_8  and  C_2 
REMARK    2  A    between atoms: C_9  and  C_3 
REMARK       I    between atoms: C_6  and  N_7 
REMARK    3  A    between atoms: C_11  and  C_6 
REMARK    4  A    between atoms: N_7  and  N_8 
ROOT
ATOM      1  N   UNL d   1      51.366  33.334  52.875  0.00  0.00    -0.221 NA
ATOM      2  C   UNL d   1      52.069  33.345  53.286  0.00  0.00     0.186 A 
ATOM      3  C   UNL d   1      51.076  34.090  52.877  0.00  0.00     0.090 A 
ATOM      4  S   UNL d   1      52.211  34.101  53.538  0.00  0.00    -0.047 SA
ATOM      5  C   UNL d   1      51.594  34.564  53.284  0.00  0.00     0.058 A 
ENDROOT
BRANCH   2   6
ATOM      6  N   UNL d   1      52.569  32.684  53.427  0.00  0.00    -0.275 N 
ATOM      7  H   UNL d   1      52.230  31.942  53.536  0.00  0.00     0.189 HD
BRANCH   6   8
ATOM      8  N   UNL d   1      53.388  32.786  53.455  0.00  0.00    -0.264 N 
ATOM      9  C   UNL d   1      53.872  32.116  53.485  0.00  0.00     0.271 C 
ATOM     10  O   UNL d   1      54.692  32.219  53.513  0.00  0.00    -0.266 OA
ATOM     11  H   UNL d   1      53.696  33.543  53.453  0.00  0.00     0.190 HD
BRANCH   9  12
ATOM     12  C   UNL d   1      53.554  31.367  53.487  0.00  0.00     0.057 A 
ATOM     13  C   UNL d   1      53.508  30.975  54.216  0.00  0.00     0.005 A 
ATOM     14  C   UNL d   1      53.190  30.212  54.250  0.00  0.00     0.000 A 
ATOM     15  C   UNL d   1      52.919  29.835  53.573  0.00  0.00     0.000 A 
ATOM     16  C   UNL d   1      52.970  30.241  52.835  0.00  0.00     0.000 A 
ATOM     17  C   UNL d   1      53.286  31.000  52.799  0.00  0.00     0.005 A 
ENDBRANCH   9  12
ENDBRANCH   6   8
ENDBRANCH   2   6
BRANCH   3  18
ATOM     18  C   UNL d   1      50.373  34.332  52.524  0.00  0.00     0.018 A 
ATOM     19  C   UNL d   1      49.811  34.738  52.972  0.00  0.00     0.002 A 
ATOM     20  C   UNL d   1      49.106  34.983  52.625  0.00  0.00     0.000 A 
ATOM     21  C   UNL d   1      48.964  34.818  51.823  0.00  0.00     0.000 A 
ATOM     22  C   UNL d   1      49.526  34.412  51.374  0.00  0.00     0.000 A 
ATOM     23  C   UNL d   1      48.260  35.059  51.464  0.00  0.00     0.000 C 
ATOM     24  C   UNL d   1      50.235  34.167  51.728  0.00  0.00     0.002 A 
ENDBRANCH   3  18
TORSDOF 4
ENDMDL
MODEL 3
REMARK VINA RESULT:      -8.4      1.935      5.064
REMARK  4 active torsions:
REMARK  status: ('A' for Active; 'I' for Inactive)
REMARK    1  A    between atoms: N_8  and  C_2 
REMARK    2  A    between atoms: C_9  and  C_3 
REMARK       I    between atoms: C_6  and  N_7 
REMARK    3  A    between atoms: C_11  and  C_6 
REMARK    4  A    between atoms: N_7  and  N_8 
ROOT
ATOM      1  N   UNL d   1      52.814  31.862  53.558  0.00  0.00    -0.221 NA
ATOM      2  C   UNL d   1      53.096  32.593  53.337  0.00  0.00     0.186 A 
ATOM      3  C   UNL d   1      53.456  31.401  53.731  0.00  0.00     0.090 A 
ATOM      4  S   UNL d   1      53.905  32.581  53.373  0.00  0.00    -0.047 SA
ATOM      5  C   UNL d   1      54.128  31.840  53.618  0.00  0.00     0.058 A 
ENDROOT
BRANCH   2   6
ATOM      6  N   UNL d   1      52.629  33.253  53.107  0.00  0.00    -0.275 N 
ATOM      7  H   UNL d   1      52.045  33.153  52.536  0.00  0.00     0.189 HD
BRANCH   6   8
ATOM      8  N   UNL d   1      52.761  33.991  53.455  0.00  0.00    -0.264 N 
ATOM      9  C   UNL d   1      52.213  34.597  53.325  0.00  0.00     0.271 C 
ATOM     10  O   UNL d   1      52.345  35.334  53.673  0.00  0.00    -0.266 OA
ATOM     11  H   UNL d   1      53.427  34.102  53.916  0.00  0.00     0.190 HD
BRANCH   9  12
ATOM     12  C   UNL d   1      51.553  34.476  52.863  0.00  0.00     0.057 A 
ATOM     13  C   UNL d   1      50.822  34.422  53.251  0.00  0.00     0.005 A 
ATOM     14  C   UNL d   1      50.133  34.299  52.809  0.00  0.00     0.000 A 
ATOM     15  C   UNL d   1      50.162  34.229  51.992  0.00  0.00     0.000 A 
ATOM     16  C   UNL d   1      50.910  34.285  51.605  0.00  0.00     0.000 A 
ATOM     17  C   UNL d   1      51.595  34.407  52.043  0.00  0.00     0.005 A 
ENDBRANCH   9  12
ENDBRANCH   6   8
ENDBRANCH   2   6
BRANCH   3  18
ATOM     18  C   UNL d   1      53.426  30.616  53.980  0.00  0.00     0.018 A 
ATOM     19  C   UNL d   1      53.460  30.010  53.420  0.00  0.00     0.002 A 
ATOM     20  C   UNL d   1      53.431  29.224  53.662  0.00  0.00     0.000 A 
ATOM     21  C   UNL d   1      53.366  29.045  54.471  0.00  0.00     0.000 A 
ATOM     22  C   UNL d   1      53.332  29.651  55.031  0.00  0.00     0.000 A 
ATOM     23  C   UNL d   1      53.336  28.260  54.725  0.00  0.00     0.000 C 
ATOM     24  C   UNL d   1      53.362  30.442  54.783  0.00  0.00     0.002 A 
ENDBRANCH   3  18
TORSDOF 4
ENDMDL
MODEL 4
REMARK VINA RESULT:      -7.9      1.294      1.638
REMARK  4 active torsions:
REMARK  status: ('A' for Active; 'I' for Inactive)
REMARK    1  A    between atoms: N_8  and  C_2 
REMARK    2  A    between atoms: C_9  and  C_3 
REMARK       I    between atoms: C_6  and  N_7 
REMARK    3  A    between atoms: C_11  and  C_6 
REMARK    4  A    between atoms: N_7  and  N_8 
ROOT
ATOM      1  N   UNL d   1      50.713  34.720  53.237  0.00  0.00    -0.221 NA
ATOM      2  C   UNL d   1      51.327  34.193  53.144  0.00  0.00     0.186 A 
ATOM      3  C   UNL d   1      50.144  34.520  52.698  0.00  0.00     0.090 A 
ATOM      4  S   UNL d   1      51.137  33.674  52.552  0.00  0.00    -0.047 SA
ATOM      5  C   UNL d   1      50.402  33.878  52.275  0.00  0.00     0.058 A 
ENDROOT
BRANCH   2   6
ATOM      6  N   UNL d   1      52.042  34.185  53.586  0.00  0.00    -0.275 N 
ATOM      7  H   UNL d   1      52.432  33.469  53.705  0.00  0.00     0.189 HD
BRANCH   6   8
ATOM      8  N   UNL d   1      52.344  34.889  53.894  0.00  0.00    -0.264 N 
ATOM      9  C   UNL d   1      53.077  34.874  54.278  0.00  0.00     0.271 C 
ATOM     10  O   UNL d   1      53.378  35.580  54.586  0.00  0.00    -0.266 OA
ATOM     11  H   UNL d   1      51.912  35.578  53.812  0.00  0.00     0.190 HD
BRANCH   9  12
ATOM     12  C   UNL d   1      53.498  34.183  54.354  0.00  0.00     0.057 A 
ATOM     13  C   UNL d   1      53.443  33.782  55.078  0.00  0.00     0.005 A 
ATOM     14  C   UNL d   1      53.860  33.075  55.187  0.00  0.00     0.000 A 
ATOM     15  C   UNL d   1      54.329  32.764  54.588  0.00  0.00     0.000 A 
ATOM     16  C   UNL d   1      54.379  33.179  53.855  0.00  0.00     0.000 A 
ATOM     17  C   UNL d   1      53.965  33.881  53.746  0.00  0.00     0.005 A 
ENDBRANCH   9  12
ENDBRANCH   6   8
ENDBRANCH   2   6
BRANCH   3  18
ATOM     18  C   UNL d   1      49.424  34.909  52.599  0.00  0.00     0.018 A 
ATOM     19  C   UNL d   1      49.023  34.846  51.880  0.00  0.00     0.002 A 
ATOM     20  C   UNL d   1      48.304  35.231  51.775  0.00  0.00     0.000 A 
ATOM     21  C   UNL d   1      47.985  35.683  52.395  0.00  0.00     0.000 A 
ATOM     22  C   UNL d   1      48.386  35.747  53.114  0.00  0.00     0.000 A 
ATOM     23  C   UNL d   1      47.264  36.074  52.300  0.00  0.00     0.000 C 
ATOM     24  C   UNL d   1      49.110  35.357  53.216  0.00  0.00     0.002 A 
ENDBRANCH   3  18
TORSDOF 4
ENDMDL
MODEL 5
REMARK VINA RESULT:      -7.9      2.602      3.765
REMARK  4 active torsions:
REMARK  status: ('A' for Active; 'I' for Inactive)
REMARK    1  A    between atoms: N_8  and  C_2 
REMARK    2  A    between atoms: C_9  and  C_3 
REMARK       I    between atoms: C_6  and  N_7 
REMARK    3  A    between atoms: C_11  and  C_6 
REMARK    4  A    between atoms: N_7  and  N_8 
ROOT
ATOM      1  N   UNL d   1      53.275  32.424  54.090  0.00  0.00    -0.221 NA
ATOM      2  C   UNL d   1      53.690  31.799  53.775  0.00  0.00     0.186 A 
ATOM      3  C   UNL d   1      53.672  33.100  53.888  0.00  0.00     0.090 A 
ATOM      4  S   UNL d   1      54.336  32.087  53.382  0.00  0.00    -0.047 SA
ATOM      5  C   UNL d   1      54.325  32.896  53.452  0.00  0.00     0.058 A 
ENDROOT
BRANCH   2   6
ATOM      6  N   UNL d   1      53.486  30.986  53.843  0.00  0.00    -0.275 N 
ATOM      7  H   UNL d   1      53.830  30.535  54.439  0.00  0.00     0.189 HD
BRANCH   6   8
ATOM      8  N   UNL d   1      52.945  30.652  53.315  0.00  0.00    -0.264 N 
ATOM      9  C   UNL d   1      52.708  29.868  53.431  0.00  0.00     0.271 C 
ATOM     10  O   UNL d   1      52.168  29.534  52.903  0.00  0.00    -0.266 OA
ATOM     11  H   UNL d   1      52.661  31.103  52.696  0.00  0.00     0.190 HD
BRANCH   9  12
ATOM     12  C   UNL d   1      52.998  29.427  54.051  0.00  0.00     0.057 A 
ATOM     13  C   UNL d   1      53.618  28.902  53.888  0.00  0.00     0.005 A 
ATOM     14  C   UNL d   1      53.934  28.440  54.498  0.00  0.00     0.000 A 
ATOM     15  C   UNL d   1      53.643  28.494  55.263  0.00  0.00     0.000 A 
ATOM     16  C   UNL d   1      53.012  29.031  55.421  0.00  0.00     0.000 A 
ATOM     17  C   UNL d   1      52.697  29.491  54.816  0.00  0.00     0.005 A 
ENDBRANCH   9  12
ENDBRANCH   6   8
ENDBRANCH   2   6
BRANCH   3  18
ATOM     18  C   UNL d   1      53.445  33.865  54.092  0.00  0.00     0.018 A 
ATOM     19  C   UNL d   1      53.040  34.330  53.543  0.00  0.00     0.002 A 
ATOM     20  C   UNL d   1      52.811  35.095  53.741  0.00  0.00     0.000 A 
ATOM     21  C   UNL d   1      52.989  35.396  54.495  0.00  0.00     0.000 A 
ATOM     22  C   UNL d   1      53.394  34.931  55.045  0.00  0.00     0.000 A 
ATOM     23  C   UNL d   1      52.764  36.162  54.705  0.00  0.00     0.000 C 
ATOM     24  C   UNL d   1      53.623  34.160  54.841  0.00  0.00     0.002 A 
ENDBRANCH   3  18
TORSDOF 4
ENDMDL
MODEL 6
REMARK VINA RESULT:      -7.6      2.091      5.601
REMARK  4 active torsions:
REMARK  status: ('A' for Active; 'I' for Inactive)
REMARK    1  A    between atoms: N_8  and  C_2 
REMARK    2  A    between atoms: C_9  and  C_3 
REMARK       I    between atoms: C_6  and  N_7 
REMARK    3  A    between atoms: C_11  and  C_6 
REMARK    4  A    between atoms: N_7  and  N_8 
ROOT
ATOM      1  N   UNL d   1      50.392  34.655  53.283  0.00  0.00    -0.221 NA
ATOM      2  C   UNL d   1      49.758  34.798  52.793  0.00  0.00     0.186 A 
ATOM      3  C   UNL d   1      50.930  34.226  52.858  0.00  0.00     0.090 A 
ATOM      4  S   UNL d   1      49.905  34.460  52.072  0.00  0.00    -0.047 SA
ATOM      5  C   UNL d   1      50.634  34.104  52.113  0.00  0.00     0.058 A 
ENDROOT
BRANCH   2   6
ATOM      6  N   UNL d   1      49.064  35.227  52.995  0.00  0.00    -0.275 N 
ATOM      7  H   UNL d   1      48.387  35.133  52.536  0.00  0.00     0.189 HD
BRANCH   6   8
ATOM      8  N   UNL d   1      49.068  35.732  53.649  0.00  0.00    -0.264 N 
ATOM      9  C   UNL d   1      48.401  36.199  53.795  0.00  0.00     0.271 C 
ATOM     10  O   UNL d   1      48.406  36.705  54.449  0.00  0.00    -0.266 OA
ATOM     11  H   UNL d   1      49.728  35.757  54.130  0.00  0.00     0.190 HD
BRANCH   9  12
ATOM     12  C   UNL d   1      47.749  36.166  53.309  0.00  0.00     0.057 A 
ATOM     13  C   UNL d   1      47.102  35.718  53.571  0.00  0.00     0.005 A 
ATOM     14  C   UNL d   1      46.424  35.666  53.099  0.00  0.00     0.000 A 
ATOM     15  C   UNL d   1      46.381  36.050  52.375  0.00  0.00     0.000 A 
ATOM     16  C   UNL d   1      47.044  36.504  52.117  0.00  0.00     0.000 A 
ATOM     17  C   UNL d   1      47.718  36.557  52.584  0.00  0.00     0.005 A 
ENDBRANCH   9  12
ENDBRANCH   6   8
ENDBRANCH   2   6
BRANCH   3  18
ATOM     18  C   UNL d   1      51.657  33.959  53.140  0.00  0.00     0.018 A 
ATOM     19  C   UNL d   1      52.264  34.502  53.277  0.00  0.00     0.002 A 
ATOM     20  C   UNL d   1      52.992  34.243  53.558  0.00  0.00     0.000 A 
ATOM     21  C   UNL d   1      53.112  33.433  53.705  0.00  0.00     0.000 A 
ATOM     22  C   UNL d   1      52.505  32.890  53.569  0.00  0.00     0.000 A 
ATOM     23  C   UNL d   1      53.838  33.161  53.988  0.00  0.00     0.000 C 
ATOM     24  C   UNL d   1      51.772  33.156  53.284  0.00  0.00     0.002 A 
ENDBRANCH   3  18
TORSDOF 4
ENDMDL
