MODEL 1
REMARK VINA RESULT:       1.9      0.000      0.000
REMARK  8 active torsions:
REMARK  status: ('A' for Active; 'I' for Inactive)
REMARK    1  A    between atoms: S_10  and  C_2 
REMARK    2  A    between atoms: C_7  and  C_4 
REMARK    3  A    between atoms: C_17  and  S_10 
REMARK    4  A    between atoms: C_14  and  C_17 
REMARK    5  A    between atoms: O_18  and  C_14 
REMARK    6  A    between atoms: O_19  and  C_15 
REMARK    7  A    between atoms: C_22  and  O_18 
REMARK    8  A    between atoms: C_23  and  O_19 
ROOT
ATOM      1  C   UNL d   1      57.931   0.387  31.322  0.00  0.00     0.093 A 
ATOM      2  C   UNL d   1      58.025   0.587  32.126  0.00  0.00     0.124 A 
ATOM      3  N   UNL d   1      58.783   0.681  32.439  0.00  0.00    -0.200 NA
ATOM      4  C   UNL d   1      58.596   0.286  30.843  0.00  0.00     0.028 A 
ATOM      5  C   UNL d   1      59.349   0.381  31.157  0.00  0.00     0.127 A 
ATOM      6  C   UNL d   1      59.444   0.580  31.961  0.00  0.00     0.289 A 
ATOM      7  C   UNL d   1      57.181   0.293  31.008  0.00  0.00     0.103 C 
ATOM      8  C   UNL d   1      60.013   0.279  30.678  0.00  0.00     0.106 C 
ATOM      9  N   UNL d   1      56.436   0.200  30.700  0.00  0.00    -0.191 NA
ATOM     10  N   UNL d   1      60.667   0.179  30.209  0.00  0.00    -0.191 NA
ATOM     11  O   UNL d   1      60.287   0.672  32.254  0.00  0.00    -0.264 OA
ENDROOT
BRANCH   2  12
ATOM     12  S   UNL d   1      57.292   0.681  32.580  0.00  0.00    -0.061 SA
BRANCH  12  13
ATOM     13  C   UNL d   1      57.023   0.228  33.274  0.00  0.00     0.105 C 
BRANCH  13  14
ATOM     14  C   UNL d   1      56.231   0.378  33.598  0.00  0.00     0.307 C 
ATOM     15  O   UNL d   1      55.852   0.631  33.330  0.00  0.00    -0.258 OA
BRANCH  14  16
ATOM     16  O   UNL d   1      56.108   0.072  34.421  0.00  0.00    -0.271 OA
BRANCH  16  17
ATOM     17  C   UNL d   1      55.710   0.647  34.992  0.00  0.00     0.126 C 
ATOM     18  C   UNL d   1      55.915   0.365  35.863  0.00  0.00     0.029 C 
ENDBRANCH  16  17
ENDBRANCH  14  16
ENDBRANCH  13  14
ENDBRANCH  12  13
ENDBRANCH   2  12
BRANCH   4  19
ATOM     19  C   UNL d   1      58.503   0.090  30.051  0.00  0.00     0.024 A 
ATOM     20  C   UNL d   1      58.558  -0.695  29.813  0.00  0.00     0.100 A 
ATOM     21  C   UNL d   1      58.464  -0.893  29.017  0.00  0.00     0.025 A 
ATOM     22  C   UNL d   1      58.316  -0.305  28.459  0.00  0.00     0.002 A 
ATOM     23  C   UNL d   1      58.261   0.485  28.699  0.00  0.00     0.000 A 
ATOM     24  C   UNL d   1      58.354   0.682  29.496  0.00  0.00     0.002 A 
BRANCH  20  25
ATOM     25  O   UNL d   1      58.680  -1.248  30.221  0.00  0.00    -0.305 OA
BRANCH  25  26
ATOM     26  C   UNL d   1      58.565  -1.956  29.856  0.00  0.00     0.123 C 
ATOM     27  C   UNL d   1      58.825  -2.714  30.327  0.00  0.00     0.029 C 
ENDBRANCH  25  26
ENDBRANCH  20  25
ENDBRANCH   4  19
TORSDOF 8
ENDMDL
MODEL 2
REMARK VINA RESULT:       2.7      1.172      2.024
REMARK  8 active torsions:
REMARK  status: ('A' for Active; 'I' for Inactive)
REMARK    1  A    between atoms: S_10  and  C_2 
REMARK    2  A    between atoms: C_7  and  C_4 
REMARK    3  A    between atoms: C_17  and  S_10 
REMARK    4  A    between atoms: C_14  and  C_17 
REMARK    5  A    between atoms: O_18  and  C_14 
REMARK    6  A    between atoms: O_19  and  C_15 
REMARK    7  A    between atoms: C_22  and  O_18 
REMARK    8  A    between atoms: C_23  and  O_19 
ROOT
ATOM      1  C   UNL d   1      58.448   0.171  31.392  0.00  0.00     0.093 A 
ATOM      2  C   UNL d   1      57.643   0.293  31.568  0.00  0.00     0.124 A 
ATOM      3  N   UNL d   1      57.110   0.459  30.959  0.00  0.00    -0.200 NA
ATOM      4  C   UNL d   1      58.710   0.217  30.610  0.00  0.00     0.028 A 
ATOM      5  C   UNL d   1      58.178   0.383  30.006  0.00  0.00     0.127 A 
ATOM      6  C   UNL d   1      57.373   0.504  30.181  0.00  0.00     0.289 A 
ATOM      7  C   UNL d   1      58.980   0.007  31.993  0.00  0.00     0.103 C 
ATOM      8  C   UNL d   1      58.440   0.428  29.225  0.00  0.00     0.106 C 
ATOM      9  N   UNL d   1      59.502  -0.156  32.591  0.00  0.00    -0.191 NA
ATOM     10  N   UNL d   1      58.696   0.474  28.457  0.00  0.00    -0.191 NA
ATOM     11  O   UNL d   1      56.834   0.681  29.486  0.00  0.00    -0.264 OA
ENDROOT
BRANCH   2  12
ATOM     12  S   UNL d   1      57.425   0.232  32.405  0.00  0.00    -0.061 SA
BRANCH  12  13
ATOM     13  C   UNL d   1      56.659   0.408  32.780  0.00  0.00     0.105 C 
BRANCH  13  14
ATOM     14  C   UNL d   1      56.245  -0.221  33.216  0.00  0.00     0.307 C 
ATOM     15  O   UNL d   1      56.291  -0.733  33.096  0.00  0.00    -0.258 OA
BRANCH  14  16
ATOM     16  O   UNL d   1      55.738   0.069  33.882  0.00  0.00    -0.271 OA
BRANCH  16  17
ATOM     17  C   UNL d   1      54.857   0.139  33.695  0.00  0.00     0.126 C 
ATOM     18  C   UNL d   1      54.457   0.613  34.398  0.00  0.00     0.029 C 
ENDBRANCH  16  17
ENDBRANCH  14  16
ENDBRANCH  13  14
ENDBRANCH  12  13
ENDBRANCH   2  12
BRANCH   4  19
ATOM     19  C   UNL d   1      59.504   0.098  30.437  0.00  0.00     0.024 A 
ATOM     20  C   UNL d   1      59.745  -0.602  30.080  0.00  0.00     0.100 A 
ATOM     21  C   UNL d   1      60.544  -0.723  29.906  0.00  0.00     0.025 A 
ATOM     22  C   UNL d   1      61.099  -0.143  30.090  0.00  0.00     0.002 A 
ATOM     23  C   UNL d   1      60.856   0.560  30.449  0.00  0.00     0.000 A 
ATOM     24  C   UNL d   1      60.057   0.681  30.623  0.00  0.00     0.002 A 
BRANCH  20  25
ATOM     25  O   UNL d   1      59.339  -1.138  29.894  0.00  0.00    -0.305 OA
BRANCH  25  26
ATOM     26  C   UNL d   1      59.743  -1.763  29.586  0.00  0.00     0.123 C 
ATOM     27  C   UNL d   1      59.284  -2.569  29.532  0.00  0.00     0.029 C 
ENDBRANCH  25  26
ENDBRANCH  20  25
ENDBRANCH   4  19
TORSDOF 8
ENDMDL
MODEL 3
REMARK VINA RESULT:       3.5      1.454      4.310
REMARK  8 active torsions:
REMARK  status: ('A' for Active; 'I' for Inactive)
REMARK    1  A    between atoms: S_10  and  C_2 
REMARK    2  A    between atoms: C_7  and  C_4 
REMARK    3  A    between atoms: C_17  and  S_10 
REMARK    4  A    between atoms: C_14  and  C_17 
REMARK    5  A    between atoms: O_18  and  C_14 
REMARK    6  A    between atoms: O_19  and  C_15 
REMARK    7  A    between atoms: C_22  and  O_18 
REMARK    8  A    between atoms: C_23  and  O_19 
ROOT
ATOM      1  C   UNL d   1      57.139   0.018  31.748  0.00  0.00     0.093 A 
ATOM      2  C   UNL d   1      57.895   0.122  31.414  0.00  0.00     0.124 A 
ATOM      3  N   UNL d   1      58.530   0.336  31.896  0.00  0.00    -0.200 NA
ATOM      4  C   UNL d   1      57.028   0.129  32.558  0.00  0.00     0.028 A 
ATOM      5  C   UNL d   1      57.662   0.342  33.036  0.00  0.00     0.127 A 
ATOM      6  C   UNL d   1      58.418   0.447  32.703  0.00  0.00     0.289 A 
ATOM      7  C   UNL d   1      56.506  -0.195  31.274  0.00  0.00     0.103 C 
ATOM      8  C   UNL d   1      57.551   0.453  33.846  0.00  0.00     0.106 C 
ATOM      9  N   UNL d   1      55.882  -0.405  30.800  0.00  0.00    -0.191 NA
ATOM     10  N   UNL d   1      57.444   0.562  34.642  0.00  0.00    -0.191 NA
ATOM     11  O   UNL d   1      59.076   0.679  33.267  0.00  0.00    -0.264 OA
ENDROOT
BRANCH   2  12
ATOM     12  S   UNL d   1      57.952  -0.008  30.558  0.00  0.00    -0.061 SA
BRANCH  12  13
ATOM     13  C   UNL d   1      58.602   0.206  30.020  0.00  0.00     0.105 C 
BRANCH  13  14
ATOM     14  C   UNL d   1      58.745  -0.279  29.313  0.00  0.00     0.307 C 
ATOM     15  O   UNL d   1      58.550  -0.160  28.836  0.00  0.00    -0.258 OA
BRANCH  14  16
ATOM     16  O   UNL d   1      59.248  -0.996  29.456  0.00  0.00    -0.271 OA
BRANCH  16  17
ATOM     17  C   UNL d   1      59.565  -1.400  28.713  0.00  0.00     0.126 C 
ATOM     18  C   UNL d   1      60.355  -1.845  28.951  0.00  0.00     0.029 C 
ENDBRANCH  16  17
ENDBRANCH  14  16
ENDBRANCH  13  14
ENDBRANCH  12  13
ENDBRANCH   2  12
BRANCH   4  19
ATOM     19  C   UNL d   1      56.283   0.026  32.887  0.00  0.00     0.024 A 
ATOM     20  C   UNL d   1      56.022  -0.728  33.087  0.00  0.00     0.100 A 
ATOM     21  C   UNL d   1      55.273  -0.832  33.417  0.00  0.00     0.025 A 
ATOM     22  C   UNL d   1      54.784  -0.181  33.548  0.00  0.00     0.002 A 
ATOM     23  C   UNL d   1      55.047   0.577  33.348  0.00  0.00     0.000 A 
ATOM     24  C   UNL d   1      55.797   0.680  33.017  0.00  0.00     0.002 A 
BRANCH  20  25
ATOM     25  O   UNL d   1      56.373  -1.326  33.008  0.00  0.00    -0.305 OA
BRANCH  25  26
ATOM     26  C   UNL d   1      55.919  -1.985  33.089  0.00  0.00     0.123 C 
ATOM     27  C   UNL d   1      56.202  -2.612  33.715  0.00  0.00     0.029 C 
ENDBRANCH  25  26
ENDBRANCH  20  25
ENDBRANCH   4  19
TORSDOF 8
ENDMDL
