MODEL 1
REMARK VINA RESULT:      20.1      0.000      0.000
REMARK  5 active torsions:
REMARK  status: ('A' for Active; 'I' for Inactive)
REMARK    1  A    between atoms: C_7  and  N_1 
REMARK    2  A    between atoms: C_15  and  C_3 
REMARK    3  A    between atoms: N_4  and  C_8 
REMARK    4  A    between atoms: C_10  and  C_11 
REMARK       I    between atoms: C_11  and  N_12 
REMARK    5  A    between atoms: N_12  and  C_15 
ROOT
ATOM      1  C   UNL d   1      45.725 -15.740  44.508  0.00  0.00     0.141 C 
ENDROOT
BRANCH   1   2
ATOM      2  N   UNL d   1      45.816 -16.555  44.588  0.00  0.00    -0.203 NA
ATOM      3  C   UNL d   1      46.170 -16.987  43.975  0.00  0.00     0.279 C 
ATOM      4  O   UNL d   1      46.422 -16.609  43.309  0.00  0.00    -0.265 OA
BRANCH   3   5
ATOM      5  C   UNL d   1      46.259 -17.807  44.061  0.00  0.00     0.059 A 
ATOM      6  C   UNL d   1      46.219 -18.292  43.394  0.00  0.00     0.027 A 
ATOM      7  C   UNL d   1      46.306 -19.092  43.479  0.00  0.00     0.127 A 
ATOM      8  C   UNL d   1      46.092 -17.948  42.659  0.00  0.00     0.002 C 
ATOM      9  C   UNL d   1      46.434 -19.433  44.227  0.00  0.00     0.024 A 
ATOM     10  C   UNL d   1      46.475 -18.960  44.895  0.00  0.00     0.002 A 
ATOM     11  C   UNL d   1      46.388 -18.156  44.812  0.00  0.00     0.005 A 
BRANCH   7  12
ATOM     12  N   UNL d   1      46.265 -19.562  42.814  0.00  0.00    -0.114 N 
ATOM     13  O   UNL d   1      46.532 -19.287  42.084  0.00  0.00    -0.532 OA
ATOM     14  O   UNL d   1      45.951 -20.329  42.867  0.00  0.00    -0.532 OA
ENDBRANCH   7  12
ENDBRANCH   3   5
ENDBRANCH   1   2
BRANCH   1  15
ATOM     15  C   UNL d   1      44.993 -15.389  44.658  0.00  0.00     0.191 A 
ATOM     16  N   UNL d   1      44.819 -14.589  44.644  0.00  0.00    -0.264 N 
ATOM     17  C   UNL d   1      44.030 -14.481  44.823  0.00  0.00     0.227 A 
ATOM     18  N   UNL d   1      43.695 -15.233  44.955  0.00  0.00    -0.117 NA
ATOM     19  S   UNL d   1      43.629 -13.768  44.869  0.00  0.00    -0.036 SA
ATOM     20  N   UNL d   1      44.295 -15.799  44.852  0.00  0.00    -0.126 NA
BRANCH  16  21
ATOM     21  C   UNL d   1      45.359 -13.985  44.474  0.00  0.00     0.068 A 
ATOM     22  C   UNL d   1      45.220 -13.494  43.833  0.00  0.00     0.018 A 
ATOM     23  C   UNL d   1      45.763 -12.892  43.667  0.00  0.00     0.001 A 
ATOM     24  C   UNL d   1      45.638 -12.386  43.023  0.00  0.00     0.000 C 
ATOM     25  C   UNL d   1      46.438 -12.787  44.143  0.00  0.00     0.000 A 
ATOM     26  C   UNL d   1      46.554 -13.288  44.774  0.00  0.00     0.002 A 
ATOM     27  C   UNL d   1      46.023 -13.892  44.953  0.00  0.00     0.018 A 
ENDBRANCH  16  21
ENDBRANCH   1  15
TORSDOF 5
ENDMDL
