MODEL 1
REMARK VINA RESULT:       5.5      0.000      0.000
REMARK  5 active torsions:
REMARK  status: ('A' for Active; 'I' for Inactive)
REMARK    1  A    between atoms: N_10  and  C_4 
REMARK    2  A    between atoms: C_11  and  N_5 
REMARK    3  A    between atoms: C_14  and  N_10 
REMARK    4  A    between atoms: C_15  and  C_11 
REMARK    5  A    between atoms: C_18  and  C_14 
ROOT
ATOM      1  C   UNL d   1     -41.248-121.131 -51.907  0.00  0.00     0.191 A 
ATOM      2  C   UNL d   1     -41.217-121.385 -51.166  0.00  0.00     0.174 A 
ATOM      3  N   UNL d   1     -41.310-121.639 -52.517  0.00  0.00    -0.042 NA
ATOM      4  C   UNL d   1     -41.340-122.408 -52.366  0.00  0.00     0.722 A 
ATOM      5  N   UNL d   1     -41.310-122.680 -51.604  0.00  0.00    -0.132 N 
ATOM      6  N   UNL d   1     -41.217-120.344 -52.065  0.00  0.00    -0.239 N 
ATOM      7  C   UNL d   1     -41.155-119.819 -51.477  0.00  0.00     0.358 A 
ATOM      8  N   UNL d   1     -41.124-120.077 -50.723  0.00  0.00    -0.152 NA
ATOM      9  C   UNL d   1     -41.155-120.856 -50.566  0.00  0.00     0.303 A 
ATOM     10  O   UNL d   1     -41.124-119.032 -51.634  0.00  0.00    -0.244 OA
ATOM     11  O   UNL d   1     -41.123-121.120 -49.793  0.00  0.00    -0.263 OA
ATOM     12  C   UNL d   1     -41.248-120.084 -52.827  0.00  0.00     0.105 C 
ENDROOT
BRANCH   4  13
ATOM     13  N   UNL d   1     -41.402-122.928 -52.962  0.00  0.00    -0.137 N 
ATOM     14  C   UNL d   1     -41.681-123.702 -53.034  0.00  0.00     0.118 C 
BRANCH  13  15
ATOM     15  C   UNL d   1     -41.151-122.722 -53.717  0.00  0.00     0.098 C 
BRANCH  15  16
ATOM     16  C   UNL d   1     -41.637-122.869 -54.371  0.00  0.00     0.018 A 
ATOM     17  C   UNL d   1     -41.862-123.649 -54.547  0.00  0.00     0.002 A 
ATOM     18  C   UNL d   1     -42.349-123.795 -55.201  0.00  0.00     0.000 A 
ATOM     19  C   UNL d   1     -42.607-123.165 -55.673  0.00  0.00     0.000 A 
ATOM     20  C   UNL d   1     -42.378-122.388 -55.491  0.00  0.00     0.000 A 
ATOM     21  C   UNL d   1     -41.891-122.241 -54.836  0.00  0.00     0.002 A 
ENDBRANCH  15  16
ENDBRANCH  13  15
ENDBRANCH   4  13
BRANCH   5  22
ATOM     22  C   UNL d   1     -41.310-123.303 -51.063  0.00  0.00     0.098 C 
BRANCH  22  23
ATOM     23  C   UNL d   1     -41.943-123.400 -50.542  0.00  0.00     0.018 A 
ATOM     24  C   UNL d   1     -41.787-123.559 -49.755  0.00  0.00     0.002 A 
ATOM     25  C   UNL d   1     -42.420-123.657 -49.234  0.00  0.00     0.000 A 
ATOM     26  C   UNL d   1     -42.494-123.817 -48.428  0.00  0.00     0.000 C 
ATOM     27  C   UNL d   1     -43.202-123.594 -49.508  0.00  0.00     0.000 A 
ATOM     28  C   UNL d   1     -43.337-123.433 -50.308  0.00  0.00     0.000 A 
ATOM     29  C   UNL d   1     -42.710-123.336 -50.824  0.00  0.00     0.002 A 
ENDBRANCH  22  23
ENDBRANCH   5  22
TORSDOF 5
ENDMDL
