MODEL 1
REMARK VINA RESULT:      -6.1      0.000      0.000
REMARK  3 active torsions:
REMARK  status: ('A' for Active; 'I' for Inactive)
REMARK    1  A    between atoms: N_5  and  C_1 
REMARK    2  A    between atoms: C_8  and  C_3 
REMARK       I    between atoms: C_7  and  N_5 
REMARK    3  A    between atoms: C_13  and  C_7 
ROOT
ATOM      1  C   UNL d   1      57.967  -0.227  30.428  0.00  0.00     0.297 A 
ATOM      2  O   UNL d   1      57.881  -0.276  31.250  0.00  0.00    -0.253 OA
ATOM      3  C   UNL d   1      57.253   0.221  31.470  0.00  0.00     0.206 A 
ATOM      4  N   UNL d   1      56.960   0.571  30.786  0.00  0.00    -0.119 NA
ATOM      5  N   UNL d   1      57.401   0.295  30.143  0.00  0.00    -0.101 NA
ENDROOT
BRANCH   3   6
ATOM      6  C   UNL d   1      56.978   0.338  32.246  0.00  0.00     0.043 A 
ATOM      7  C   UNL d   1      56.176   0.237  32.414  0.00  0.00     0.004 A 
ATOM      8  C   UNL d   1      55.905   0.352  33.179  0.00  0.00     0.000 A 
ATOM      9  C   UNL d   1      55.100   0.250  33.339  0.00  0.00     0.000 A 
ATOM     10  C   UNL d   1      56.435   0.566  33.769  0.00  0.00     0.000 A 
ATOM     11  C   UNL d   1      54.823   0.362  34.098  0.00  0.00     0.000 A 
ATOM     12  C   UNL d   1      55.345   0.578  34.704  0.00  0.00     0.000 A 
ATOM     13  C   UNL d   1      56.149   0.682  34.552  0.00  0.00     0.000 A 
ATOM     14  C   UNL d   1      57.224   0.667  33.617  0.00  0.00     0.000 A 
ATOM     15  C   UNL d   1      57.504   0.554  32.855  0.00  0.00     0.004 A 
ENDBRANCH   3   6
BRANCH   1  16
ATOM     16  N   UNL d   1      58.531  -0.636  29.981  0.00  0.00    -0.165 NA
ATOM     17  C   UNL d   1      58.416  -1.424  29.793  0.00  0.00     0.282 C 
ATOM     18  O   UNL d   1      57.735  -1.825  30.048  0.00  0.00    -0.265 OA
BRANCH  17  19
ATOM     19  C   UNL d   1      58.981  -1.829  29.346  0.00  0.00     0.058 A 
ATOM     20  C   UNL d   1      58.904  -2.644  29.248  0.00  0.00     0.005 A 
ATOM     21  C   UNL d   1      59.471  -3.053  28.798  0.00  0.00     0.000 A 
ATOM     22  C   UNL d   1      60.103  -2.649  28.455  0.00  0.00     0.000 A 
ATOM     23  C   UNL d   1      60.170  -1.833  28.560  0.00  0.00     0.000 A 
ATOM     24  C   UNL d   1      59.609  -1.420  29.006  0.00  0.00     0.005 A 
ENDBRANCH  17  19
ENDBRANCH   1  16
TORSDOF 3
ENDMDL
MODEL 2
REMARK VINA RESULT:      -6.0      0.644      5.351
REMARK  3 active torsions:
REMARK  status: ('A' for Active; 'I' for Inactive)
REMARK    1  A    between atoms: N_5  and  C_1 
REMARK    2  A    between atoms: C_8  and  C_3 
REMARK       I    between atoms: C_7  and  N_5 
REMARK    3  A    between atoms: C_13  and  C_7 
ROOT
ATOM      1  C   UNL d   1      57.501   0.309  30.971  0.00  0.00     0.297 A 
ATOM      2  O   UNL d   1      58.072  -0.272  30.826  0.00  0.00    -0.253 OA
ATOM      3  C   UNL d   1      58.223  -0.283  30.009  0.00  0.00     0.206 A 
ATOM      4  N   UNL d   1      57.746   0.290  29.660  0.00  0.00    -0.119 NA
ATOM      5  N   UNL d   1      57.301   0.655  30.253  0.00  0.00    -0.101 NA
ENDROOT
BRANCH   3   6
ATOM      6  C   UNL d   1      58.761  -0.785  29.623  0.00  0.00     0.043 A 
ATOM      7  C   UNL d   1      58.612  -1.597  29.593  0.00  0.00     0.004 A 
ATOM      8  C   UNL d   1      59.142  -2.092  29.212  0.00  0.00     0.000 A 
ATOM      9  C   UNL d   1      58.986  -2.904  29.186  0.00  0.00     0.000 A 
ATOM     10  C   UNL d   1      59.816  -1.775  28.866  0.00  0.00     0.000 A 
ATOM     11  C   UNL d   1      59.509  -3.403  28.809  0.00  0.00     0.000 A 
ATOM     12  C   UNL d   1      60.194  -3.098  28.455  0.00  0.00     0.000 A 
ATOM     13  C   UNL d   1      60.357  -2.289  28.477  0.00  0.00     0.000 A 
ATOM     14  C   UNL d   1      59.974  -0.981  28.889  0.00  0.00     0.000 A 
ATOM     15  C   UNL d   1      59.449  -0.478  29.267  0.00  0.00     0.004 A 
ENDBRANCH   3   6
BRANCH   1  16
ATOM     16  N   UNL d   1      57.192   0.501  31.714  0.00  0.00    -0.165 NA
ATOM     17  C   UNL d   1      56.615   0.032  32.055  0.00  0.00     0.282 C 
ATOM     18  O   UNL d   1      56.332  -0.643  31.663  0.00  0.00    -0.265 OA
BRANCH  17  19
ATOM     19  C   UNL d   1      56.309   0.227  32.798  0.00  0.00     0.058 A 
ATOM     20  C   UNL d   1      56.823   0.486  33.388  0.00  0.00     0.005 A 
ATOM     21  C   UNL d   1      56.516   0.682  34.134  0.00  0.00     0.000 A 
ATOM     22  C   UNL d   1      55.707   0.618  34.284  0.00  0.00     0.000 A 
ATOM     23  C   UNL d   1      55.202   0.358  33.687  0.00  0.00     0.000 A 
ATOM     24  C   UNL d   1      55.500   0.161  32.940  0.00  0.00     0.005 A 
ENDBRANCH  17  19
ENDBRANCH   1  16
TORSDOF 3
ENDMDL
MODEL 3
REMARK VINA RESULT:      -5.5      1.617      5.426
REMARK  3 active torsions:
REMARK  status: ('A' for Active; 'I' for Inactive)
REMARK    1  A    between atoms: N_5  and  C_1 
REMARK    2  A    between atoms: C_8  and  C_3 
REMARK       I    between atoms: C_7  and  N_5 
REMARK    3  A    between atoms: C_13  and  C_7 
ROOT
ATOM      1  C   UNL d   1      56.922  -0.067  31.660  0.00  0.00     0.297 A 
ATOM      2  O   UNL d   1      57.502   0.339  31.232  0.00  0.00    -0.253 OA
ATOM      3  C   UNL d   1      57.796  -0.174  30.650  0.00  0.00     0.206 A 
ATOM      4  N   UNL d   1      57.395  -0.889  30.723  0.00  0.00    -0.119 NA
ATOM      5  N   UNL d   1      56.856  -0.823  31.346  0.00  0.00    -0.101 NA
ENDROOT
BRANCH   3   6
ATOM      6  C   UNL d   1      58.388   0.010  30.096  0.00  0.00     0.043 A 
ATOM      7  C   UNL d   1      59.163   0.134  30.354  0.00  0.00     0.004 A 
ATOM      8  C   UNL d   1      59.747   0.315  29.808  0.00  0.00     0.000 A 
ATOM      9  C   UNL d   1      60.521   0.438  30.074  0.00  0.00     0.000 A 
ATOM     10  C   UNL d   1      59.554   0.373  29.012  0.00  0.00     0.000 A 
ATOM     11  C   UNL d   1      61.107   0.619  29.537  0.00  0.00     0.000 A 
ATOM     12  C   UNL d   1      60.928   0.680  28.730  0.00  0.00     0.000 A 
ATOM     13  C   UNL d   1      60.159   0.560  28.457  0.00  0.00     0.000 A 
ATOM     14  C   UNL d   1      58.798   0.254  28.747  0.00  0.00     0.000 A 
ATOM     15  C   UNL d   1      58.208   0.072  29.285  0.00  0.00     0.004 A 
ENDBRANCH   3   6
BRANCH   1  16
ATOM     16  N   UNL d   1      56.488   0.244  32.292  0.00  0.00    -0.165 NA
ATOM     17  C   UNL d   1      56.127  -0.256  32.831  0.00  0.00     0.282 C 
ATOM     18  O   UNL d   1      56.191  -1.080  32.751  0.00  0.00    -0.265 OA
BRANCH  17  19
ATOM     19  C   UNL d   1      55.695   0.058  33.461  0.00  0.00     0.058 A 
ATOM     20  C   UNL d   1      54.871   0.061  33.420  0.00  0.00     0.005 A 
ATOM     21  C   UNL d   1      54.435   0.375  34.053  0.00  0.00     0.000 A 
ATOM     22  C   UNL d   1      54.821   0.682  34.715  0.00  0.00     0.000 A 
ATOM     23  C   UNL d   1      55.645   0.674  34.746  0.00  0.00     0.000 A 
ATOM     24  C   UNL d   1      56.086   0.361  34.119  0.00  0.00     0.005 A 
ENDBRANCH  17  19
ENDBRANCH   1  16
TORSDOF 3
ENDMDL
