MODEL 1
REMARK VINA RESULT:      10.5      0.000      0.000
REMARK  4 active torsions:
REMARK  status: ('A' for Active; 'I' for Inactive)
REMARK       I    between atoms: C_6  and  N_7 
REMARK    1  A    between atoms: C_8  and  C_6 
REMARK    2  A    between atoms: N_7  and  C_14 
REMARK    3  A    between atoms: C_14  and  C_13 
REMARK    4  A    between atoms: O_17  and  C_15 
ROOT
ATOM      1  C   UNL d   1      46.147 -18.010  44.244  0.00  0.00     0.279 C 
ATOM      2  N   UNL d   1      46.180 -17.189  44.203  0.00  0.00    -0.206 NA
ATOM      3  O   UNL d   1      45.948 -18.378  44.955  0.00  0.00    -0.265 OA
ENDROOT
BRANCH   2   4
ATOM      4  C   UNL d   1      46.015 -16.731  44.867  0.00  0.00     0.102 C 
BRANCH   4   5
ATOM      5  C   UNL d   1      45.700 -15.973  44.781  0.00  0.00     0.019 A 
ATOM      6  C   UNL d   1      44.901 -15.834  44.932  0.00  0.00     0.003 A 
ATOM      7  C   UNL d   1      44.593 -15.068  44.843  0.00  0.00     0.019 A 
ATOM      8  C   UNL d   1      45.081 -14.449  44.605  0.00  0.00     0.081 A 
ATOM      9  C   UNL d   1      45.880 -14.589  44.454  0.00  0.00     0.019 A 
ATOM     10  N   UNL d   1      44.925 -13.653  44.476  0.00  0.00    -0.246 NA
ATOM     11  C   UNL d   1      46.191 -15.347  44.541  0.00  0.00     0.003 A 
ATOM     12  C   UNL d   1      46.221 -13.871  44.229  0.00  0.00     0.021 A 
ATOM     13  C   UNL d   1      45.632 -13.295  44.243  0.00  0.00     0.082 A 
ATOM     14  C   UNL d   1      45.730 -12.497  44.056  0.00  0.00     0.021 C 
ENDBRANCH   4   5
ENDBRANCH   2   4
BRANCH   1  15
ATOM     15  C   UNL d   1      46.313 -18.461  43.575  0.00  0.00     0.060 A 
ATOM     16  C   UNL d   1      46.395 -18.095  42.840  0.00  0.00     0.029 A 
ATOM     17  C   UNL d   1      46.561 -18.547  42.175  0.00  0.00     0.094 A 
ATOM     18  C   UNL d   1      46.647 -19.378  42.243  0.00  0.00     0.024 A 
ATOM     19  C   UNL d   1      46.565 -19.744  42.978  0.00  0.00     0.002 A 
ATOM     20  C   UNL d   1      46.396 -19.283  43.652  0.00  0.00     0.005 A 
BRANCH  17  21
ATOM     21  O   UNL d   1      46.645 -18.186  41.433  0.00  0.00    -0.328 OA
ATOM     22  C   UNL d   1      46.601 -18.637  40.741  0.00  0.00     0.181 C 
ENDBRANCH  17  21
ENDBRANCH   1  15
TORSDOF 4
ENDMDL
MODEL 2
REMARK VINA RESULT:      12.2      1.691      4.725
REMARK  4 active torsions:
REMARK  status: ('A' for Active; 'I' for Inactive)
REMARK       I    between atoms: C_6  and  N_7 
REMARK    1  A    between atoms: C_8  and  C_6 
REMARK    2  A    between atoms: N_7  and  C_14 
REMARK    3  A    between atoms: C_14  and  C_13 
REMARK    4  A    between atoms: O_17  and  C_15 
ROOT
ATOM      1  C   UNL d   1      45.294 -15.150  44.677  0.00  0.00     0.279 C 
ATOM      2  N   UNL d   1      45.851 -15.754  44.727  0.00  0.00    -0.206 NA
ATOM      3  O   UNL d   1      44.504 -15.306  44.856  0.00  0.00    -0.265 OA
ENDROOT
BRANCH   2   4
ATOM      4  C   UNL d   1      45.626 -16.512  44.955  0.00  0.00     0.102 C 
BRANCH   4   5
ATOM      5  C   UNL d   1      45.893 -17.169  44.533  0.00  0.00     0.019 A 
ATOM      6  C   UNL d   1      46.204 -17.822  44.931  0.00  0.00     0.003 A 
ATOM      7  C   UNL d   1      46.471 -18.479  44.499  0.00  0.00     0.019 A 
ATOM      8  C   UNL d   1      46.426 -18.480  43.676  0.00  0.00     0.081 A 
ATOM      9  C   UNL d   1      46.115 -17.828  43.279  0.00  0.00     0.019 A 
ATOM     10  N   UNL d   1      46.645 -19.046  43.121  0.00  0.00    -0.246 NA
ATOM     11  C   UNL d   1      45.849 -17.174  43.703  0.00  0.00     0.003 A 
ATOM     12  C   UNL d   1      46.143 -17.992  42.470  0.00  0.00     0.021 A 
ATOM     13  C   UNL d   1      46.469 -18.742  42.374  0.00  0.00     0.082 A 
ATOM     14  C   UNL d   1      46.599 -19.125  41.654  0.00  0.00     0.021 C 
ENDBRANCH   4   5
ENDBRANCH   2   4
BRANCH   1  15
ATOM     15  C   UNL d   1      45.527 -14.395  44.448  0.00  0.00     0.060 A 
ATOM     16  C   UNL d   1      45.066 -13.963  43.917  0.00  0.00     0.029 A 
ATOM     17  C   UNL d   1      45.301 -13.210  43.691  0.00  0.00     0.094 A 
ATOM     18  C   UNL d   1      46.007 -12.880  43.999  0.00  0.00     0.024 A 
ATOM     19  C   UNL d   1      46.468 -13.311  44.530  0.00  0.00     0.002 A 
ATOM     20  C   UNL d   1      46.228 -14.077  44.758  0.00  0.00     0.005 A 
BRANCH  17  21
ATOM     21  O   UNL d   1      44.842 -12.770  43.157  0.00  0.00    -0.328 OA
ATOM     22  C   UNL d   1      45.170 -12.126  42.756  0.00  0.00     0.181 C 
ENDBRANCH  17  21
ENDBRANCH   1  15
TORSDOF 4
ENDMDL
