MODEL 1
REMARK VINA RESULT:      58.4      0.000      0.000
REMARK  5 active torsions:
REMARK  status: ('A' for Active; 'I' for Inactive)
REMARK    1  A    between atoms: N_2  and  C_1 
REMARK    2  A    between atoms: C_8  and  C_1 
REMARK    3  A    between atoms: O_5  and  N_2 
REMARK    4  A    between atoms: C_3  and  O_5 
REMARK    5  A    between atoms: C_4  and  C_3 
ROOT
ATOM      1  C   UNL d   1      61.319  47.534  50.702  0.00  0.00     0.319 C 
ATOM      2  O   UNL d   1      61.606  47.689  51.546  0.00  0.00    -0.257 OA
ENDROOT
BRANCH   1   3
ATOM      3  O   UNL d   1      60.840  48.178  50.270  0.00  0.00    -0.168 OA
BRANCH   3   4
ATOM      4  N   UNL d   1      60.381  48.712  50.698  0.00  0.00    -0.100 NA
BRANCH   4   5
ATOM      5  C   UNL d   1      59.946  49.282  50.289  0.00  0.00     0.228 C 
ATOM      6  N   UNL d   1      60.291  49.708  49.662  0.00  0.00    -0.123 N 
BRANCH   5   7
ATOM      7  C   UNL d   1      59.165  49.423  50.512  0.00  0.00     0.121 A 
ATOM      8  N   UNL d   1      58.588  49.416  49.926  0.00  0.00    -0.241 NA
ATOM      9  C   UNL d   1      57.787  49.558  50.135  0.00  0.00     0.099 A 
ATOM     10  C   UNL d   1      57.594  49.702  50.927  0.00  0.00     0.021 A 
ATOM     11  C   UNL d   1      58.183  49.705  51.498  0.00  0.00     0.003 A 
ATOM     12  C   UNL d   1      58.963  49.566  51.284  0.00  0.00     0.022 A 
ENDBRANCH   5   7
ENDBRANCH   4   5
ENDBRANCH   3   4
ENDBRANCH   1   3
BRANCH   1  13
ATOM     13  C   UNL d   1      61.485  46.817  50.319  0.00  0.00     0.065 A 
ATOM     14  C   UNL d   1      62.102  46.798  49.772  0.00  0.00     0.005 A 
ATOM     15  C   UNL d   1      62.273  46.089  49.387  0.00  0.00     0.000 A 
ATOM     16  C   UNL d   1      62.892  46.046  48.831  0.00  0.00     0.000 C 
ATOM     17  C   UNL d   1      61.839  45.416  49.545  0.00  0.00     0.000 A 
ATOM     18  C   UNL d   1      61.227  45.445  50.090  0.00  0.00     0.000 A 
ATOM     19  C   UNL d   1      61.997  44.688  49.165  0.00  0.00     0.000 C 
ATOM     20  C   UNL d   1      61.052  46.147  50.476  0.00  0.00     0.005 A 
ENDBRANCH   1  13
TORSDOF 5
ENDMDL
