MODEL 1
REMARK VINA RESULT:      -7.6      0.000      0.000
REMARK  4 active torsions:
REMARK  status: ('A' for Active; 'I' for Inactive)
REMARK    1  A    between atoms: N_2  and  S_1 
REMARK    2  A    between atoms: C_4  and  S_1 
REMARK    3  A    between atoms: C_3  and  C_8 
REMARK       I    between atoms: N_5  and  C_3 
REMARK    4  A    between atoms: C_17  and  N_5 
ROOT
ATOM      1  C   UNL d   1     -46.415  12.011  23.281  0.00  0.00     0.104 A 
ATOM      2  C   UNL d   1     -47.819  12.870  23.227  0.00  0.00     0.058 A 
ATOM      3  C   UNL d   1     -46.455  12.737  22.864  0.00  0.00     0.013 A 
ATOM      4  C   UNL d   1     -47.095  11.721  23.673  0.00  0.00     0.013 A 
ATOM      5  C   UNL d   1     -47.158  13.156  22.843  0.00  0.00     0.005 A 
ATOM      6  C   UNL d   1     -47.798  12.146  23.649  0.00  0.00     0.005 A 
ENDROOT
BRANCH   1   7
ATOM      7  S   UNL d   1     -45.707  11.571  23.312  0.00  0.00     0.272 S 
ATOM      8  O   UNL d   1     -46.104  10.927  23.676  0.00  0.00    -0.200 OA
ATOM      9  O   UNL d   1     -45.298  12.214  22.946  0.00  0.00    -0.200 OA
BRANCH   7  10
ATOM     10  N   UNL d   1     -44.986  11.144  23.334  0.00  0.00    -0.225 N 
ATOM     11  C   UNL d   1     -44.296  11.479  23.028  0.00  0.00     0.118 A 
ATOM     12  C   UNL d   1     -43.600  11.054  23.055  0.00  0.00     0.142 A 
ATOM     13  O   UNL d   1     -43.582  10.276  23.395  0.00  0.00    -0.300 OA
ATOM     14  C   UNL d   1     -44.261   9.943  23.698  0.00  0.00     0.142 A 
ATOM     15  C   UNL d   1     -44.968  10.365  23.674  0.00  0.00     0.118 A 
ENDBRANCH   7  10
ENDBRANCH   1   7
BRANCH   2  16
ATOM     16  C   UNL d   1     -48.538  13.291  23.211  0.00  0.00     0.279 C 
ATOM     17  N   UNL d   1     -48.609  13.994  22.791  0.00  0.00    -0.208 NA
ATOM     18  O   UNL d   1     -49.179  12.981  23.630  0.00  0.00    -0.265 OA
BRANCH  17  19
ATOM     19  C   UNL d   1     -49.328  14.415  22.775  0.00  0.00     0.085 A 
ATOM     20  C   UNL d   1     -49.426  15.066  23.274  0.00  0.00     0.019 A 
ATOM     21  C   UNL d   1     -50.132  15.494  23.271  0.00  0.00     0.002 A 
ATOM     22  C   UNL d   1     -50.733  15.261  22.763  0.00  0.00     0.000 A 
ATOM     23  C   UNL d   1     -50.635  14.611  22.263  0.00  0.00     0.002 A 
ATOM     24  C   UNL d   1     -49.936  14.193  22.272  0.00  0.00     0.019 A 
ENDBRANCH  17  19
ENDBRANCH   2  16
TORSDOF 4
ENDMDL
MODEL 2
REMARK VINA RESULT:      -7.5      1.361      5.558
REMARK  4 active torsions:
REMARK  status: ('A' for Active; 'I' for Inactive)
REMARK    1  A    between atoms: N_2  and  S_1 
REMARK    2  A    between atoms: C_4  and  S_1 
REMARK    3  A    between atoms: C_3  and  C_8 
REMARK       I    between atoms: N_5  and  C_3 
REMARK    4  A    between atoms: C_17  and  N_5 
ROOT
ATOM      1  C   UNL d   1     -48.148  13.860  22.966  0.00  0.00     0.104 A 
ATOM      2  C   UNL d   1     -46.760  12.972  22.978  0.00  0.00     0.058 A 
ATOM      3  C   UNL d   1     -48.177  13.023  22.989  0.00  0.00     0.013 A 
ATOM      4  C   UNL d   1     -47.406  14.247  22.949  0.00  0.00     0.013 A 
ATOM      5  C   UNL d   1     -47.481  12.591  22.995  0.00  0.00     0.005 A 
ATOM      6  C   UNL d   1     -46.711  13.809  22.956  0.00  0.00     0.005 A 
ENDROOT
BRANCH   1   7
ATOM      7  S   UNL d   1     -48.846  14.316  22.959  0.00  0.00     0.272 S 
ATOM      8  O   UNL d   1     -49.269  13.705  23.349  0.00  0.00    -0.200 OA
ATOM      9  O   UNL d   1     -48.429  14.938  22.567  0.00  0.00    -0.200 OA
BRANCH   7  10
ATOM     10  N   UNL d   1     -49.537  14.789  22.943  0.00  0.00    -0.225 N 
ATOM     11  C   UNL d   1     -49.600  15.448  23.437  0.00  0.00     0.118 A 
ATOM     12  C   UNL d   1     -50.279  15.902  23.412  0.00  0.00     0.142 A 
ATOM     13  O   UNL d   1     -50.914  15.701  22.885  0.00  0.00    -0.300 OA
ATOM     14  C   UNL d   1     -50.854  15.051  22.398  0.00  0.00     0.142 A 
ATOM     15  C   UNL d   1     -50.173  14.588  22.416  0.00  0.00     0.118 A 
ENDBRANCH   7  10
ENDBRANCH   1   7
BRANCH   2  16
ATOM     16  C   UNL d   1     -46.048  12.540  22.984  0.00  0.00     0.279 C 
ATOM     17  N   UNL d   1     -46.012  11.785  23.309  0.00  0.00    -0.208 NA
ATOM     18  O   UNL d   1     -45.377  12.891  22.654  0.00  0.00    -0.265 OA
BRANCH  17  19
ATOM     19  C   UNL d   1     -45.300  11.352  23.315  0.00  0.00     0.085 A 
ATOM     20  C   UNL d   1     -45.280  10.613  23.683  0.00  0.00     0.019 A 
ATOM     21  C   UNL d   1     -44.583  10.171  23.698  0.00  0.00     0.002 A 
ATOM     22  C   UNL d   1     -43.911  10.480  23.341  0.00  0.00     0.000 A 
ATOM     23  C   UNL d   1     -43.931  11.219  22.972  0.00  0.00     0.002 A 
ATOM     24  C   UNL d   1     -44.623  11.650  22.962  0.00  0.00     0.019 A 
ENDBRANCH  17  19
ENDBRANCH   2  16
TORSDOF 4
ENDMDL
MODEL 3
REMARK VINA RESULT:      -6.5      1.866      5.231
REMARK  4 active torsions:
REMARK  status: ('A' for Active; 'I' for Inactive)
REMARK    1  A    between atoms: N_2  and  S_1 
REMARK    2  A    between atoms: C_4  and  S_1 
REMARK    3  A    between atoms: C_3  and  C_8 
REMARK       I    between atoms: N_5  and  C_3 
REMARK    4  A    between atoms: C_17  and  N_5 
ROOT
ATOM      1  C   UNL d   1     -47.843  12.960  22.915  0.00  0.00     0.104 A 
ATOM      2  C   UNL d   1     -46.242  13.091  22.550  0.00  0.00     0.058 A 
ATOM      3  C   UNL d   1     -47.263  12.615  23.411  0.00  0.00     0.013 A 
ATOM      4  C   UNL d   1     -47.606  13.376  22.228  0.00  0.00     0.013 A 
ATOM      5  C   UNL d   1     -46.469  12.686  23.220  0.00  0.00     0.005 A 
ATOM      6  C   UNL d   1     -46.808  13.444  22.041  0.00  0.00     0.005 A 
ENDROOT
BRANCH   1   7
ATOM      7  S   UNL d   1     -48.655  12.898  23.093  0.00  0.00     0.272 S 
ATOM      8  O   UNL d   1     -48.845  13.468  22.508  0.00  0.00    -0.200 OA
ATOM      9  O   UNL d   1     -48.475  12.323  23.686  0.00  0.00    -0.200 OA
BRANCH   7  10
ATOM     10  N   UNL d   1     -49.467  12.821  23.287  0.00  0.00    -0.225 N 
ATOM     11  C   UNL d   1     -49.914  13.490  23.474  0.00  0.00     0.118 A 
ATOM     12  C   UNL d   1     -50.704  13.403  23.661  0.00  0.00     0.142 A 
ATOM     13  O   UNL d   1     -51.064  12.634  23.665  0.00  0.00    -0.300 OA
ATOM     14  C   UNL d   1     -50.625  11.973  23.482  0.00  0.00     0.142 A 
ATOM     15  C   UNL d   1     -49.828  12.052  23.292  0.00  0.00     0.118 A 
ENDBRANCH   7  10
ENDBRANCH   1   7
BRANCH   2  16
ATOM     16  C   UNL d   1     -45.437  13.168  22.349  0.00  0.00     0.279 C 
ATOM     17  N   UNL d   1     -45.020  12.540  22.019  0.00  0.00    -0.208 NA
ATOM     18  O   UNL d   1     -45.068  13.893  22.491  0.00  0.00    -0.265 OA
BRANCH  17  19
ATOM     19  C   UNL d   1     -44.215  12.617  21.818  0.00  0.00     0.085 A 
ATOM     20  C   UNL d   1     -43.656  12.148  22.206  0.00  0.00     0.019 A 
ATOM     21  C   UNL d   1     -42.855  12.211  22.020  0.00  0.00     0.002 A 
ATOM     22  C   UNL d   1     -42.624  12.747  21.442  0.00  0.00     0.000 A 
ATOM     23  C   UNL d   1     -43.182  13.216  21.054  0.00  0.00     0.002 A 
ATOM     24  C   UNL d   1     -43.972  13.148  21.244  0.00  0.00     0.019 A 
ENDBRANCH  17  19
ENDBRANCH   2  16
TORSDOF 4
ENDMDL
MODEL 4
REMARK VINA RESULT:      -5.6      8.694      9.917
REMARK  4 active torsions:
REMARK  status: ('A' for Active; 'I' for Inactive)
REMARK    1  A    between atoms: N_2  and  S_1 
REMARK    2  A    between atoms: C_4  and  S_1 
REMARK    3  A    between atoms: C_3  and  C_8 
REMARK       I    between atoms: N_5  and  C_3 
REMARK    4  A    between atoms: C_17  and  N_5 
ROOT
ATOM      1  C   UNL d   1     -39.868  15.208  18.769  0.00  0.00     0.104 A 
ATOM      2  C   UNL d   1     -39.183  14.847  20.223  0.00  0.00     0.058 A 
ATOM      3  C   UNL d   1     -39.408  14.514  18.863  0.00  0.00     0.013 A 
ATOM      4  C   UNL d   1     -39.979  15.722  19.421  0.00  0.00     0.013 A 
ATOM      5  C   UNL d   1     -39.072  14.344  19.590  0.00  0.00     0.005 A 
ATOM      6  C   UNL d   1     -39.639  15.546  20.148  0.00  0.00     0.005 A 
ENDROOT
BRANCH   1   7
ATOM      7  S   UNL d   1     -40.218  15.398  18.036  0.00  0.00     0.272 S 
ATOM      8  O   UNL d   1     -39.572  15.896  17.837  0.00  0.00    -0.200 OA
ATOM      9  O   UNL d   1     -40.873  14.898  18.226  0.00  0.00    -0.200 OA
BRANCH   7  10
ATOM     10  N   UNL d   1     -40.585  15.575  17.304  0.00  0.00    -0.225 N 
ATOM     11  C   UNL d   1     -41.394  15.740  17.276  0.00  0.00     0.118 A 
ATOM     12  C   UNL d   1     -41.741  15.912  16.557  0.00  0.00     0.142 A 
ATOM     13  O   UNL d   1     -41.278  15.922  15.844  0.00  0.00    -0.300 OA
ATOM     14  C   UNL d   1     -40.480  15.760  15.871  0.00  0.00     0.142 A 
ATOM     15  C   UNL d   1     -40.122  15.585  16.592  0.00  0.00     0.118 A 
ENDBRANCH   7  10
ENDBRANCH   1   7
BRANCH   2  16
ATOM     16  C   UNL d   1     -38.844  14.681  20.965  0.00  0.00     0.279 C 
ATOM     17  N   UNL d   1     -39.144  14.083  21.445  0.00  0.00    -0.208 NA
ATOM     18  O   UNL d   1     -38.197  15.134  21.208  0.00  0.00    -0.265 OA
BRANCH  17  19
ATOM     19  C   UNL d   1     -38.805  13.917  22.188  0.00  0.00     0.085 A 
ATOM     20  C   UNL d   1     -38.285  13.279  22.260  0.00  0.00     0.019 A 
ATOM     21  C   UNL d   1     -37.941  13.100  22.989  0.00  0.00     0.002 A 
ATOM     22  C   UNL d   1     -38.124  13.567  23.638  0.00  0.00     0.000 A 
ATOM     23  C   UNL d   1     -38.644  14.205  23.566  0.00  0.00     0.002 A 
ATOM     24  C   UNL d   1     -38.980  14.376  22.843  0.00  0.00     0.019 A 
ENDBRANCH  17  19
ENDBRANCH   2  16
TORSDOF 4
ENDMDL
MODEL 5
REMARK VINA RESULT:      -5.1      8.754     10.594
REMARK  4 active torsions:
REMARK  status: ('A' for Active; 'I' for Inactive)
REMARK    1  A    between atoms: N_2  and  S_1 
REMARK    2  A    between atoms: C_4  and  S_1 
REMARK    3  A    between atoms: C_3  and  C_8 
REMARK       I    between atoms: N_5  and  C_3 
REMARK    4  A    between atoms: C_17  and  N_5 
ROOT
ATOM      1  C   UNL d   1     -38.882  14.643  19.716  0.00  0.00     0.104 A 
ATOM      2  C   UNL d   1     -38.791  14.419  18.087  0.00  0.00     0.058 A 
ATOM      3  C   UNL d   1     -38.433  14.011  19.398  0.00  0.00     0.013 A 
ATOM      4  C   UNL d   1     -39.287  15.165  19.201  0.00  0.00     0.013 A 
ATOM      5  C   UNL d   1     -38.395  13.909  18.586  0.00  0.00     0.005 A 
ATOM      6  C   UNL d   1     -39.244  15.056  18.387  0.00  0.00     0.005 A 
ENDROOT
BRANCH   1   7
ATOM      7  S   UNL d   1     -38.933  14.763  20.540  0.00  0.00     0.272 S 
ATOM      8  O   UNL d   1     -39.747  14.559  20.537  0.00  0.00    -0.200 OA
ATOM      9  O   UNL d   1     -38.113  14.971  20.555  0.00  0.00    -0.200 OA
BRANCH   7  10
ATOM     10  N   UNL d   1     -38.963  14.889  21.368  0.00  0.00    -0.225 N 
ATOM     11  C   UNL d   1     -38.842  15.645  21.678  0.00  0.00     0.118 A 
ATOM     12  C   UNL d   1     -38.874  15.755  22.486  0.00  0.00     0.142 A 
ATOM     13  O   UNL d   1     -39.031  15.101  23.005  0.00  0.00    -0.300 OA
ATOM     14  C   UNL d   1     -39.152  14.355  22.702  0.00  0.00     0.142 A 
ATOM     15  C   UNL d   1     -39.121  14.235  21.887  0.00  0.00     0.118 A 
ENDBRANCH   7  10
ENDBRANCH   1   7
BRANCH   2  16
ATOM     16  C   UNL d   1     -38.756  14.321  17.261  0.00  0.00     0.279 C 
ATOM     17  N   UNL d   1     -38.049  14.418  16.850  0.00  0.00    -0.208 NA
ATOM     18  O   UNL d   1     -39.452  14.123  16.863  0.00  0.00    -0.265 OA
BRANCH  17  19
ATOM     19  C   UNL d   1     -38.015  14.319  16.024  0.00  0.00     0.085 A 
ATOM     20  C   UNL d   1     -37.976  13.557  15.709  0.00  0.00     0.019 A 
ATOM     21  C   UNL d   1     -37.942  13.441  14.893  0.00  0.00     0.002 A 
ATOM     22  C   UNL d   1     -37.945  14.098  14.400  0.00  0.00     0.000 A 
ATOM     23  C   UNL d   1     -37.983  14.861  14.714  0.00  0.00     0.002 A 
ATOM     24  C   UNL d   1     -38.018  14.967  15.522  0.00  0.00     0.019 A 
ENDBRANCH  17  19
ENDBRANCH   2  16
TORSDOF 4
ENDMDL
MODEL 6
REMARK VINA RESULT:      -5.0      8.795     10.425
REMARK  4 active torsions:
REMARK  status: ('A' for Active; 'I' for Inactive)
REMARK    1  A    between atoms: N_2  and  S_1 
REMARK    2  A    between atoms: C_4  and  S_1 
REMARK    3  A    between atoms: C_3  and  C_8 
REMARK       I    between atoms: N_5  and  C_3 
REMARK    4  A    between atoms: C_17  and  N_5 
ROOT
ATOM      1  C   UNL d   1     -38.600  14.519  18.187  0.00  0.00     0.104 A 
ATOM      2  C   UNL d   1     -38.902  14.444  19.804  0.00  0.00     0.058 A 
ATOM      3  C   UNL d   1     -39.386  14.557  18.476  0.00  0.00     0.013 A 
ATOM      4  C   UNL d   1     -37.964  14.442  18.725  0.00  0.00     0.013 A 
ATOM      5  C   UNL d   1     -39.525  14.519  19.282  0.00  0.00     0.005 A 
ATOM      6  C   UNL d   1     -38.109  14.405  19.533  0.00  0.00     0.005 A 
ENDROOT
BRANCH   1   7
ATOM      7  S   UNL d   1     -38.440  14.557  17.369  0.00  0.00     0.272 S 
ATOM      8  O   UNL d   1     -38.376  13.721  17.326  0.00  0.00    -0.200 OA
ATOM      9  O   UNL d   1     -38.502  15.399  17.401  0.00  0.00    -0.200 OA
BRANCH   7  10
ATOM     10  N   UNL d   1     -38.280  14.615  16.548  0.00  0.00    -0.225 N 
ATOM     11  C   UNL d   1     -38.121  15.350  16.208  0.00  0.00     0.118 A 
ATOM     12  C   UNL d   1     -37.966  15.395  15.408  0.00  0.00     0.142 A 
ATOM     13  O   UNL d   1     -37.969  14.693  14.927  0.00  0.00    -0.300 OA
ATOM     14  C   UNL d   1     -38.127  13.967  15.261  0.00  0.00     0.142 A 
ATOM     15  C   UNL d   1     -38.283  13.914  16.068  0.00  0.00     0.118 A 
ENDBRANCH   7  10
ENDBRANCH   1   7
BRANCH   2  16
ATOM     16  C   UNL d   1     -39.035  14.405  20.625  0.00  0.00     0.279 C 
ATOM     17  N   UNL d   1     -38.466  14.099  21.134  0.00  0.00    -0.208 NA
ATOM     18  O   UNL d   1     -39.757  14.683  20.916  0.00  0.00    -0.265 OA
BRANCH  17  19
ATOM     19  C   UNL d   1     -38.600  14.059  21.956  0.00  0.00     0.085 A 
ATOM     20  C   UNL d   1     -38.359  14.688  22.434  0.00  0.00     0.019 A 
ATOM     21  C   UNL d   1     -38.483  14.665  23.250  0.00  0.00     0.002 A 
ATOM     22  C   UNL d   1     -38.850  14.007  23.576  0.00  0.00     0.000 A 
ATOM     23  C   UNL d   1     -39.091  13.379  23.097  0.00  0.00     0.002 A 
ATOM     24  C   UNL d   1     -38.965  13.408  22.293  0.00  0.00     0.019 A 
ENDBRANCH  17  19
ENDBRANCH   2  16
TORSDOF 4
ENDMDL
MODEL 7
REMARK VINA RESULT:      -4.8      8.443      9.058
REMARK  4 active torsions:
REMARK  status: ('A' for Active; 'I' for Inactive)
REMARK    1  A    between atoms: N_2  and  S_1 
REMARK    2  A    between atoms: C_4  and  S_1 
REMARK    3  A    between atoms: C_3  and  C_8 
REMARK       I    between atoms: N_5  and  C_3 
REMARK    4  A    between atoms: C_17  and  N_5 
ROOT
ATOM      1  C   UNL d   1     -39.052  14.514  20.704  0.00  0.00     0.104 A 
ATOM      2  C   UNL d   1     -39.545  15.051  19.227  0.00  0.00     0.058 A 
ATOM      3  C   UNL d   1     -38.645  14.283  20.009  0.00  0.00     0.013 A 
ATOM      4  C   UNL d   1     -39.716  15.021  20.646  0.00  0.00     0.013 A 
ATOM      5  C   UNL d   1     -38.898  14.556  19.279  0.00  0.00     0.005 A 
ATOM      6  C   UNL d   1     -39.965  15.292  19.911  0.00  0.00     0.005 A 
ENDROOT
BRANCH   1   7
ATOM      7  S   UNL d   1     -38.808  14.246  21.455  0.00  0.00     0.272 S 
ATOM      8  O   UNL d   1     -39.592  14.012  21.645  0.00  0.00    -0.200 OA
ATOM      9  O   UNL d   1     -38.016  14.478  21.274  0.00  0.00    -0.200 OA
BRANCH   7  10
ATOM     10  N   UNL d   1     -38.544  13.982  22.206  0.00  0.00    -0.225 N 
ATOM     11  C   UNL d   1     -38.332  13.192  22.316  0.00  0.00     0.118 A 
ATOM     12  C   UNL d   1     -38.075  12.947  23.052  0.00  0.00     0.142 A 
ATOM     13  O   UNL d   1     -38.026  13.497  23.698  0.00  0.00    -0.300 OA
ATOM     14  C   UNL d   1     -38.235  14.277  23.590  0.00  0.00     0.142 A 
ATOM     15  C   UNL d   1     -38.495  14.532  22.852  0.00  0.00     0.118 A 
ENDBRANCH   7  10
ENDBRANCH   1   7
BRANCH   2  16
ATOM     16  C   UNL d   1     -39.809  15.332  18.489  0.00  0.00     0.279 C 
ATOM     17  N   UNL d   1     -40.530  15.091  18.174  0.00  0.00    -0.208 NA
ATOM     18  O   UNL d   1     -39.325  15.862  18.079  0.00  0.00    -0.265 OA
BRANCH  17  19
ATOM     19  C   UNL d   1     -40.794  15.372  17.436  0.00  0.00     0.085 A 
ATOM     20  C   UNL d   1     -40.272  15.373  16.795  0.00  0.00     0.019 A 
ATOM     21  C   UNL d   1     -40.517  15.649  16.056  0.00  0.00     0.002 A 
ATOM     22  C   UNL d   1     -41.287  15.921  15.971  0.00  0.00     0.000 A 
ATOM     23  C   UNL d   1     -41.808  15.920  16.612  0.00  0.00     0.002 A 
ATOM     24  C   UNL d   1     -41.559  15.647  17.338  0.00  0.00     0.019 A 
ENDBRANCH  17  19
ENDBRANCH   2  16
TORSDOF 4
ENDMDL
