MODEL 1
REMARK VINA RESULT:      -6.7      0.000      0.000
REMARK  7 active torsions:
REMARK  status: ('A' for Active; 'I' for Inactive)
REMARK    1  A    between atoms: O_9  and  N_1 
REMARK    2  A    between atoms: C_8  and  O_11 
REMARK    3  A    between atoms: C_15  and  O_9 
REMARK    4  A    between atoms: O_11  and  C_16 
REMARK    5  A    between atoms: C_18  and  C_15 
REMARK    6  A    between atoms: C_16  and  C_17 
REMARK    7  A    between atoms: C_17  and  C_18 
ROOT
ATOM      1  N   UNL d   1     -48.365  12.929  23.121  0.00  0.00    -0.139 N 
ATOM      2  C   UNL d   1     -48.700  12.184  23.285  0.00  0.00     0.287 A 
ATOM      3  C   UNL d   1     -48.970  13.495  23.151  0.00  0.00     0.287 A 
ATOM      4  C   UNL d   1     -49.510  12.296  23.415  0.00  0.00     0.063 A 
ATOM      5  C   UNL d   1     -49.676  13.103  23.332  0.00  0.00     0.063 A 
ATOM      6  O   UNL d   1     -48.925  14.312  23.029  0.00  0.00    -0.265 OA
ATOM      7  O   UNL d   1     -48.336  11.451  23.321  0.00  0.00    -0.265 OA
ATOM      8  C   UNL d   1     -50.449  13.378  23.432  0.00  0.00     0.005 A 
ATOM      9  C   UNL d   1     -50.118  11.766  23.597  0.00  0.00     0.005 A 
ATOM     10  C   UNL d   1     -51.053  12.848  23.614  0.00  0.00     0.000 A 
ATOM     11  C   UNL d   1     -50.887  12.041  23.697  0.00  0.00     0.000 A 
ENDROOT
BRANCH   1  12
ATOM     12  O   UNL d   1     -47.571  13.075  22.958  0.00  0.00    -0.221 OA
BRANCH  12  13
ATOM     13  C   UNL d   1     -46.972  13.219  22.406  0.00  0.00     0.148 C 
BRANCH  13  14
ATOM     14  C   UNL d   1     -46.185  13.199  22.649  0.00  0.00     0.031 C 
BRANCH  14  15
ATOM     15  C   UNL d   1     -45.585  13.352  22.107  0.00  0.00     0.029 C 
BRANCH  15  16
ATOM     16  C   UNL d   1     -44.897  12.900  22.120  0.00  0.00     0.126 C 
BRANCH  16  17
ATOM     17  O   UNL d   1     -44.231  13.160  21.708  0.00  0.00    -0.271 OA
BRANCH  17  18
ATOM     18  C   UNL d   1     -43.566  12.678  21.665  0.00  0.00     0.300 C 
ATOM     19  O   UNL d   1     -43.567  11.939  22.031  0.00  0.00    -0.259 OA
ATOM     20  C   UNL d   1     -42.900  12.935  21.256  0.00  0.00     0.074 C 
ENDBRANCH  17  18
ENDBRANCH  16  17
ENDBRANCH  15  16
ENDBRANCH  14  15
ENDBRANCH  13  14
ENDBRANCH  12  13
ENDBRANCH   1  12
TORSDOF 7
ENDMDL
MODEL 2
REMARK VINA RESULT:      -6.6      1.106      1.838
REMARK  7 active torsions:
REMARK  status: ('A' for Active; 'I' for Inactive)
REMARK    1  A    between atoms: O_9  and  N_1 
REMARK    2  A    between atoms: C_8  and  O_11 
REMARK    3  A    between atoms: C_15  and  O_9 
REMARK    4  A    between atoms: O_11  and  C_16 
REMARK    5  A    between atoms: C_18  and  C_15 
REMARK    6  A    between atoms: C_16  and  C_17 
REMARK    7  A    between atoms: C_17  and  C_18 
ROOT
ATOM      1  N   UNL d   1     -48.490  14.106  22.889  0.00  0.00    -0.139 N 
ATOM      2  C   UNL d   1     -48.772  14.884  22.789  0.00  0.00     0.287 A 
ATOM      3  C   UNL d   1     -49.100  13.651  23.218  0.00  0.00     0.287 A 
ATOM      4  C   UNL d   1     -49.555  14.903  23.058  0.00  0.00     0.063 A 
ATOM      5  C   UNL d   1     -49.757  14.145  23.322  0.00  0.00     0.063 A 
ATOM      6  O   UNL d   1     -49.101  12.850  23.423  0.00  0.00    -0.265 OA
ATOM      7  O   UNL d   1     -48.383  15.538  22.487  0.00  0.00    -0.265 OA
ATOM      8  C   UNL d   1     -50.514  14.001  23.623  0.00  0.00     0.005 A 
ATOM      9  C   UNL d   1     -50.110  15.515  23.095  0.00  0.00     0.005 A 
ATOM     10  C   UNL d   1     -51.064  14.611  23.659  0.00  0.00     0.000 A 
ATOM     11  C   UNL d   1     -50.862  15.370  23.395  0.00  0.00     0.000 A 
ENDROOT
BRANCH   1  12
ATOM     12  O   UNL d   1     -47.736  13.837  22.694  0.00  0.00    -0.221 OA
BRANCH  12  13
ATOM     13  C   UNL d   1     -46.956  13.677  22.921  0.00  0.00     0.148 C 
BRANCH  13  14
ATOM     14  C   UNL d   1     -46.431  13.367  22.367  0.00  0.00     0.031 C 
BRANCH  14  15
ATOM     15  C   UNL d   1     -45.621  13.476  22.466  0.00  0.00     0.029 C 
BRANCH  15  16
ATOM     16  C   UNL d   1     -45.092  12.975  22.084  0.00  0.00     0.126 C 
BRANCH  16  17
ATOM     17  O   UNL d   1     -44.334  13.246  21.901  0.00  0.00    -0.271 OA
BRANCH  17  18
ATOM     18  C   UNL d   1     -43.741  12.705  21.723  0.00  0.00     0.300 C 
ATOM     19  O   UNL d   1     -43.703  11.986  22.127  0.00  0.00    -0.259 OA
ATOM     20  C   UNL d   1     -43.185  12.882  21.143  0.00  0.00     0.074 C 
ENDBRANCH  17  18
ENDBRANCH  16  17
ENDBRANCH  15  16
ENDBRANCH  14  15
ENDBRANCH  13  14
ENDBRANCH  12  13
ENDBRANCH   1  12
TORSDOF 7
ENDMDL
MODEL 3
REMARK VINA RESULT:      -6.3      1.669      2.303
REMARK  7 active torsions:
REMARK  status: ('A' for Active; 'I' for Inactive)
REMARK    1  A    between atoms: O_9  and  N_1 
REMARK    2  A    between atoms: C_8  and  O_11 
REMARK    3  A    between atoms: C_15  and  O_9 
REMARK    4  A    between atoms: O_11  and  C_16 
REMARK    5  A    between atoms: C_18  and  C_15 
REMARK    6  A    between atoms: C_16  and  C_17 
REMARK    7  A    between atoms: C_17  and  C_18 
ROOT
ATOM      1  N   UNL d   1     -48.402  13.572  23.088  0.00  0.00    -0.139 N 
ATOM      2  C   UNL d   1     -48.409  14.394  22.954  0.00  0.00     0.287 A 
ATOM      3  C   UNL d   1     -49.186  13.322  23.199  0.00  0.00     0.287 A 
ATOM      4  C   UNL d   1     -49.198  14.646  22.983  0.00  0.00     0.063 A 
ATOM      5  C   UNL d   1     -49.676  13.987  23.134  0.00  0.00     0.063 A 
ATOM      6  O   UNL d   1     -49.473  12.561  23.349  0.00  0.00    -0.265 OA
ATOM      7  O   UNL d   1     -47.780  14.900  22.814  0.00  0.00    -0.265 OA
ATOM      8  C   UNL d   1     -50.495  14.075  23.192  0.00  0.00     0.005 A 
ATOM      9  C   UNL d   1     -49.541  15.393  22.891  0.00  0.00     0.005 A 
ATOM     10  C   UNL d   1     -50.835  14.819  23.101  0.00  0.00     0.000 A 
ATOM     11  C   UNL d   1     -50.358  15.479  22.950  0.00  0.00     0.000 A 
ENDROOT
BRANCH   1  12
ATOM     12  O   UNL d   1     -47.733  13.092  23.107  0.00  0.00    -0.221 OA
BRANCH  12  13
ATOM     13  C   UNL d   1     -47.365  12.392  23.351  0.00  0.00     0.148 C 
BRANCH  13  14
ATOM     14  C   UNL d   1     -46.544  12.333  23.312  0.00  0.00     0.031 C 
BRANCH  14  15
ATOM     15  C   UNL d   1     -46.189  11.592  23.279  0.00  0.00     0.029 C 
BRANCH  15  16
ATOM     16  C   UNL d   1     -45.368  11.530  23.305  0.00  0.00     0.126 C 
BRANCH  16  17
ATOM     17  O   UNL d   1     -45.021  10.871  23.658  0.00  0.00    -0.271 OA
BRANCH  17  18
ATOM     18  C   UNL d   1     -44.261  10.644  23.438  0.00  0.00     0.300 C 
ATOM     19  O   UNL d   1     -43.806  11.137  22.958  0.00  0.00    -0.259 OA
ATOM     20  C   UNL d   1     -43.956   9.926  23.698  0.00  0.00     0.074 C 
ENDBRANCH  17  18
ENDBRANCH  16  17
ENDBRANCH  15  16
ENDBRANCH  14  15
ENDBRANCH  13  14
ENDBRANCH  12  13
ENDBRANCH   1  12
TORSDOF 7
ENDMDL
MODEL 4
REMARK VINA RESULT:      -5.0      1.944      3.335
REMARK  7 active torsions:
REMARK  status: ('A' for Active; 'I' for Inactive)
REMARK    1  A    between atoms: O_9  and  N_1 
REMARK    2  A    between atoms: C_8  and  O_11 
REMARK    3  A    between atoms: C_15  and  O_9 
REMARK    4  A    between atoms: O_11  and  C_16 
REMARK    5  A    between atoms: C_18  and  C_15 
REMARK    6  A    between atoms: C_16  and  C_17 
REMARK    7  A    between atoms: C_17  and  C_18 
ROOT
ATOM      1  N   UNL d   1     -45.371  12.733  22.517  0.00  0.00    -0.139 N 
ATOM      2  C   UNL d   1     -46.034  13.216  22.369  0.00  0.00     0.287 A 
ATOM      3  C   UNL d   1     -45.609  12.115  23.017  0.00  0.00     0.287 A 
ATOM      4  C   UNL d   1     -46.677  12.893  22.780  0.00  0.00     0.063 A 
ATOM      5  C   UNL d   1     -46.416  12.216  23.178  0.00  0.00     0.063 A 
ATOM      6  O   UNL d   1     -45.161  11.491  23.324  0.00  0.00    -0.265 OA
ATOM      7  O   UNL d   1     -46.087  13.893  21.912  0.00  0.00    -0.265 OA
ATOM      8  C   UNL d   1     -46.945  11.777  23.637  0.00  0.00     0.005 A 
ATOM      9  C   UNL d   1     -47.466  13.130  22.841  0.00  0.00     0.005 A 
ATOM     10  C   UNL d   1     -47.731  12.014  23.697  0.00  0.00     0.000 A 
ATOM     11  C   UNL d   1     -47.992  12.692  23.298  0.00  0.00     0.000 A 
ENDROOT
BRANCH   1  12
ATOM     12  O   UNL d   1     -44.613  12.849  22.218  0.00  0.00    -0.221 OA
BRANCH  12  13
ATOM     13  C   UNL d   1     -44.074  12.777  21.594  0.00  0.00     0.148 C 
BRANCH  13  14
ATOM     14  C   UNL d   1     -43.273  12.903  21.736  0.00  0.00     0.031 C 
BRANCH  14  15
ATOM     15  C   UNL d   1     -42.784  13.158  21.124  0.00  0.00     0.029 C 
BRANCH  15  16
ATOM     16  C   UNL d   1     -42.090  13.565  21.298  0.00  0.00     0.126 C 
BRANCH  16  17
ATOM     17  O   UNL d   1     -41.647  13.894  20.684  0.00  0.00    -0.271 OA
BRANCH  17  18
ATOM     18  C   UNL d   1     -41.067  14.451  20.856  0.00  0.00     0.300 C 
ATOM     19  O   UNL d   1     -41.239  15.256  20.807  0.00  0.00    -0.259 OA
ATOM     20  C   UNL d   1     -40.314  14.203  21.075  0.00  0.00     0.074 C 
ENDBRANCH  17  18
ENDBRANCH  16  17
ENDBRANCH  15  16
ENDBRANCH  14  15
ENDBRANCH  13  14
ENDBRANCH  12  13
ENDBRANCH   1  12
TORSDOF 7
ENDMDL
MODEL 5
REMARK VINA RESULT:      -4.2      4.773      9.239
REMARK  7 active torsions:
REMARK  status: ('A' for Active; 'I' for Inactive)
REMARK    1  A    between atoms: O_9  and  N_1 
REMARK    2  A    between atoms: C_8  and  O_11 
REMARK    3  A    between atoms: C_15  and  O_9 
REMARK    4  A    between atoms: O_11  and  C_16 
REMARK    5  A    between atoms: C_18  and  C_15 
REMARK    6  A    between atoms: C_16  and  C_17 
REMARK    7  A    between atoms: C_17  and  C_18 
ROOT
ATOM      1  N   UNL d   1     -40.041  14.536  18.954  0.00  0.00    -0.139 N 
ATOM      2  C   UNL d   1     -39.357  15.011  18.945  0.00  0.00     0.287 A 
ATOM      3  C   UNL d   1     -40.258  14.381  18.169  0.00  0.00     0.287 A 
ATOM      4  C   UNL d   1     -39.156  15.146  18.152  0.00  0.00     0.063 A 
ATOM      5  C   UNL d   1     -39.710  14.758  17.675  0.00  0.00     0.063 A 
ATOM      6  O   UNL d   1     -40.895  13.938  17.882  0.00  0.00    -0.265 OA
ATOM      7  O   UNL d   1     -38.928  15.311  19.575  0.00  0.00    -0.265 OA
ATOM      8  C   UNL d   1     -39.646  14.798  16.852  0.00  0.00     0.005 A 
ATOM      9  C   UNL d   1     -38.538  15.572  17.806  0.00  0.00     0.005 A 
ATOM     10  C   UNL d   1     -39.031  15.223  16.508  0.00  0.00     0.000 A 
ATOM     11  C   UNL d   1     -38.476  15.611  16.986  0.00  0.00     0.000 A 
ENDROOT
BRANCH   1  12
ATOM     12  O   UNL d   1     -40.433  14.268  19.628  0.00  0.00    -0.221 OA
BRANCH  12  13
ATOM     13  C   UNL d   1     -40.934  14.420  20.268  0.00  0.00     0.148 C 
BRANCH  13  14
ATOM     14  C   UNL d   1     -41.241  13.789  20.699  0.00  0.00     0.031 C 
BRANCH  14  15
ATOM     15  C   UNL d   1     -41.920  13.895  21.152  0.00  0.00     0.029 C 
BRANCH  15  16
ATOM     16  C   UNL d   1     -42.396  13.248  21.333  0.00  0.00     0.126 C 
BRANCH  16  17
ATOM     17  O   UNL d   1     -43.199  13.362  21.481  0.00  0.00    -0.271 OA
BRANCH  17  18
ATOM     18  C   UNL d   1     -43.663  12.726  21.720  0.00  0.00     0.300 C 
ATOM     19  O   UNL d   1     -43.308  12.013  21.933  0.00  0.00    -0.259 OA
ATOM     20  C   UNL d   1     -44.482  12.803  21.746  0.00  0.00     0.074 C 
ENDBRANCH  17  18
ENDBRANCH  16  17
ENDBRANCH  15  16
ENDBRANCH  14  15
ENDBRANCH  13  14
ENDBRANCH  12  13
ENDBRANCH   1  12
TORSDOF 7
ENDMDL
MODEL 6
REMARK VINA RESULT:      -3.9      8.573     10.644
REMARK  7 active torsions:
REMARK  status: ('A' for Active; 'I' for Inactive)
REMARK    1  A    between atoms: O_9  and  N_1 
REMARK    2  A    between atoms: C_8  and  O_11 
REMARK    3  A    between atoms: C_15  and  O_9 
REMARK    4  A    between atoms: O_11  and  C_16 
REMARK    5  A    between atoms: C_18  and  C_15 
REMARK    6  A    between atoms: C_16  and  C_17 
REMARK    7  A    between atoms: C_17  and  C_18 
ROOT
ATOM      1  N   UNL d   1     -39.213  14.353  17.682  0.00  0.00    -0.139 N 
ATOM      2  C   UNL d   1     -38.998  14.966  17.162  0.00  0.00     0.287 A 
ATOM      3  C   UNL d   1     -38.972  13.633  17.347  0.00  0.00     0.287 A 
ATOM      4  C   UNL d   1     -38.624  14.621  16.508  0.00  0.00     0.063 A 
ATOM      5  C   UNL d   1     -38.608  13.801  16.622  0.00  0.00     0.063 A 
ATOM      6  O   UNL d   1     -39.056  12.866  17.644  0.00  0.00    -0.265 OA
ATOM      7  O   UNL d   1     -39.113  15.773  17.240  0.00  0.00    -0.265 OA
ATOM      8  C   UNL d   1     -38.265  13.311  16.051  0.00  0.00     0.005 A 
ATOM      9  C   UNL d   1     -38.297  14.949  15.823  0.00  0.00     0.005 A 
ATOM     10  C   UNL d   1     -37.940  13.640  15.370  0.00  0.00     0.000 A 
ATOM     11  C   UNL d   1     -37.956  14.460  15.256  0.00  0.00     0.000 A 
ENDROOT
BRANCH   1  12
ATOM     12  O   UNL d   1     -39.599  14.445  18.404  0.00  0.00    -0.221 OA
BRANCH  12  13
ATOM     13  C   UNL d   1     -39.775  14.158  19.160  0.00  0.00     0.148 C 
BRANCH  13  14
ATOM     14  C   UNL d   1     -40.072  14.675  19.729  0.00  0.00     0.031 C 
BRANCH  14  15
ATOM     15  C   UNL d   1     -40.046  14.465  20.525  0.00  0.00     0.029 C 
BRANCH  15  16
ATOM     16  C   UNL d   1     -39.671  14.959  21.066  0.00  0.00     0.126 C 
BRANCH  16  17
ATOM     17  O   UNL d   1     -39.748  14.809  21.874  0.00  0.00    -0.271 OA
BRANCH  17  18
ATOM     18  C   UNL d   1     -39.244  15.185  22.405  0.00  0.00     0.300 C 
ATOM     19  O   UNL d   1     -39.446  15.922  22.715  0.00  0.00    -0.259 OA
ATOM     20  C   UNL d   1     -38.540  14.823  22.627  0.00  0.00     0.074 C 
ENDBRANCH  17  18
ENDBRANCH  16  17
ENDBRANCH  15  16
ENDBRANCH  14  15
ENDBRANCH  13  14
ENDBRANCH  12  13
ENDBRANCH   1  12
TORSDOF 7
ENDMDL
MODEL 7
REMARK VINA RESULT:      -3.9      8.531      9.840
REMARK  7 active torsions:
REMARK  status: ('A' for Active; 'I' for Inactive)
REMARK    1  A    between atoms: O_9  and  N_1 
REMARK    2  A    between atoms: C_8  and  O_11 
REMARK    3  A    between atoms: C_15  and  O_9 
REMARK    4  A    between atoms: O_11  and  C_16 
REMARK    5  A    between atoms: C_18  and  C_15 
REMARK    6  A    between atoms: C_16  and  C_17 
REMARK    7  A    between atoms: C_17  and  C_18 
ROOT
ATOM      1  N   UNL d   1     -39.207  14.149  20.290  0.00  0.00    -0.139 N 
ATOM      2  C   UNL d   1     -39.660  14.349  20.959  0.00  0.00     0.287 A 
ATOM      3  C   UNL d   1     -38.553  13.706  20.544  0.00  0.00     0.287 A 
ATOM      4  C   UNL d   1     -39.283  14.029  21.623  0.00  0.00     0.063 A 
ATOM      5  C   UNL d   1     -38.601  13.633  21.368  0.00  0.00     0.063 A 
ATOM      6  O   UNL d   1     -37.940  13.378  20.096  0.00  0.00    -0.265 OA
ATOM      7  O   UNL d   1     -40.355  14.780  21.002  0.00  0.00    -0.265 OA
ATOM      8  C   UNL d   1     -38.112  13.257  21.917  0.00  0.00     0.005 A 
ATOM      9  C   UNL d   1     -39.473  14.046  22.428  0.00  0.00     0.005 A 
ATOM     10  C   UNL d   1     -38.303  13.276  22.718  0.00  0.00     0.000 A 
ATOM     11  C   UNL d   1     -38.984  13.671  22.973  0.00  0.00     0.000 A 
ENDROOT
BRANCH   1  12
ATOM     12  O   UNL d   1     -39.379  14.355  19.511  0.00  0.00    -0.221 OA
BRANCH  12  13
ATOM     13  C   UNL d   1     -39.687  14.150  18.771  0.00  0.00     0.148 C 
BRANCH  13  14
ATOM     14  C   UNL d   1     -39.658  14.697  18.156  0.00  0.00     0.031 C 
BRANCH  14  15
ATOM     15  C   UNL d   1     -39.669  14.435  17.375  0.00  0.00     0.029 C 
BRANCH  15  16
ATOM     16  C   UNL d   1     -39.024  14.584  16.885  0.00  0.00     0.126 C 
BRANCH  16  17
ATOM     17  O   UNL d   1     -39.003  14.254  16.129  0.00  0.00    -0.271 OA
BRANCH  17  18
ATOM     18  C   UNL d   1     -38.339  14.363  15.657  0.00  0.00     0.300 C 
ATOM     19  O   UNL d   1     -38.022  15.118  15.557  0.00  0.00    -0.259 OA
ATOM     20  C   UNL d   1     -37.991  13.718  15.284  0.00  0.00     0.074 C 
ENDBRANCH  17  18
ENDBRANCH  16  17
ENDBRANCH  15  16
ENDBRANCH  14  15
ENDBRANCH  13  14
ENDBRANCH  12  13
ENDBRANCH   1  12
TORSDOF 7
ENDMDL
