MODEL 1
REMARK VINA RESULT:       2.0      0.000      0.000
REMARK  3 active torsions:
REMARK  status: ('A' for Active; 'I' for Inactive)
REMARK    1  A    between atoms: N_12  and  C_6 
REMARK    2  A    between atoms: C_18  and  N_12 
REMARK    3  A    between atoms: C_19  and  C_18 
ROOT
ATOM      1  N   UNL d   1     -41.545-121.829 -53.230  0.00  0.00    -0.175 N 
ATOM      2  C   UNL d   1     -41.551-122.546 -52.886  0.00  0.00     0.167 A 
ATOM      3  N   UNL d   1     -41.410-121.158 -52.769  0.00  0.00    -0.142 NA
ATOM      4  C   UNL d   1     -41.666-121.752 -54.011  0.00  0.00     0.283 A 
ATOM      5  N   UNL d   1     -41.679-123.202 -53.314  0.00  0.00    -0.227 NA
ATOM      6  C   UNL d   1     -41.283-121.221 -51.957  0.00  0.00     0.182 A 
ATOM      7  C   UNL d   1     -41.800-122.423 -54.471  0.00  0.00     0.076 A 
ATOM      8  C   UNL d   1     -41.423-122.608 -52.073  0.00  0.00     0.039 A 
ATOM      9  C   UNL d   1     -41.806-123.140 -54.127  0.00  0.00     0.088 A 
ATOM     10  C   UNL d   1     -41.289-121.937 -51.613  0.00  0.00     0.041 A 
ATOM     11  O   UNL d   1     -41.659-121.002 -54.371  0.00  0.00    -0.265 OA
ATOM     12  C   UNL d   1     -41.928-122.361 -55.284  0.00  0.00     0.006 A 
ATOM     13  C   UNL d   1     -41.430-123.358 -51.713  0.00  0.00     0.003 A 
ATOM     14  C   UNL d   1     -41.161-122.000 -50.800  0.00  0.00     0.003 A 
ATOM     15  C   UNL d   1     -41.941-123.811 -54.588  0.00  0.00     0.019 A 
ATOM     16  C   UNL d   1     -42.062-123.053 -55.734  0.00  0.00     0.000 A 
ATOM     17  C   UNL d   1     -41.302-123.420 -50.901  0.00  0.00     0.000 A 
ATOM     18  C   UNL d   1     -41.168-122.749 -50.440  0.00  0.00     0.000 A 
ATOM     19  C   UNL d   1     -42.068-123.727 -55.411  0.00  0.00     0.002 A 
ENDROOT
BRANCH   6  20
ATOM     20  N   UNL d   1     -41.142-120.561 -51.451  0.00  0.00    -0.220 NA
BRANCH  20  21
ATOM     21  C   UNL d   1     -41.123-119.794 -51.761  0.00  0.00     0.146 C 
BRANCH  21  22
ATOM     22  C   UNL d   1     -41.271-119.147 -51.295  0.00  0.00     0.255 C 
ATOM     23  O   UNL d   1     -41.123-118.382 -51.606  0.00  0.00    -0.281 OA
ENDBRANCH  21  22
ENDBRANCH  20  21
ENDBRANCH   6  20
TORSDOF 3
ENDMDL
MODEL 2
REMARK VINA RESULT:       2.8      1.528      3.926
REMARK  3 active torsions:
REMARK  status: ('A' for Active; 'I' for Inactive)
REMARK    1  A    between atoms: N_12  and  C_6 
REMARK    2  A    between atoms: C_18  and  N_12 
REMARK    3  A    between atoms: C_19  and  C_18 
ROOT
ATOM      1  N   UNL d   1     -41.859-122.451 -51.539  0.00  0.00    -0.175 N 
ATOM      2  C   UNL d   1     -41.683-121.787 -51.140  0.00  0.00     0.167 A 
ATOM      3  N   UNL d   1     -41.854-122.444 -52.364  0.00  0.00    -0.142 NA
ATOM      4  C   UNL d   1     -42.040-123.122 -51.154  0.00  0.00     0.283 A 
ATOM      5  N   UNL d   1     -41.683-121.777 -50.346  0.00  0.00    -0.227 NA
ATOM      6  C   UNL d   1     -41.669-121.757 -52.780  0.00  0.00     0.182 A 
ATOM      7  C   UNL d   1     -42.045-123.129 -50.328  0.00  0.00     0.076 A 
ATOM      8  C   UNL d   1     -41.497-121.099 -51.557  0.00  0.00     0.039 A 
ATOM      9  C   UNL d   1     -41.868-122.464 -49.929  0.00  0.00     0.088 A 
ATOM     10  C   UNL d   1     -41.492-121.092 -52.381  0.00  0.00     0.041 A 
ATOM     11  O   UNL d   1     -42.224-123.817 -51.571  0.00  0.00    -0.265 OA
ATOM     12  C   UNL d   1     -42.230-123.817 -49.912  0.00  0.00     0.006 A 
ATOM     13  C   UNL d   1     -41.313-120.404 -51.140  0.00  0.00     0.003 A 
ATOM     14  C   UNL d   1     -41.307-120.404 -52.798  0.00  0.00     0.003 A 
ATOM     15  C   UNL d   1     -41.873-122.472 -49.104  0.00  0.00     0.019 A 
ATOM     16  C   UNL d   1     -42.230-123.804 -49.075  0.00  0.00     0.000 A 
ATOM     17  C   UNL d   1     -41.127-119.717 -51.556  0.00  0.00     0.000 A 
ATOM     18  C   UNL d   1     -41.123-119.710 -52.381  0.00  0.00     0.000 A 
ATOM     19  C   UNL d   1     -42.064-123.179 -48.700  0.00  0.00     0.002 A 
ENDROOT
BRANCH   6  20
ATOM     20  N   UNL d   1     -41.652-121.707 -53.622  0.00  0.00    -0.220 NA
BRANCH  20  21
ATOM     21  C   UNL d   1     -42.178-122.155 -54.077  0.00  0.00     0.146 C 
BRANCH  21  22
ATOM     22  C   UNL d   1     -42.089-122.225 -54.880  0.00  0.00     0.255 C 
ATOM     23  O   UNL d   1     -42.742-122.052 -55.376  0.00  0.00    -0.281 OA
ENDBRANCH  21  22
ENDBRANCH  20  21
ENDBRANCH   6  20
TORSDOF 3
ENDMDL
