MODEL 1
REMARK VINA RESULT:      88.4      0.000      0.000
REMARK  5 active torsions:
REMARK  status: ('A' for Active; 'I' for Inactive)
REMARK    1  A    between atoms: C_2  and  C_1 
REMARK    2  A    between atoms: C_4  and  C_1 
REMARK       I    between atoms: N_3  and  C_2 
REMARK    3  A    between atoms: C_5  and  N_3 
REMARK    4  A    between atoms: C_11  and  C_5 
REMARK    5  A    between atoms: C_12  and  C_5 
ROOT
ATOM      1  C   UNL d   1     -51.836  25.709  33.786  0.00  0.00     0.315 C 
ATOM      2  N   UNL d   1     -51.439  26.095  34.400  0.00  0.00    -0.367 NA
ATOM      3  O   UNL d   1     -52.360  26.126  33.306  0.00  0.00    -0.255 OA
ENDROOT
BRANCH   2   4
ATOM      4  C   UNL d   1     -50.929  26.601  35.194  0.00  0.00     0.135 C 
BRANCH   4   5
ATOM      5  C   UNL d   1     -51.187  26.551  35.890  0.00  0.00     0.030 A 
ATOM      6  C   UNL d   1     -51.939  26.770  36.061  0.00  0.00     0.003 A 
ATOM      7  C   UNL d   1     -52.244  26.723  36.830  0.00  0.00     0.000 A 
ATOM      8  C   UNL d   1     -51.729  26.429  37.448  0.00  0.00     0.000 A 
ATOM      9  C   UNL d   1     -50.976  26.210  37.277  0.00  0.00     0.000 A 
ATOM     10  C   UNL d   1     -50.679  26.267  36.474  0.00  0.00     0.003 A 
ENDBRANCH   4   5
BRANCH   4  11
ATOM     11  C   UNL d   1     -50.324  26.999  35.065  0.00  0.00     0.030 A 
ATOM     12  C   UNL d   1     -50.137  27.210  34.322  0.00  0.00     0.003 A 
ATOM     13  C   UNL d   1     -49.459  27.659  34.161  0.00  0.00     0.000 A 
ATOM     14  C   UNL d   1     -48.999  27.868  34.808  0.00  0.00     0.000 A 
ATOM     15  C   UNL d   1     -49.192  27.653  35.552  0.00  0.00     0.000 A 
ATOM     16  C   UNL d   1     -49.867  27.207  35.709  0.00  0.00     0.003 A 
ENDBRANCH   4  11
ENDBRANCH   2   4
BRANCH   1  17
ATOM     17  C   UNL d   1     -51.710  24.901  33.648  0.00  0.00     0.150 A 
ATOM     18  C   UNL d   1     -51.588  24.104  33.511  0.00  0.00     0.019 A 
ATOM     19  C   UNL d   1     -50.821  23.821  33.341  0.00  0.00     0.119 A 
ATOM     20  O   UNL d   1     -50.189  24.338  33.311  0.00  0.00    -0.304 OA
ATOM     21  C   UNL d   1     -50.310  25.146  33.448  0.00  0.00     0.119 A 
ATOM     22  C   UNL d   1     -51.072  25.429  33.617  0.00  0.00     0.019 A 
BRANCH  17  23
ATOM     23  C   UNL d   1     -52.353  24.375  33.679  0.00  0.00     0.024 A 
ATOM     24  S   UNL d   1     -52.384  23.650  34.088  0.00  0.00    -0.090 SA
ATOM     25  C   UNL d   1     -53.127  23.306  33.971  0.00  0.00     0.035 A 
ATOM     26  C   UNL d   1     -53.572  23.804  33.489  0.00  0.00     0.007 A 
ATOM     27  C   UNL d   1     -53.094  24.468  33.307  0.00  0.00     0.004 A 
ENDBRANCH  17  23
ENDBRANCH   1  17
TORSDOF 5
ENDMDL
MODEL 2
REMARK VINA RESULT:      91.2      1.163      2.835
REMARK  5 active torsions:
REMARK  status: ('A' for Active; 'I' for Inactive)
REMARK    1  A    between atoms: C_2  and  C_1 
REMARK    2  A    between atoms: C_4  and  C_1 
REMARK       I    between atoms: N_3  and  C_2 
REMARK    3  A    between atoms: C_5  and  N_3 
REMARK    4  A    between atoms: C_11  and  C_5 
REMARK    5  A    between atoms: C_12  and  C_5 
ROOT
ATOM      1  C   UNL d   1     -49.868  26.357  33.805  0.00  0.00     0.315 C 
ATOM      2  N   UNL d   1     -49.728  26.820  34.476  0.00  0.00    -0.367 NA
ATOM      3  O   UNL d   1     -49.244  26.153  33.306  0.00  0.00    -0.255 OA
ENDROOT
BRANCH   2   4
ATOM      4  C   UNL d   1     -49.541  27.419  35.342  0.00  0.00     0.135 C 
BRANCH   4   5
ATOM      5  C   UNL d   1     -49.040  27.967  35.312  0.00  0.00     0.030 A 
ATOM      6  C   UNL d   1     -48.364  27.925  35.742  0.00  0.00     0.003 A 
ATOM      7  C   UNL d   1     -47.794  28.525  35.721  0.00  0.00     0.000 A 
ATOM      8  C   UNL d   1     -47.945  29.204  35.221  0.00  0.00     0.000 A 
ATOM      9  C   UNL d   1     -48.621  29.247  34.790  0.00  0.00     0.000 A 
ATOM     10  C   UNL d   1     -49.200  28.614  34.826  0.00  0.00     0.003 A 
ENDBRANCH   4   5
BRANCH   4  11
ATOM     11  C   UNL d   1     -49.900  27.299  35.973  0.00  0.00     0.030 A 
ATOM     12  C   UNL d   1     -49.708  27.710  36.626  0.00  0.00     0.003 A 
ATOM     13  C   UNL d   1     -50.104  27.586  37.343  0.00  0.00     0.000 A 
ATOM     14  C   UNL d   1     -50.698  27.020  37.338  0.00  0.00     0.000 A 
ATOM     15  C   UNL d   1     -50.888  26.610  36.680  0.00  0.00     0.000 A 
ATOM     16  C   UNL d   1     -50.492  26.736  35.967  0.00  0.00     0.003 A 
ENDBRANCH   4  11
ENDBRANCH   2   4
BRANCH   1  17
ATOM     17  C   UNL d   1     -50.635  26.095  33.628  0.00  0.00     0.150 A 
ATOM     18  C   UNL d   1     -51.390  25.834  33.453  0.00  0.00     0.019 A 
ATOM     19  C   UNL d   1     -51.999  26.386  33.306  0.00  0.00     0.119 A 
ATOM     20  O   UNL d   1     -51.845  27.188  33.336  0.00  0.00    -0.304 OA
ATOM     21  C   UNL d   1     -51.081  27.454  33.512  0.00  0.00     0.119 A 
ATOM     22  C   UNL d   1     -50.473  26.907  33.659  0.00  0.00     0.019 A 
BRANCH  17  23
ATOM     23  C   UNL d   1     -50.792  25.279  33.597  0.00  0.00     0.024 A 
ATOM     24  S   UNL d   1     -51.498  24.917  33.346  0.00  0.00    -0.090 SA
ATOM     25  C   UNL d   1     -51.417  24.096  33.405  0.00  0.00     0.035 A 
ATOM     26  C   UNL d   1     -50.664  23.930  33.693  0.00  0.00     0.007 A 
ATOM     27  C   UNL d   1     -50.274  24.662  33.813  0.00  0.00     0.004 A 
ENDBRANCH  17  23
ENDBRANCH   1  17
TORSDOF 5
ENDMDL
