MODEL 1
REMARK VINA RESULT:      50.7      0.000      0.000
REMARK  5 active torsions:
REMARK  status: ('A' for Active; 'I' for Inactive)
REMARK    1  A    between atoms: C_3  and  C_1 
REMARK    2  A    between atoms: N_2  and  C_10 
REMARK    3  A    between atoms: N_6  and  C_3 
REMARK    4  A    between atoms: C_11  and  C_5 
REMARK    5  A    between atoms: C_20  and  N_7 
ROOT
ATOM      1  C   UNL d   1     -54.739-101.437 -41.436  0.00  0.00     0.126 A 
ATOM      2  O   UNL d   1     -54.759-101.457 -42.261  0.00  0.00    -0.305 OA
ATOM      3  C   UNL d   1     -54.746-100.675 -42.540  0.00  0.00     0.100 A 
ATOM      4  C   UNL d   1     -54.714-100.645 -41.205  0.00  0.00     0.029 A 
ATOM      5  C   UNL d   1     -54.718-100.173 -41.876  0.00  0.00     0.027 A 
ENDROOT
BRANCH   1   6
ATOM      6  C   UNL d   1     -54.744-102.117 -40.904  0.00  0.00     0.143 C 
ATOM      7  S   UNL d   1     -54.748-102.880 -41.219  0.00  0.00    -0.057 SA
BRANCH   6   8
ATOM      8  N   UNL d   1     -54.744-101.980 -40.071  0.00  0.00    -0.291 N 
ATOM      9  C   UNL d   1     -54.715-101.222 -39.758  0.00  0.00     0.100 A 
ATOM     10  C   UNL d   1     -54.717-101.120 -38.948  0.00  0.00     0.100 A 
ATOM     11  N   UNL d   1     -54.747-101.743 -38.434  0.00  0.00    -0.301 N 
ATOM     12  C   UNL d   1     -54.777-102.530 -38.734  0.00  0.00     0.100 A 
ATOM     13  C   UNL d   1     -54.776-102.647 -39.559  0.00  0.00     0.100 A 
BRANCH  11  14
ATOM     14  C   UNL d   1     -54.748-101.615 -37.614  0.00  0.00     0.064 A 
ATOM     15  C   UNL d   1     -54.716-100.850 -37.332  0.00  0.00     0.018 A 
ATOM     16  C   UNL d   1     -54.716-100.695 -36.523  0.00  0.00     0.002 A 
ATOM     17  C   UNL d   1     -54.748-101.321 -35.993  0.00  0.00     0.000 A 
ATOM     18  C   UNL d   1     -54.780-102.103 -36.274  0.00  0.00     0.002 A 
ATOM     19  C   UNL d   1     -54.779-102.242 -37.085  0.00  0.00     0.018 A 
ENDBRANCH  11  14
ENDBRANCH   6   8
ENDBRANCH   1   6
BRANCH   3  20
ATOM     20  C   UNL d   1     -54.756-100.358 -43.307  0.00  0.00     0.024 A 
ATOM     21  C   UNL d   1     -54.745-100.863 -43.967  0.00  0.00     0.025 A 
ATOM     22  C   UNL d   1     -54.755-100.548 -44.729  0.00  0.00     0.127 A 
ATOM     23  C   UNL d   1     -54.776 -99.722 -44.849  0.00  0.00     0.024 A 
ATOM     24  C   UNL d   1     -54.787 -99.229 -44.184  0.00  0.00     0.002 A 
ATOM     25  C   UNL d   1     -54.777 -99.544 -43.422  0.00  0.00     0.002 A 
BRANCH  22  26
ATOM     26  N   UNL d   1     -54.744-101.051 -45.368  0.00  0.00    -0.114 N 
ATOM     27  O   UNL d   1     -54.715-100.818 -46.178  0.00  0.00    -0.532 OA
ATOM     28  O   UNL d   1     -54.760-101.875 -45.295  0.00  0.00    -0.532 OA
ENDBRANCH  22  26
ENDBRANCH   3  20
TORSDOF 5
ENDMDL
