MODEL 1
REMARK VINA RESULT:      -9.9      0.000      0.000
REMARK  1 active torsions:
REMARK  status: ('A' for Active; 'I' for Inactive)
REMARK       I    between atoms: C_8  and  N_9 
REMARK    1  A    between atoms: N_9  and  C_10 
ROOT
ATOM      1  C   UNL d   1      53.123  32.313  53.224  0.00  0.00     0.102 A 
ATOM      2  O   UNL d   1      52.743  31.787  52.711  0.00  0.00    -0.307 OA
ATOM      3  C   UNL d   1      53.513  31.882  53.807  0.00  0.00     0.025 A 
ATOM      4  C   UNL d   1      53.374  31.080  53.656  0.00  0.00     0.025 A 
ATOM      5  C   UNL d   1      52.903  31.023  52.986  0.00  0.00     0.100 A 
ATOM      6  C   UNL d   1      53.159  33.134  53.227  0.00  0.00     0.044 A 
ATOM      7  C   UNL d   1      53.938  32.267  54.393  0.00  0.00     0.004 A 
ATOM      8  C   UNL d   1      53.584  33.528  53.811  0.00  0.00     0.087 A 
ATOM      9  C   UNL d   1      53.976  33.091  54.399  0.00  0.00     0.019 A 
ATOM     10  C   UNL d   1      53.621  30.390  54.051  0.00  0.00     0.002 A 
ATOM     11  C   UNL d   1      52.674  30.281  52.702  0.00  0.00     0.025 A 
ATOM     12  C   UNL d   1      53.393  29.654  53.768  0.00  0.00     0.000 A 
ATOM     13  C   UNL d   1      52.918  29.598  53.092  0.00  0.00     0.002 A 
ENDROOT
BRANCH   8  14
ATOM     14  N   UNL d   1      53.622  34.352  53.817  0.00  0.00    -0.208 NA
ATOM     15  C   UNL d   1      53.076  34.789  54.257  0.00  0.00     0.279 C 
ATOM     16  O   UNL d   1      52.492  34.396  54.691  0.00  0.00    -0.265 OA
ATOM     17  C   UNL d   1      53.113  35.617  54.263  0.00  0.00     0.068 C 
ENDBRANCH   8  14
TORSDOF 1
ENDMDL
MODEL 2
REMARK VINA RESULT:      -9.7      2.001      3.048
REMARK  1 active torsions:
REMARK  status: ('A' for Active; 'I' for Inactive)
REMARK       I    between atoms: C_8  and  N_9 
REMARK    1  A    between atoms: N_9  and  C_10 
ROOT
ATOM      1  C   UNL d   1      52.538  33.296  53.441  0.00  0.00     0.102 A 
ATOM      2  O   UNL d   1      52.878  32.633  53.802  0.00  0.00    -0.307 OA
ATOM      3  C   UNL d   1      52.921  33.972  53.712  0.00  0.00     0.025 A 
ATOM      4  C   UNL d   1      53.506  33.729  54.246  0.00  0.00     0.025 A 
ATOM      5  C   UNL d   1      53.478  32.910  54.300  0.00  0.00     0.100 A 
ATOM      6  C   UNL d   1      51.924  33.361  52.898  0.00  0.00     0.044 A 
ATOM      7  C   UNL d   1      52.694  34.713  53.443  0.00  0.00     0.004 A 
ATOM      8  C   UNL d   1      51.691  34.100  52.624  0.00  0.00     0.087 A 
ATOM      9  C   UNL d   1      52.079  34.781  52.898  0.00  0.00     0.019 A 
ATOM     10  C   UNL d   1      54.062  34.157  54.692  0.00  0.00     0.002 A 
ATOM     11  C   UNL d   1      54.003  32.509  54.797  0.00  0.00     0.025 A 
ATOM     12  C   UNL d   1      54.583  33.758  55.186  0.00  0.00     0.000 A 
ATOM     13  C   UNL d   1      54.554  32.932  55.239  0.00  0.00     0.002 A 
ENDROOT
BRANCH   8  14
ATOM     14  N   UNL d   1      51.075  34.169  52.079  0.00  0.00    -0.208 NA
ATOM     15  C   UNL d   1      50.308  34.329  52.339  0.00  0.00     0.279 C 
ATOM     16  O   UNL d   1      50.161  34.420  53.148  0.00  0.00    -0.265 OA
ATOM     17  C   UNL d   1      49.689  34.398  51.793  0.00  0.00     0.068 C 
ENDBRANCH   8  14
TORSDOF 1
ENDMDL
MODEL 3
REMARK VINA RESULT:      -9.6      1.505      3.760
REMARK  1 active torsions:
REMARK  status: ('A' for Active; 'I' for Inactive)
REMARK       I    between atoms: C_8  and  N_9 
REMARK    1  A    between atoms: N_9  and  C_10 
ROOT
ATOM      1  C   UNL d   1      53.385  32.221  53.746  0.00  0.00     0.102 A 
ATOM      2  O   UNL d   1      53.578  32.960  54.063  0.00  0.00    -0.307 OA
ATOM      3  C   UNL d   1      52.782  32.316  53.195  0.00  0.00     0.025 A 
ATOM      4  C   UNL d   1      52.596  33.123  53.168  0.00  0.00     0.025 A 
ATOM      5  C   UNL d   1      53.084  33.516  53.699  0.00  0.00     0.100 A 
ATOM      6  C   UNL d   1      53.690  31.472  53.897  0.00  0.00     0.044 A 
ATOM      7  C   UNL d   1      52.481  31.667  52.793  0.00  0.00     0.004 A 
ATOM      8  C   UNL d   1      53.394  30.816  53.498  0.00  0.00     0.087 A 
ATOM      9  C   UNL d   1      52.785  30.915  52.942  0.00  0.00     0.019 A 
ATOM     10  C   UNL d   1      52.039  33.549  52.721  0.00  0.00     0.002 A 
ATOM     11  C   UNL d   1      53.022  34.335  53.791  0.00  0.00     0.025 A 
ATOM     12  C   UNL d   1      51.979  34.362  52.813  0.00  0.00     0.000 A 
ATOM     13  C   UNL d   1      52.471  34.757  53.349  0.00  0.00     0.002 A 
ENDROOT
BRANCH   8  14
ATOM     14  N   UNL d   1      53.698  30.064  53.646  0.00  0.00    -0.208 NA
ATOM     15  C   UNL d   1      53.269  29.527  54.104  0.00  0.00     0.279 C 
ATOM     16  O   UNL d   1      52.534  29.748  54.412  0.00  0.00    -0.265 OA
ATOM     17  C   UNL d   1      53.573  28.771  54.254  0.00  0.00     0.068 C 
ENDBRANCH   8  14
TORSDOF 1
ENDMDL
MODEL 4
REMARK VINA RESULT:      -9.3      0.652      1.180
REMARK  1 active torsions:
REMARK  status: ('A' for Active; 'I' for Inactive)
REMARK       I    between atoms: C_8  and  N_9 
REMARK    1  A    between atoms: N_9  and  C_10 
ROOT
ATOM      1  C   UNL d   1      53.565  32.549  53.710  0.00  0.00     0.102 A 
ATOM      2  O   UNL d   1      54.010  31.899  53.963  0.00  0.00    -0.307 OA
ATOM      3  C   UNL d   1      52.919  32.278  53.279  0.00  0.00     0.025 A 
ATOM      4  C   UNL d   1      52.961  31.451  53.262  0.00  0.00     0.025 A 
ATOM      5  C   UNL d   1      53.629  31.220  53.681  0.00  0.00     0.100 A 
ATOM      6  C   UNL d   1      53.674  33.356  53.823  0.00  0.00     0.044 A 
ATOM      7  C   UNL d   1      52.381  32.809  52.960  0.00  0.00     0.004 A 
ATOM      8  C   UNL d   1      53.139  33.895  53.506  0.00  0.00     0.087 A 
ATOM      9  C   UNL d   1      52.488  33.619  53.071  0.00  0.00     0.019 A 
ATOM     10  C   UNL d   1      52.469  30.877  52.914  0.00  0.00     0.002 A 
ATOM     11  C   UNL d   1      53.813  30.418  53.758  0.00  0.00     0.025 A 
ATOM     12  C   UNL d   1      52.654  30.081  52.992  0.00  0.00     0.000 A 
ATOM     13  C   UNL d   1      53.328  29.850  53.414  0.00  0.00     0.002 A 
ENDROOT
BRANCH   8  14
ATOM     14  N   UNL d   1      53.246  34.705  53.618  0.00  0.00    -0.208 NA
ATOM     15  C   UNL d   1      53.006  35.061  54.324  0.00  0.00     0.279 C 
ATOM     16  O   UNL d   1      52.660  34.600  54.917  0.00  0.00    -0.265 OA
ATOM     17  C   UNL d   1      53.113  35.875  54.438  0.00  0.00     0.068 C 
ENDBRANCH   8  14
TORSDOF 1
ENDMDL
MODEL 5
REMARK VINA RESULT:      -8.1      2.250      3.248
REMARK  1 active torsions:
REMARK  status: ('A' for Active; 'I' for Inactive)
REMARK       I    between atoms: C_8  and  N_9 
REMARK    1  A    between atoms: N_9  and  C_10 
ROOT
ATOM      1  C   UNL d   1      52.138  33.685  53.822  0.00  0.00     0.102 A 
ATOM      2  O   UNL d   1      51.334  33.838  53.941  0.00  0.00    -0.307 OA
ATOM      3  C   UNL d   1      52.308  33.759  53.021  0.00  0.00     0.025 A 
ATOM      4  C   UNL d   1      51.603  33.961  52.636  0.00  0.00     0.025 A 
ATOM      5  C   UNL d   1      51.008  34.009  53.200  0.00  0.00     0.100 A 
ATOM      6  C   UNL d   1      52.735  33.486  54.352  0.00  0.00     0.044 A 
ATOM      7  C   UNL d   1      53.070  33.636  52.745  0.00  0.00     0.004 A 
ATOM      8  C   UNL d   1      53.502  33.361  54.083  0.00  0.00     0.087 A 
ATOM      9  C   UNL d   1      53.671  33.436  53.274  0.00  0.00     0.019 A 
ATOM     10  C   UNL d   1      51.430  34.107  51.835  0.00  0.00     0.002 A 
ATOM     11  C   UNL d   1      50.237  34.203  52.973  0.00  0.00     0.025 A 
ATOM     12  C   UNL d   1      50.664  34.300  51.612  0.00  0.00     0.000 A 
ATOM     13  C   UNL d   1      50.065  34.348  52.182  0.00  0.00     0.002 A 
ENDROOT
BRANCH   8  14
ATOM     14  N   UNL d   1      54.103  33.161  54.612  0.00  0.00    -0.208 NA
ATOM     15  C   UNL d   1      54.498  33.752  55.032  0.00  0.00     0.279 C 
ATOM     16  O   UNL d   1      54.288  34.544  54.919  0.00  0.00    -0.265 OA
ATOM     17  C   UNL d   1      55.102  33.554  55.564  0.00  0.00     0.068 C 
ENDBRANCH   8  14
TORSDOF 1
ENDMDL
