MODEL 1
REMARK VINA RESULT:      -8.2      0.000      0.000
REMARK  4 active torsions:
REMARK  status: ('A' for Active; 'I' for Inactive)
REMARK    1  A    between atoms: C_7  and  C_1 
REMARK    2  A    between atoms: C_8  and  C_2 
REMARK    3  A    between atoms: C_10  and  C_4 
REMARK    4  A    between atoms: O_13  and  C_7 
ROOT
ATOM      1  C   UNL d   1     -47.997  13.637  22.845  0.00  0.00     0.086 A 
ATOM      2  C   UNL d   1     -47.586  12.349  23.280  0.00  0.00     0.064 A 
ATOM      3  C   UNL d   1     -46.793  12.620  23.331  0.00  0.00     0.205 A 
ATOM      4  C   UNL d   1     -48.175  12.868  23.037  0.00  0.00     0.012 A 
ATOM      5  C   UNL d   1     -47.203  13.907  22.896  0.00  0.00     0.107 A 
ATOM      6  O   UNL d   1     -46.611  13.400  23.137  0.00  0.00    -0.288 OA
ATOM      7  N   UNL d   1     -46.164  12.104  23.581  0.00  0.00    -0.121 N 
ATOM      8  C   UNL d   1     -46.999  14.723  22.696  0.00  0.00     0.027 C 
ENDROOT
BRANCH   4   9
ATOM      9  C   UNL d   1     -48.940  12.607  22.988  0.00  0.00     0.000 A 
ATOM     10  C   UNL d   1     -49.234  12.325  22.280  0.00  0.00     0.000 A 
ATOM     11  C   UNL d   1     -50.004  12.063  22.231  0.00  0.00     0.000 A 
ATOM     12  C   UNL d   1     -50.494  12.078  22.888  0.00  0.00     0.000 A 
ATOM     13  C   UNL d   1     -50.195  12.364  23.606  0.00  0.00     0.000 A 
ATOM     14  C   UNL d   1     -49.425  12.627  23.655  0.00  0.00     0.000 A 
ENDBRANCH   4   9
BRANCH   2  15
ATOM     15  C   UNL d   1     -47.758  11.561  23.479  0.00  0.00     0.126 C 
ATOM     16  N   UNL d   1     -47.145  11.045  23.695  0.00  0.00    -0.146 N 
ENDBRANCH   2  15
BRANCH   1  17
ATOM     17  C   UNL d   1     -48.593  14.180  22.593  0.00  0.00     0.298 C 
ATOM     18  O   UNL d   1     -48.839  14.185  21.812  0.00  0.00    -0.259 OA
BRANCH  17  19
ATOM     19  O   UNL d   1     -48.919  14.700  23.146  0.00  0.00    -0.296 OA
ATOM     20  C   UNL d   1     -49.264  15.419  22.903  0.00  0.00     0.185 C 
ENDBRANCH  17  19
ENDBRANCH   1  17
TORSDOF 4
ENDMDL
MODEL 2
REMARK VINA RESULT:      -7.6      1.644      2.496
REMARK  4 active torsions:
REMARK  status: ('A' for Active; 'I' for Inactive)
REMARK    1  A    between atoms: C_7  and  C_1 
REMARK    2  A    between atoms: C_8  and  C_2 
REMARK    3  A    between atoms: C_10  and  C_4 
REMARK    4  A    between atoms: O_13  and  C_7 
ROOT
ATOM      1  C   UNL d   1     -47.881  13.066  22.783  0.00  0.00     0.086 A 
ATOM      2  C   UNL d   1     -48.640  14.261  22.675  0.00  0.00     0.064 A 
ATOM      3  C   UNL d   1     -47.932  14.703  22.581  0.00  0.00     0.205 A 
ATOM      4  C   UNL d   1     -48.599  13.447  22.774  0.00  0.00     0.012 A 
ATOM      5  C   UNL d   1     -47.173  13.508  22.689  0.00  0.00     0.107 A 
ATOM      6  O   UNL d   1     -47.203  14.317  22.590  0.00  0.00    -0.288 OA
ATOM      7  N   UNL d   1     -47.947  15.547  22.477  0.00  0.00    -0.121 N 
ATOM      8  C   UNL d   1     -46.402  13.117  22.696  0.00  0.00     0.027 C 
ENDROOT
BRANCH   4   9
ATOM      9  C   UNL d   1     -49.282  13.021  22.864  0.00  0.00     0.000 A 
ATOM     10  C   UNL d   1     -49.601  12.909  23.607  0.00  0.00     0.000 A 
ATOM     11  C   UNL d   1     -50.288  12.480  23.697  0.00  0.00     0.000 A 
ATOM     12  C   UNL d   1     -50.668  12.156  23.047  0.00  0.00     0.000 A 
ATOM     13  C   UNL d   1     -50.343  12.271  22.294  0.00  0.00     0.000 A 
ATOM     14  C   UNL d   1     -49.656  12.699  22.203  0.00  0.00     0.000 A 
ENDBRANCH   4   9
BRANCH   2  15
ATOM     15  C   UNL d   1     -49.369  14.659  22.664  0.00  0.00     0.126 C 
ATOM     16  N   UNL d   1     -49.390  15.484  22.573  0.00  0.00    -0.146 N 
ENDBRANCH   2  15
BRANCH   1  17
ATOM     17  C   UNL d   1     -47.825  12.229  22.884  0.00  0.00     0.298 C 
ATOM     18  O   UNL d   1     -47.975  11.729  22.253  0.00  0.00    -0.259 OA
BRANCH  17  19
ATOM     19  O   UNL d   1     -47.616  11.930  23.625  0.00  0.00    -0.296 OA
ATOM     20  C   UNL d   1     -47.251  11.184  23.696  0.00  0.00     0.185 C 
ENDBRANCH  17  19
ENDBRANCH   1  17
TORSDOF 4
ENDMDL
MODEL 3
REMARK VINA RESULT:      -7.5      1.547      2.424
REMARK  4 active torsions:
REMARK  status: ('A' for Active; 'I' for Inactive)
REMARK    1  A    between atoms: C_7  and  C_1 
REMARK    2  A    between atoms: C_8  and  C_2 
REMARK    3  A    between atoms: C_10  and  C_4 
REMARK    4  A    between atoms: O_13  and  C_7 
ROOT
ATOM      1  C   UNL d   1     -48.079  12.431  23.018  0.00  0.00     0.086 A 
ATOM      2  C   UNL d   1     -47.552  13.730  22.787  0.00  0.00     0.064 A 
ATOM      3  C   UNL d   1     -46.831  13.502  23.153  0.00  0.00     0.205 A 
ATOM      4  C   UNL d   1     -48.164  13.185  22.727  0.00  0.00     0.012 A 
ATOM      5  C   UNL d   1     -47.358  12.204  23.384  0.00  0.00     0.107 A 
ATOM      6  O   UNL d   1     -46.744  12.737  23.449  0.00  0.00    -0.288 OA
ATOM      7  N   UNL d   1     -46.182  14.046  23.229  0.00  0.00    -0.121 N 
ATOM      8  C   UNL d   1     -47.253  11.406  23.698  0.00  0.00     0.027 C 
ENDROOT
BRANCH   4   9
ATOM      9  C   UNL d   1     -48.859  13.405  22.374  0.00  0.00     0.000 A 
ATOM     10  C   UNL d   1     -49.445  13.769  22.810  0.00  0.00     0.000 A 
ATOM     11  C   UNL d   1     -50.145  13.989  22.455  0.00  0.00     0.000 A 
ATOM     12  C   UNL d   1     -50.270  13.850  21.657  0.00  0.00     0.000 A 
ATOM     13  C   UNL d   1     -49.675  13.480  21.215  0.00  0.00     0.000 A 
ATOM     14  C   UNL d   1     -48.976  13.260  21.570  0.00  0.00     0.000 A 
ENDBRANCH   4   9
BRANCH   2  15
ATOM     15  C   UNL d   1     -47.630  14.503  22.493  0.00  0.00     0.126 C 
ATOM     16  N   UNL d   1     -47.006  15.044  22.579  0.00  0.00    -0.146 N 
ENDBRANCH   2  15
BRANCH   1  17
ATOM     17  C   UNL d   1     -48.701  11.862  22.962  0.00  0.00     0.298 C 
ATOM     18  O   UNL d   1     -48.796  11.425  22.276  0.00  0.00    -0.259 OA
BRANCH  17  19
ATOM     19  O   UNL d   1     -49.206  11.758  23.607  0.00  0.00    -0.296 OA
ATOM     20  C   UNL d   1     -49.642  11.053  23.698  0.00  0.00     0.185 C 
ENDBRANCH  17  19
ENDBRANCH   1  17
TORSDOF 4
ENDMDL
MODEL 4
REMARK VINA RESULT:      -7.5      1.462      2.737
REMARK  4 active torsions:
REMARK  status: ('A' for Active; 'I' for Inactive)
REMARK    1  A    between atoms: C_7  and  C_1 
REMARK    2  A    between atoms: C_8  and  C_2 
REMARK    3  A    between atoms: C_10  and  C_4 
REMARK    4  A    between atoms: O_13  and  C_7 
ROOT
ATOM      1  C   UNL d   1     -47.801  12.564  23.222  0.00  0.00     0.086 A 
ATOM      2  C   UNL d   1     -49.210  12.388  23.231  0.00  0.00     0.064 A 
ATOM      3  C   UNL d   1     -49.110  11.610  23.534  0.00  0.00     0.205 A 
ATOM      4  C   UNL d   1     -48.548  12.850  23.080  0.00  0.00     0.012 A 
ATOM      5  C   UNL d   1     -47.702  11.787  23.525  0.00  0.00     0.107 A 
ATOM      6  O   UNL d   1     -48.352  11.319  23.677  0.00  0.00    -0.288 OA
ATOM      7  N   UNL d   1     -49.778  11.110  23.698  0.00  0.00    -0.121 N 
ATOM      8  C   UNL d   1     -46.913  11.470  23.680  0.00  0.00     0.027 C 
ENDROOT
BRANCH   4   9
ATOM      9  C   UNL d   1     -48.644  13.600  22.788  0.00  0.00     0.000 A 
ATOM     10  C   UNL d   1     -48.682  14.237  23.296  0.00  0.00     0.000 A 
ATOM     11  C   UNL d   1     -48.778  14.991  23.002  0.00  0.00     0.000 A 
ATOM     12  C   UNL d   1     -48.839  15.121  22.195  0.00  0.00     0.000 A 
ATOM     13  C   UNL d   1     -48.800  14.473  21.680  0.00  0.00     0.000 A 
ATOM     14  C   UNL d   1     -48.704  13.719  21.974  0.00  0.00     0.000 A 
ENDBRANCH   4   9
BRANCH   2  15
ATOM     15  C   UNL d   1     -49.978  12.671  23.089  0.00  0.00     0.126 C 
ATOM     16  N   UNL d   1     -50.628  12.160  23.163  0.00  0.00    -0.146 N 
ENDBRANCH   2  15
BRANCH   1  17
ATOM     17  C   UNL d   1     -47.113  13.030  23.071  0.00  0.00     0.298 C 
ATOM     18  O   UNL d   1     -46.859  13.578  23.626  0.00  0.00    -0.259 OA
BRANCH  17  19
ATOM     19  O   UNL d   1     -46.705  12.923  22.361  0.00  0.00    -0.296 OA
ATOM     20  C   UNL d   1     -45.897  13.120  22.299  0.00  0.00     0.185 C 
ENDBRANCH  17  19
ENDBRANCH   1  17
TORSDOF 4
ENDMDL
MODEL 5
REMARK VINA RESULT:      -7.1      1.916      3.431
REMARK  4 active torsions:
REMARK  status: ('A' for Active; 'I' for Inactive)
REMARK    1  A    between atoms: C_7  and  C_1 
REMARK    2  A    between atoms: C_8  and  C_2 
REMARK    3  A    between atoms: C_10  and  C_4 
REMARK    4  A    between atoms: O_13  and  C_7 
ROOT
ATOM      1  C   UNL d   1     -48.990  12.931  22.769  0.00  0.00     0.086 A 
ATOM      2  C   UNL d   1     -48.906  14.338  22.603  0.00  0.00     0.064 A 
ATOM      3  C   UNL d   1     -49.742  14.394  22.656  0.00  0.00     0.205 A 
ATOM      4  C   UNL d   1     -48.546  13.603  22.662  0.00  0.00     0.012 A 
ATOM      5  C   UNL d   1     -49.826  12.987  22.822  0.00  0.00     0.107 A 
ATOM      6  O   UNL d   1     -50.194  13.713  22.766  0.00  0.00    -0.288 OA
ATOM      7  N   UNL d   1     -50.140  15.144  22.599  0.00  0.00    -0.121 N 
ATOM      8  C   UNL d   1     -50.311  12.281  22.937  0.00  0.00     0.027 C 
ENDROOT
BRANCH   4   9
ATOM      9  C   UNL d   1     -47.739  13.549  22.611  0.00  0.00     0.000 A 
ATOM     10  C   UNL d   1     -47.276  13.666  23.272  0.00  0.00     0.000 A 
ATOM     11  C   UNL d   1     -46.465  13.612  23.221  0.00  0.00     0.000 A 
ATOM     12  C   UNL d   1     -46.102  13.439  22.507  0.00  0.00     0.000 A 
ATOM     13  C   UNL d   1     -46.572  13.319  21.836  0.00  0.00     0.000 A 
ATOM     14  C   UNL d   1     -47.384  13.374  21.887  0.00  0.00     0.000 A 
ENDBRANCH   4   9
BRANCH   2  15
ATOM     15  C   UNL d   1     -48.461  15.031  22.493  0.00  0.00     0.126 C 
ATOM     16  N   UNL d   1     -48.838  15.770  22.489  0.00  0.00    -0.146 N 
ENDBRANCH   2  15
BRANCH   1  17
ATOM     17  C   UNL d   1     -48.631  12.168  22.831  0.00  0.00     0.298 C 
ATOM     18  O   UNL d   1     -48.445  11.747  22.153  0.00  0.00    -0.259 OA
BRANCH  17  19
ATOM     19  O   UNL d   1     -48.474  11.860  23.581  0.00  0.00    -0.296 OA
ATOM     20  C   UNL d   1     -48.400  11.038  23.697  0.00  0.00     0.185 C 
ENDBRANCH  17  19
ENDBRANCH   1  17
TORSDOF 4
ENDMDL
