MODEL 1
REMARK VINA RESULT:      39.7      0.000      0.000
REMARK  6 active torsions:
REMARK  status: ('A' for Active; 'I' for Inactive)
REMARK    1  A    between atoms: C_12  and  N_1 
REMARK    2  A    between atoms: C_9  and  C_23 
REMARK       I    between atoms: N_10  and  C_9 
REMARK    3  A    between atoms: C_13  and  N_10 
REMARK    4  A    between atoms: C_22  and  C_12 
REMARK    5  A    between atoms: O_21  and  C_15 
REMARK    6  A    between atoms: C_23  and  C_22 
ROOT
ATOM      1  C   UNL d   1      14.437  13.307  -1.635  0.00  0.00     0.085 C 
ENDROOT
BRANCH   1   2
ATOM      2  N   UNL d   1      14.052  12.937  -2.269  0.00  0.00    -0.249 N 
ATOM      3  C   UNL d   1      13.786  12.162  -2.172  0.00  0.00     0.208 A 
ATOM      4  N   UNL d   1      13.398  11.779  -2.800  0.00  0.00    -0.218 NA
ATOM      5  S   UNL d   1      13.914  11.780  -1.444  0.00  0.00    -0.038 SA
ATOM      6  C   UNL d   1      13.276  12.163  -3.515  0.00  0.00     0.088 A 
ATOM      7  C   UNL d   1      13.543  12.943  -3.613  0.00  0.00     0.074 A 
ATOM      8  C   UNL d   1      12.893  11.785  -4.135  0.00  0.00     0.019 A 
ATOM      9  C   UNL d   1      13.928  13.326  -2.994  0.00  0.00     0.268 A 
ATOM     10  C   UNL d   1      13.423  13.332  -4.329  0.00  0.00     0.006 A 
ATOM     11  O   UNL d   1      14.193  14.101  -3.091  0.00  0.00    -0.267 OA
ATOM     12  C   UNL d   1      13.037  12.948  -4.949  0.00  0.00     0.000 A 
ATOM     13  C   UNL d   1      12.772  12.173  -4.852  0.00  0.00     0.002 A 
ENDBRANCH   1   2
BRANCH   1  14
ATOM     14  C   UNL d   1      14.677  12.856  -0.981  0.00  0.00     0.024 C 
BRANCH  14  15
ATOM     15  C   UNL d   1      14.890  13.235  -0.273  0.00  0.00     0.064 C 
BRANCH  15  16
ATOM     16  C   UNL d   1      15.217  14.002  -0.295  0.00  0.00     0.279 C 
ATOM     17  N   UNL d   1      14.736  14.651  -0.413  0.00  0.00    -0.208 NA
ATOM     18  O   UNL d   1      16.043  14.104  -0.195  0.00  0.00    -0.265 OA
BRANCH  17  19
ATOM     19  C   UNL d   1      15.065  15.422  -0.434  0.00  0.00     0.085 A 
ATOM     20  C   UNL d   1      15.759  15.601  -0.021  0.00  0.00     0.021 A 
ATOM     21  C   UNL d   1      16.073  16.363  -0.050  0.00  0.00     0.026 A 
ATOM     22  C   UNL d   1      15.692  16.950  -0.495  0.00  0.00     0.094 A 
ATOM     23  C   UNL d   1      14.999  16.774  -0.908  0.00  0.00     0.026 A 
ATOM     24  C   UNL d   1      14.686  15.999  -0.874  0.00  0.00     0.021 A 
BRANCH  22  25
ATOM     25  O   UNL d   1      15.999  17.715  -0.529  0.00  0.00    -0.328 OA
ATOM     26  C   UNL d   1      15.604  18.291  -0.961  0.00  0.00     0.181 C 
ENDBRANCH  22  25
ENDBRANCH  17  19
ENDBRANCH  15  16
ENDBRANCH  14  15
ENDBRANCH   1  14
TORSDOF 6
ENDMDL
