MODEL 1
REMARK VINA RESULT:      -4.3      0.000      0.000
REMARK  3 active torsions:
REMARK  status: ('A' for Active; 'I' for Inactive)
REMARK    1  A    between atoms: C_2  and  C_1 
REMARK       I    between atoms: N_4  and  C_2 
REMARK    2  A    between atoms: C_6  and  N_4 
REMARK    3  A    between atoms: S_12  and  C_5 
ROOT
ATOM      1  C   UNL d   1      58.112  -0.201  30.770  0.00  0.00     0.298 C 
ATOM      2  N   UNL d   1      57.551  -0.575  31.247  0.00  0.00    -0.207 NA
ATOM      3  O   UNL d   1      58.487   0.498  31.025  0.00  0.00    -0.264 OA
ENDROOT
BRANCH   1   4
ATOM      4  C   UNL d   1      58.302  -0.522  30.033  0.00  0.00     0.153 A 
ATOM      5  N   UNL d   1      58.635  -1.289  29.979  0.00  0.00    -0.216 NA
ATOM      6  C   UNL d   1      58.823  -1.605  29.234  0.00  0.00     0.190 A 
ATOM      7  N   UNL d   1      58.684  -1.167  28.548  0.00  0.00    -0.219 NA
ATOM      8  C   UNL d   1      58.355  -0.408  28.601  0.00  0.00     0.114 A 
ATOM      9  C   UNL d   1      58.163  -0.083  29.341  0.00  0.00     0.099 A 
ATOM     10 CL   UNL d   1      57.834   0.676  29.391  0.00  0.00    -0.079 Cl
BRANCH   6  11
ATOM     11  S   UNL d   1      59.151  -2.360  29.177  0.00  0.00    -0.075 SA
ATOM     12  C   UNL d   1      58.861  -2.898  28.609  0.00  0.00     0.077 C 
ENDBRANCH   6  11
ENDBRANCH   1   4
BRANCH   2  13
ATOM     13  C   UNL d   1      57.359  -0.258  31.983  0.00  0.00     0.085 A 
ATOM     14  C   UNL d   1      56.727  -0.556  32.410  0.00  0.00     0.018 A 
ATOM     15  C   UNL d   1      56.531  -0.245  33.143  0.00  0.00     0.002 A 
ATOM     16  C   UNL d   1      56.283  -1.178  32.100  0.00  0.00     0.002 A 
ATOM     17  C   UNL d   1      55.895  -0.550  33.567  0.00  0.00     0.000 A 
ATOM     18  C   UNL d   1      56.975   0.376  33.453  0.00  0.00     0.000 A 
ATOM     19  C   UNL d   1      55.455  -1.166  33.259  0.00  0.00     0.000 A 
ATOM     20  C   UNL d   1      55.646  -1.483  32.525  0.00  0.00     0.000 A 
ATOM     21  C   UNL d   1      57.614   0.681  33.024  0.00  0.00     0.002 A 
ATOM     22  C   UNL d   1      57.803   0.361  32.288  0.00  0.00     0.019 A 
ENDBRANCH   2  13
TORSDOF 3
ENDMDL
MODEL 2
REMARK VINA RESULT:      -3.0      1.580      4.097
REMARK  3 active torsions:
REMARK  status: ('A' for Active; 'I' for Inactive)
REMARK    1  A    between atoms: C_2  and  C_1 
REMARK       I    between atoms: N_4  and  C_2 
REMARK    2  A    between atoms: C_6  and  N_4 
REMARK    3  A    between atoms: S_12  and  C_5 
ROOT
ATOM      1  C   UNL d   1      57.434  -0.034  31.175  0.00  0.00     0.298 C 
ATOM      2  N   UNL d   1      57.858  -0.640  30.807  0.00  0.00    -0.207 NA
ATOM      3  O   UNL d   1      57.285   0.682  30.776  0.00  0.00    -0.264 OA
ENDROOT
BRANCH   1   4
ATOM      4  C   UNL d   1      57.154  -0.139  31.945  0.00  0.00     0.153 A 
ATOM      5  N   UNL d   1      56.473  -0.605  32.088  0.00  0.00    -0.216 NA
ATOM      6  C   UNL d   1      56.198  -0.706  32.865  0.00  0.00     0.190 A 
ATOM      7  N   UNL d   1      56.593  -0.349  33.497  0.00  0.00    -0.219 NA
ATOM      8  C   UNL d   1      57.267   0.113  33.355  0.00  0.00     0.114 A 
ATOM      9  C   UNL d   1      57.549   0.219  32.582  0.00  0.00     0.099 A 
ATOM     10 CL   UNL d   1      58.223   0.682  32.444  0.00  0.00    -0.079 Cl
BRANCH   6  11
ATOM     11  S   UNL d   1      55.528  -1.165  33.010  0.00  0.00    -0.075 SA
ATOM     12  C   UNL d   1      55.608  -1.932  33.327  0.00  0.00     0.077 C 
ENDBRANCH   6  11
ENDBRANCH   1   4
BRANCH   2  13
ATOM     13  C   UNL d   1      58.139  -0.539  30.039  0.00  0.00     0.085 A 
ATOM     14  C   UNL d   1      58.465  -1.170  29.632  0.00  0.00     0.018 A 
ATOM     15  C   UNL d   1      58.746  -1.076  28.867  0.00  0.00     0.002 A 
ATOM     16  C   UNL d   1      58.512  -1.909  29.995  0.00  0.00     0.002 A 
ATOM     17  C   UNL d   1      59.073  -1.714  28.463  0.00  0.00     0.000 A 
ATOM     18  C   UNL d   1      58.699  -0.338  28.504  0.00  0.00     0.000 A 
ATOM     19  C   UNL d   1      59.120  -2.446  28.823  0.00  0.00     0.000 A 
ATOM     20  C   UNL d   1      58.840  -2.547  29.590  0.00  0.00     0.000 A 
ATOM     21  C   UNL d   1      58.370   0.303  28.912  0.00  0.00     0.002 A 
ATOM     22  C   UNL d   1      58.090   0.197  29.681  0.00  0.00     0.019 A 
ENDBRANCH   2  13
TORSDOF 3
ENDMDL
