MODEL 1
REMARK VINA RESULT:      -2.9      0.000      0.000
REMARK  3 active torsions:
REMARK  status: ('A' for Active; 'I' for Inactive)
REMARK    1  A    between atoms: N_2  and  N_1 
REMARK    2  A    between atoms: C_3  and  N_1 
REMARK    3  A    between atoms: C_4  and  N_2 
ROOT
ATOM      1  N   UNL d   1      32.540  20.839 -21.390  0.00  0.00    -0.148 NA
ENDROOT
BRANCH   1   2
ATOM      2  N   UNL d   1      33.241  20.597 -21.739  0.00  0.00    -0.148 NA
BRANCH   2   3
ATOM      3  C   UNL d   1      33.224  19.933 -22.264  0.00  0.00     0.103 A 
ATOM      4  C   UNL d   1      33.196  19.170 -21.961  0.00  0.00     0.021 A 
ATOM      5  C   UNL d   1      33.179  18.521 -22.470  0.00  0.00     0.002 A 
ATOM      6  C   UNL d   1      33.190  18.641 -23.294  0.00  0.00     0.000 A 
ATOM      7  C   UNL d   1      33.217  19.407 -23.591  0.00  0.00     0.002 A 
ATOM      8  C   UNL d   1      33.234  20.053 -23.089  0.00  0.00     0.021 A 
ENDBRANCH   2   3
ENDBRANCH   1   2
BRANCH   1   9
ATOM      9  C   UNL d   1      32.538  21.552 -20.971  0.00  0.00     0.103 A 
ATOM     10  C   UNL d   1      32.927  21.611 -20.250  0.00  0.00     0.022 A 
ATOM     11  C   UNL d   1      32.916  22.335 -19.838  0.00  0.00     0.022 A 
ATOM     12  C   UNL d   1      32.534  22.967 -20.137  0.00  0.00     0.103 A 
ATOM     13  C   UNL d   1      32.137  22.917 -20.866  0.00  0.00     0.022 A 
ATOM     14  N   UNL d   1      32.534  23.686 -19.709  0.00  0.00    -0.148 N 
ATOM     15  C   UNL d   1      32.140  22.210 -21.282  0.00  0.00     0.022 A 
ENDBRANCH   1   9
TORSDOF 3
ENDMDL
MODEL 2
REMARK VINA RESULT:      -2.5      1.619      4.453
REMARK  3 active torsions:
REMARK  status: ('A' for Active; 'I' for Inactive)
REMARK    1  A    between atoms: N_2  and  N_1 
REMARK    2  A    between atoms: C_3  and  N_1 
REMARK    3  A    between atoms: C_4  and  N_2 
ROOT
ATOM      1  N   UNL d   1      32.588  19.422 -22.752  0.00  0.00    -0.148 NA
ENDROOT
BRANCH   1   2
ATOM      2  N   UNL d   1      33.218  19.866 -22.475  0.00  0.00    -0.148 NA
BRANCH   2   3
ATOM      3  C   UNL d   1      33.055  20.594 -22.074  0.00  0.00     0.103 A 
ATOM      4  C   UNL d   1      32.716  20.584 -21.326  0.00  0.00     0.021 A 
ATOM      5  C   UNL d   1      32.556  21.292 -20.933  0.00  0.00     0.002 A 
ATOM      6  C   UNL d   1      32.739  22.018 -21.297  0.00  0.00     0.000 A 
ATOM      7  C   UNL d   1      33.079  22.021 -22.045  0.00  0.00     0.002 A 
ATOM      8  C   UNL d   1      33.239  21.321 -22.438  0.00  0.00     0.021 A 
ENDBRANCH   2   3
ENDBRANCH   1   2
BRANCH   1   9
ATOM      9  C   UNL d   1      32.751  18.753 -23.210  0.00  0.00     0.103 A 
ATOM     10  C   UNL d   1      32.627  18.767 -24.022  0.00  0.00     0.022 A 
ATOM     11  C   UNL d   1      32.796  18.087 -24.473  0.00  0.00     0.022 A 
ATOM     12  C   UNL d   1      33.076  17.427 -24.124  0.00  0.00     0.103 A 
ATOM     13  C   UNL d   1      33.205  17.404 -23.302  0.00  0.00     0.022 A 
ATOM     14  N   UNL d   1      33.240  16.754 -24.592  0.00  0.00    -0.148 N 
ATOM     15  C   UNL d   1      33.043  18.067 -22.848  0.00  0.00     0.022 A 
ENDBRANCH   1   9
TORSDOF 3
ENDMDL
MODEL 3
REMARK VINA RESULT:      -2.5      4.212      5.834
REMARK  3 active torsions:
REMARK  status: ('A' for Active; 'I' for Inactive)
REMARK    1  A    between atoms: N_2  and  N_1 
REMARK    2  A    between atoms: C_3  and  N_1 
REMARK    3  A    between atoms: C_4  and  N_2 
ROOT
ATOM      1  N   UNL d   1      30.706  16.950 -24.080  0.00  0.00    -0.148 NA
ENDROOT
BRANCH   1   2
ATOM      2  N   UNL d   1      29.983  17.122 -24.423  0.00  0.00    -0.148 NA
BRANCH   2   3
ATOM      3  C   UNL d   1      29.309  16.659 -24.201  0.00  0.00     0.103 A 
ATOM      4  C   UNL d   1      29.206  15.906 -24.515  0.00  0.00     0.021 A 
ATOM      5  C   UNL d   1      28.551  15.453 -24.300  0.00  0.00     0.002 A 
ATOM      6  C   UNL d   1      27.993  15.760 -23.763  0.00  0.00     0.000 A 
ATOM      7  C   UNL d   1      28.102  16.513 -23.453  0.00  0.00     0.002 A 
ATOM      8  C   UNL d   1      28.751  16.966 -23.664  0.00  0.00     0.021 A 
ENDBRANCH   2   3
ENDBRANCH   1   2
BRANCH   1   9
ATOM      9  C   UNL d   1      31.341  17.458 -24.230  0.00  0.00     0.103 A 
ATOM     10  C   UNL d   1      31.410  17.832 -24.959  0.00  0.00     0.022 A 
ATOM     11  C   UNL d   1      32.054  18.342 -25.097  0.00  0.00     0.022 A 
ATOM     12  C   UNL d   1      32.601  18.468 -24.531  0.00  0.00     0.103 A 
ATOM     13  C   UNL d   1      32.540  18.094 -23.791  0.00  0.00     0.022 A 
ATOM     14  N   UNL d   1      33.241  18.984 -24.688  0.00  0.00    -0.148 N 
ATOM     15  C   UNL d   1      31.910  17.590 -23.642  0.00  0.00     0.022 A 
ENDBRANCH   1   9
TORSDOF 3
ENDMDL
MODEL 4
REMARK VINA RESULT:      -2.3      1.760      2.933
REMARK  3 active torsions:
REMARK  status: ('A' for Active; 'I' for Inactive)
REMARK    1  A    between atoms: N_2  and  N_1 
REMARK    2  A    between atoms: C_3  and  N_1 
REMARK    3  A    between atoms: C_4  and  N_2 
ROOT
ATOM      1  N   UNL d   1      33.185  18.597 -22.792  0.00  0.00    -0.148 NA
ENDROOT
BRANCH   1   2
ATOM      2  N   UNL d   1      32.694  18.417 -23.422  0.00  0.00    -0.148 NA
BRANCH   2   3
ATOM      3  C   UNL d   1      32.571  17.602 -23.619  0.00  0.00     0.103 A 
ATOM      4  C   UNL d   1      33.209  17.130 -23.831  0.00  0.00     0.021 A 
ATOM      5  C   UNL d   1      33.093  16.336 -24.024  0.00  0.00     0.002 A 
ATOM      6  C   UNL d   1      32.325  16.013 -24.004  0.00  0.00     0.000 A 
ATOM      7  C   UNL d   1      31.691  16.492 -23.791  0.00  0.00     0.002 A 
ATOM      8  C   UNL d   1      31.803  17.280 -23.599  0.00  0.00     0.021 A 
ENDBRANCH   2   3
ENDBRANCH   1   2
BRANCH   1   9
ATOM      9  C   UNL d   1      33.199  19.377 -22.517  0.00  0.00     0.103 A 
ATOM     10  C   UNL d   1      33.228  20.004 -23.048  0.00  0.00     0.022 A 
ATOM     11  C   UNL d   1      33.241  20.784 -22.758  0.00  0.00     0.022 A 
ATOM     12  C   UNL d   1      33.225  20.927 -21.974  0.00  0.00     0.103 A 
ATOM     13  C   UNL d   1      33.196  20.299 -21.429  0.00  0.00     0.022 A 
ATOM     14  N   UNL d   1      33.239  21.718 -21.701  0.00  0.00    -0.148 N 
ATOM     15  C   UNL d   1      33.182  19.526 -21.702  0.00  0.00     0.022 A 
ENDBRANCH   1   9
TORSDOF 3
ENDMDL
MODEL 5
REMARK VINA RESULT:      -2.0      2.670      5.268
REMARK  3 active torsions:
REMARK  status: ('A' for Active; 'I' for Inactive)
REMARK    1  A    between atoms: N_2  and  N_1 
REMARK    2  A    between atoms: C_3  and  N_1 
REMARK    3  A    between atoms: C_4  and  N_2 
ROOT
ATOM      1  N   UNL d   1      31.904  18.241 -23.451  0.00  0.00    -0.148 NA
ENDROOT
BRANCH   1   2
ATOM      2  N   UNL d   1      32.685  18.488 -23.441  0.00  0.00    -0.148 NA
BRANCH   2   3
ATOM      3  C   UNL d   1      32.874  19.218 -23.054  0.00  0.00     0.103 A 
ATOM      4  C   UNL d   1      33.051  19.885 -23.499  0.00  0.00     0.021 A 
ATOM      5  C   UNL d   1      33.235  20.597 -23.126  0.00  0.00     0.002 A 
ATOM      6  C   UNL d   1      33.241  20.639 -22.294  0.00  0.00     0.000 A 
ATOM      7  C   UNL d   1      33.063  19.967 -21.854  0.00  0.00     0.002 A 
ATOM      8  C   UNL d   1      32.880  19.259 -22.222  0.00  0.00     0.021 A 
ENDBRANCH   2   3
ENDBRANCH   1   2
BRANCH   1   9
ATOM      9  C   UNL d   1      31.720  17.545 -23.858  0.00  0.00     0.103 A 
ATOM     10  C   UNL d   1      31.445  17.576 -24.631  0.00  0.00     0.022 A 
ATOM     11  C   UNL d   1      31.263  16.868 -25.029  0.00  0.00     0.022 A 
ATOM     12  C   UNL d   1      31.353  16.163 -24.667  0.00  0.00     0.103 A 
ATOM     13  C   UNL d   1      31.630  16.121 -23.884  0.00  0.00     0.022 A 
ATOM     14  N   UNL d   1      31.165  15.462 -25.082  0.00  0.00    -0.148 N 
ATOM     15  C   UNL d   1      31.813  16.812 -23.481  0.00  0.00     0.022 A 
ENDBRANCH   1   9
TORSDOF 3
ENDMDL
MODEL 6
REMARK VINA RESULT:      -1.5      4.861      6.197
REMARK  3 active torsions:
REMARK  status: ('A' for Active; 'I' for Inactive)
REMARK    1  A    between atoms: N_2  and  N_1 
REMARK    2  A    between atoms: C_3  and  N_1 
REMARK    3  A    between atoms: C_4  and  N_2 
ROOT
ATOM      1  N   UNL d   1      30.130  17.321 -24.095  0.00  0.00    -0.148 NA
ENDROOT
BRANCH   1   2
ATOM      2  N   UNL d   1      30.521  17.202 -24.805  0.00  0.00    -0.148 NA
BRANCH   2   3
ATOM      3  C   UNL d   1      31.332  17.439 -24.866  0.00  0.00     0.103 A 
ATOM      4  C   UNL d   1      31.912  16.883 -25.036  0.00  0.00     0.021 A 
ATOM      5  C   UNL d   1      32.702  17.111 -25.096  0.00  0.00     0.002 A 
ATOM      6  C   UNL d   1      32.912  17.909 -24.982  0.00  0.00     0.000 A 
ATOM      7  C   UNL d   1      32.327  18.461 -24.812  0.00  0.00     0.002 A 
ATOM      8  C   UNL d   1      31.542  18.237 -24.752  0.00  0.00     0.021 A 
ENDBRANCH   2   3
ENDBRANCH   1   2
BRANCH   1   9
ATOM      9  C   UNL d   1      29.450  16.875 -23.944  0.00  0.00     0.103 A 
ATOM     10  C   UNL d   1      29.507  16.148 -23.564  0.00  0.00     0.022 A 
ATOM     11  C   UNL d   1      28.815  15.709 -23.417  0.00  0.00     0.022 A 
ATOM     12  C   UNL d   1      28.102  15.987 -23.641  0.00  0.00     0.103 A 
ATOM     13  C   UNL d   1      28.034  16.722 -24.025  0.00  0.00     0.022 A 
ATOM     14  N   UNL d   1      27.417  15.532 -23.485  0.00  0.00    -0.148 N 
ATOM     15  C   UNL d   1      28.709  17.164 -24.176  0.00  0.00     0.022 A 
ENDBRANCH   1   9
TORSDOF 3
ENDMDL
