MODEL 1
REMARK VINA RESULT:      -1.0      0.000      0.000
REMARK  5 active torsions:
REMARK  status: ('A' for Active; 'I' for Inactive)
REMARK    1  A    between atoms: N_7  and  C_4 
REMARK    2  A    between atoms: N_9  and  N_7 
REMARK       I    between atoms: C_8  and  N_9 
REMARK    3  A    between atoms: C_11  and  C_8 
REMARK    4  A    between atoms: C_14  and  C_11 
REMARK    5  A    between atoms: C_15  and  C_11 
ROOT
ATOM      1  C   UNL d   1      31.936  18.381 -24.332  0.00  0.00     0.297 C 
ATOM      2  N   UNL d   1      32.435  18.631 -23.723  0.00  0.00    -0.104 NA
ATOM      3  O   UNL d   1      31.722  18.905 -24.933  0.00  0.00    -0.264 OA
ENDROOT
BRANCH   1   4
ATOM      4  C   UNL d   1      31.652  17.606 -24.336  0.00  0.00     0.059 C 
BRANCH   4   5
ATOM      5  C   UNL d   1      30.838  17.463 -24.329  0.00  0.00     0.005 A 
ATOM      6  C   UNL d   1      30.475  17.257 -23.625  0.00  0.00     0.000 A 
ATOM      7  C   UNL d   1      29.669  17.113 -23.609  0.00  0.00     0.000 A 
ATOM      8  C   UNL d   1      29.239  17.182 -24.317  0.00  0.00     0.000 A 
ATOM      9  C   UNL d   1      29.607  17.387 -25.017  0.00  0.00     0.000 A 
ATOM     10  C   UNL d   1      30.401  17.526 -25.017  0.00  0.00     0.000 A 
ENDBRANCH   4   5
BRANCH   4  11
ATOM     11  C   UNL d   1      32.184  16.975 -24.349  0.00  0.00     0.005 A 
ATOM     12  C   UNL d   1      32.589  16.811 -25.035  0.00  0.00     0.000 A 
ATOM     13  C   UNL d   1      33.123  16.181 -25.056  0.00  0.00     0.000 A 
ATOM     14  C   UNL d   1      33.240  15.723 -24.378  0.00  0.00     0.000 A 
ATOM     15  C   UNL d   1      32.816  15.902 -23.677  0.00  0.00     0.000 A 
ATOM     16  C   UNL d   1      32.291  16.531 -23.675  0.00  0.00     0.000 A 
ENDBRANCH   4  11
ENDBRANCH   1   4
BRANCH   2  17
ATOM     17  N   UNL d   1      32.719  19.406 -23.719  0.00  0.00    -0.127 NA
BRANCH  17  18
ATOM     18  C   UNL d   1      32.850  19.794 -22.998  0.00  0.00     0.178 A 
ATOM     19  N   UNL d   1      32.976  20.607 -22.982  0.00  0.00    -0.240 N 
ATOM     20  C   UNL d   1      33.105  20.991 -22.270  0.00  0.00     0.343 A 
ATOM     21  C   UNL d   1      32.971  21.038 -23.688  0.00  0.00     0.105 C 
ATOM     22  N   UNL d   1      33.109  20.561 -21.564  0.00  0.00    -0.224 N 
ATOM     23  O   UNL d   1      33.232  21.810 -22.256  0.00  0.00    -0.245 OA
ATOM     24  C   UNL d   1      32.984  19.742 -21.563  0.00  0.00     0.271 A 
ATOM     25  C   UNL d   1      33.240  20.949 -20.844  0.00  0.00     0.107 C 
ATOM     26  C   UNL d   1      32.854  19.364 -22.292  0.00  0.00     0.101 A 
ATOM     27  O   UNL d   1      32.989  19.316 -20.865  0.00  0.00    -0.266 OA
ENDBRANCH  17  18
ENDBRANCH   2  17
TORSDOF 5
ENDMDL
MODEL 2
REMARK VINA RESULT:       0.0      1.004      2.551
REMARK  5 active torsions:
REMARK  status: ('A' for Active; 'I' for Inactive)
REMARK    1  A    between atoms: N_7  and  C_4 
REMARK    2  A    between atoms: N_9  and  N_7 
REMARK       I    between atoms: C_8  and  N_9 
REMARK    3  A    between atoms: C_11  and  C_8 
REMARK    4  A    between atoms: C_14  and  C_11 
REMARK    5  A    between atoms: C_15  and  C_11 
ROOT
ATOM      1  C   UNL d   1      32.421  17.947 -23.210  0.00  0.00     0.297 C 
ATOM      2  N   UNL d   1      32.633  18.738 -23.313  0.00  0.00    -0.104 NA
ATOM      3  O   UNL d   1      32.588  17.563 -22.498  0.00  0.00    -0.264 OA
ENDROOT
BRANCH   1   4
ATOM      4  C   UNL d   1      32.041  17.542 -23.820  0.00  0.00     0.059 C 
BRANCH   4   5
ATOM      5  C   UNL d   1      32.380  16.858 -24.138  0.00  0.00     0.005 A 
ATOM      6  C   UNL d   1      32.900  16.925 -24.766  0.00  0.00     0.000 A 
ATOM      7  C   UNL d   1      33.240  16.252 -25.086  0.00  0.00     0.000 A 
ATOM      8  C   UNL d   1      33.044  15.513 -24.760  0.00  0.00     0.000 A 
ATOM      9  C   UNL d   1      32.523  15.453 -24.133  0.00  0.00     0.000 A 
ATOM     10  C   UNL d   1      32.197  16.124 -23.828  0.00  0.00     0.000 A 
ENDBRANCH   4   5
BRANCH   4  11
ATOM     11  C   UNL d   1      31.321  17.821 -24.112  0.00  0.00     0.005 A 
ATOM     12  C   UNL d   1      30.633  17.633 -23.719  0.00  0.00     0.000 A 
ATOM     13  C   UNL d   1      29.909  17.909 -24.005  0.00  0.00     0.000 A 
ATOM     14  C   UNL d   1      29.890  18.373 -24.687  0.00  0.00     0.000 A 
ATOM     15  C   UNL d   1      30.605  18.560 -25.083  0.00  0.00     0.000 A 
ATOM     16  C   UNL d   1      31.314  18.278 -24.786  0.00  0.00     0.000 A 
ENDBRANCH   4  11
ENDBRANCH   1   4
BRANCH   2  17
ATOM     17  N   UNL d   1      33.013  19.143 -22.703  0.00  0.00    -0.127 NA
BRANCH  17  18
ATOM     18  C   UNL d   1      32.975  19.971 -22.669  0.00  0.00     0.178 A 
ATOM     19  N   UNL d   1      32.787  20.348 -21.962  0.00  0.00    -0.240 N 
ATOM     20  C   UNL d   1      32.749  21.166 -21.929  0.00  0.00     0.343 A 
ATOM     21  C   UNL d   1      32.637  19.900 -21.284  0.00  0.00     0.105 C 
ATOM     22  N   UNL d   1      32.900  21.615 -22.607  0.00  0.00    -0.224 N 
ATOM     23  O   UNL d   1      32.560  21.544 -21.216  0.00  0.00    -0.245 OA
ATOM     24  C   UNL d   1      33.090  21.249 -23.326  0.00  0.00     0.271 A 
ATOM     25  C   UNL d   1      32.861  22.441 -22.573  0.00  0.00     0.107 C 
ATOM     26  C   UNL d   1      33.125  20.419 -23.347  0.00  0.00     0.101 A 
ATOM     27  O   UNL d   1      33.238  21.693 -23.997  0.00  0.00    -0.266 OA
ENDBRANCH  17  18
ENDBRANCH   2  17
TORSDOF 5
ENDMDL
MODEL 3
REMARK VINA RESULT:       1.1      0.960      1.647
REMARK  5 active torsions:
REMARK  status: ('A' for Active; 'I' for Inactive)
REMARK    1  A    between atoms: N_7  and  C_4 
REMARK    2  A    between atoms: N_9  and  N_7 
REMARK       I    between atoms: C_8  and  N_9 
REMARK    3  A    between atoms: C_11  and  C_8 
REMARK    4  A    between atoms: C_14  and  C_11 
REMARK    5  A    between atoms: C_15  and  C_11 
ROOT
ATOM      1  C   UNL d   1      32.115  18.177 -22.994  0.00  0.00     0.297 C 
ATOM      2  N   UNL d   1      32.432  18.921 -23.158  0.00  0.00    -0.104 NA
ATOM      3  O   UNL d   1      32.046  17.918 -22.213  0.00  0.00    -0.264 OA
ENDROOT
BRANCH   1   4
ATOM      4  C   UNL d   1      31.866  17.692 -23.614  0.00  0.00     0.059 C 
BRANCH   4   5
ATOM      5  C   UNL d   1      31.158  17.854 -24.009  0.00  0.00     0.005 A 
ATOM      6  C   UNL d   1      30.454  17.570 -23.703  0.00  0.00     0.000 A 
ATOM      7  C   UNL d   1      29.749  17.727 -24.089  0.00  0.00     0.000 A 
ATOM      8  C   UNL d   1      29.770  18.175 -24.789  0.00  0.00     0.000 A 
ATOM      9  C   UNL d   1      30.476  18.456 -25.090  0.00  0.00     0.000 A 
ATOM     10  C   UNL d   1      31.162  18.294 -24.699  0.00  0.00     0.000 A 
ENDBRANCH   4   5
BRANCH   4  11
ATOM     11  C   UNL d   1      32.326  17.044 -23.838  0.00  0.00     0.005 A 
ATOM     12  C   UNL d   1      32.593  16.530 -23.266  0.00  0.00     0.000 A 
ATOM     13  C   UNL d   1      33.054  15.880 -23.482  0.00  0.00     0.000 A 
ATOM     14  C   UNL d   1      33.240  15.758 -24.278  0.00  0.00     0.000 A 
ATOM     15  C   UNL d   1      32.959  16.295 -24.858  0.00  0.00     0.000 A 
ATOM     16  C   UNL d   1      32.503  16.934 -24.625  0.00  0.00     0.000 A 
ENDBRANCH   4  11
ENDBRANCH   1   4
BRANCH   2  17
ATOM     17  N   UNL d   1      32.680  19.406 -22.538  0.00  0.00    -0.127 NA
BRANCH  17  18
ATOM     18  C   UNL d   1      32.810  20.214 -22.671  0.00  0.00     0.178 A 
ATOM     19  N   UNL d   1      32.794  20.745 -22.044  0.00  0.00    -0.240 N 
ATOM     20  C   UNL d   1      32.922  21.544 -22.175  0.00  0.00     0.343 A 
ATOM     21  C   UNL d   1      32.646  20.472 -21.277  0.00  0.00     0.105 C 
ATOM     22  N   UNL d   1      33.070  21.817 -22.942  0.00  0.00    -0.224 N 
ATOM     23  O   UNL d   1      32.905  22.077 -21.541  0.00  0.00    -0.245 OA
ATOM     24  C   UNL d   1      33.090  21.295 -23.584  0.00  0.00     0.271 A 
ATOM     25  C   UNL d   1      33.200  22.624 -23.074  0.00  0.00     0.107 C 
ATOM     26  C   UNL d   1      32.958  20.487 -23.438  0.00  0.00     0.101 A 
ATOM     27  O   UNL d   1      33.236  21.565 -24.342  0.00  0.00    -0.266 OA
ENDBRANCH  17  18
ENDBRANCH   2  17
TORSDOF 5
ENDMDL
MODEL 4
REMARK VINA RESULT:       1.6      2.190      5.603
REMARK  5 active torsions:
REMARK  status: ('A' for Active; 'I' for Inactive)
REMARK    1  A    between atoms: N_7  and  C_4 
REMARK    2  A    between atoms: N_9  and  N_7 
REMARK       I    between atoms: C_8  and  N_9 
REMARK    3  A    between atoms: C_11  and  C_8 
REMARK    4  A    between atoms: C_14  and  C_11 
REMARK    5  A    between atoms: C_15  and  C_11 
ROOT
ATOM      1  C   UNL d   1      32.391  21.396 -21.213  0.00  0.00     0.297 C 
ATOM      2  N   UNL d   1      32.899  20.980 -21.713  0.00  0.00    -0.104 NA
ATOM      3  O   UNL d   1      31.797  20.997 -20.801  0.00  0.00    -0.264 OA
ENDROOT
BRANCH   1   4
ATOM      4  C   UNL d   1      32.479  22.212 -21.127  0.00  0.00     0.059 C 
BRANCH   4   5
ATOM      5  C   UNL d   1      32.545  22.545 -20.372  0.00  0.00     0.005 A 
ATOM      6  C   UNL d   1      33.132  22.279 -19.868  0.00  0.00     0.000 A 
ATOM      7  C   UNL d   1      33.204  22.603 -19.120  0.00  0.00     0.000 A 
ATOM      8  C   UNL d   1      32.672  23.200 -18.892  0.00  0.00     0.000 A 
ATOM      9  C   UNL d   1      32.087  23.461 -19.400  0.00  0.00     0.000 A 
ATOM     10  C   UNL d   1      32.029  23.132 -20.133  0.00  0.00     0.000 A 
ENDBRANCH   4   5
BRANCH   4  11
ATOM     11  C   UNL d   1      32.500  22.695 -21.796  0.00  0.00     0.005 A 
ATOM     12  C   UNL d   1      33.209  22.810 -22.180  0.00  0.00     0.000 A 
ATOM     13  C   UNL d   1      33.238  23.292 -22.850  0.00  0.00     0.000 A 
ATOM     14  C   UNL d   1      32.548  23.654 -23.123  0.00  0.00     0.000 A 
ATOM     15  C   UNL d   1      31.824  23.528 -22.718  0.00  0.00     0.000 A 
ATOM     16  C   UNL d   1      31.814  23.047 -22.056  0.00  0.00     0.000 A 
ENDBRANCH   4  11
ENDBRANCH   1   4
BRANCH   2  17
ATOM     17  N   UNL d   1      32.812  20.164 -21.800  0.00  0.00    -0.127 NA
BRANCH  17  18
ATOM     18  C   UNL d   1      32.877  19.818 -22.550  0.00  0.00     0.178 A 
ATOM     19  N   UNL d   1      32.795  19.004 -22.640  0.00  0.00    -0.240 N 
ATOM     20  C   UNL d   1      32.860  18.662 -23.382  0.00  0.00     0.343 A 
ATOM     21  C   UNL d   1      32.646  18.531 -21.979  0.00  0.00     0.105 C 
ATOM     22  N   UNL d   1      33.008  19.136 -24.044  0.00  0.00    -0.224 N 
ATOM     23  O   UNL d   1      32.776  17.843 -23.470  0.00  0.00    -0.245 OA
ATOM     24  C   UNL d   1      33.094  19.956 -23.970  0.00  0.00     0.271 A 
ATOM     25  C   UNL d   1      33.074  18.790 -24.793  0.00  0.00     0.107 C 
ATOM     26  C   UNL d   1      33.026  20.292 -23.212  0.00  0.00     0.101 A 
ATOM     27  O   UNL d   1      33.240  20.425 -24.624  0.00  0.00    -0.266 OA
ENDBRANCH  17  18
ENDBRANCH   2  17
TORSDOF 5
ENDMDL
