MODEL 1
REMARK VINA RESULT:      69.4      0.000      0.000
REMARK  7 active torsions:
REMARK  status: ('A' for Active; 'I' for Inactive)
REMARK    1  A    between atoms: C_2  and  P_1 
REMARK    2  A    between atoms: O_3  and  P_1 
REMARK    3  A    between atoms: C_4  and  P_1 
REMARK    4  A    between atoms: C_12  and  C_2 
REMARK    5  A    between atoms: C_13  and  O_3 
REMARK    6  A    between atoms: N_7  and  C_6 
REMARK    7  A    between atoms: C_15  and  C_13 
ROOT
ATOM      1  P   UNL d   1     -47.806  30.075  35.305  0.00  0.00     0.307 P 
ATOM      2  O   UNL d   1     -47.814  29.326  35.732  0.00  0.00    -0.277 OA
ENDROOT
BRANCH   1   3
ATOM      3  C   UNL d   1     -47.291  30.418  35.898  0.00  0.00     0.253 C 
ATOM      4  O   UNL d   1     -47.199  31.237  35.932  0.00  0.00    -0.281 OA
BRANCH   3   5
ATOM      5  C   UNL d   1     -46.888  29.936  36.431  0.00  0.00     0.044 C 
ATOM      6  C   UNL d   1     -47.087  29.952  37.231  0.00  0.00     0.004 C 
ATOM      7  C   UNL d   1     -46.290  29.441  36.167  0.00  0.00     0.004 C 
ENDBRANCH   3   5
ENDBRANCH   1   3
BRANCH   1   8
ATOM      8  O   UNL d   1     -48.318  29.715  34.730  0.00  0.00    -0.279 OA
BRANCH   8   9
ATOM      9  C   UNL d   1     -48.488  28.879  34.759  0.00  0.00     0.124 C 
BRANCH   9  10
ATOM     10  C   UNL d   1     -49.061  28.536  34.285  0.00  0.00     0.025 A 
ATOM     11  C   UNL d   1     -49.522  29.007  33.789  0.00  0.00     0.002 A 
ATOM     12  C   UNL d   1     -50.104  28.665  33.306  0.00  0.00     0.000 A 
ATOM     13  C   UNL d   1     -50.221  27.850  33.323  0.00  0.00     0.000 A 
ATOM     14  C   UNL d   1     -49.756  27.377  33.823  0.00  0.00     0.000 A 
ATOM     15  C   UNL d   1     -49.178  27.720  34.302  0.00  0.00     0.002 A 
ENDBRANCH   9  10
ENDBRANCH   8   9
ENDBRANCH   1   8
BRANCH   1  16
ATOM     16  C   UNL d   1     -47.819  30.804  34.858  0.00  0.00     0.061 A 
ATOM     17  C   UNL d   1     -48.506  31.257  34.859  0.00  0.00     0.007 A 
ATOM     18  C   UNL d   1     -48.537  31.959  34.436  0.00  0.00     0.018 A 
ATOM     19  C   UNL d   1     -47.878  32.211  34.009  0.00  0.00     0.064 A 
ATOM     20  C   UNL d   1     -47.191  31.757  34.008  0.00  0.00     0.018 A 
ATOM     21  C   UNL d   1     -47.163  31.052  34.435  0.00  0.00     0.007 A 
BRANCH  19  22
ATOM     22  N   UNL d   1     -47.920  32.948  33.569  0.00  0.00    -0.301 N 
ATOM     23  C   UNL d   1     -47.219  33.306  33.306  0.00  0.00     0.100 C 
ATOM     24  C   UNL d   1     -48.650  33.304  33.404  0.00  0.00     0.100 C 
ENDBRANCH  19  22
ENDBRANCH   1  16
TORSDOF 7
ENDMDL
MODEL 2
REMARK VINA RESULT:      70.8      1.276      3.678
REMARK  7 active torsions:
REMARK  status: ('A' for Active; 'I' for Inactive)
REMARK    1  A    between atoms: C_2  and  P_1 
REMARK    2  A    between atoms: O_3  and  P_1 
REMARK    3  A    between atoms: C_4  and  P_1 
REMARK    4  A    between atoms: C_12  and  C_2 
REMARK    5  A    between atoms: C_13  and  O_3 
REMARK    6  A    between atoms: N_7  and  C_6 
REMARK    7  A    between atoms: C_15  and  C_13 
ROOT
ATOM      1  P   UNL d   1     -47.433  30.327  35.507  0.00  0.00     0.307 P 
ATOM      2  O   UNL d   1     -46.949  30.940  35.872  0.00  0.00    -0.277 OA
ENDROOT
BRANCH   1   3
ATOM      3  C   UNL d   1     -47.134  29.747  36.062  0.00  0.00     0.253 C 
ATOM      4  O   UNL d   1     -46.925  28.996  35.793  0.00  0.00    -0.281 OA
BRANCH   3   5
ATOM      5  C   UNL d   1     -47.055  29.935  36.861  0.00  0.00     0.044 C 
ATOM      6  C   UNL d   1     -47.727  30.025  37.331  0.00  0.00     0.004 C 
ATOM      7  C   UNL d   1     -46.310  30.031  37.188  0.00  0.00     0.004 C 
ENDBRANCH   3   5
ENDBRANCH   1   3
BRANCH   1   8
ATOM      8  O   UNL d   1     -47.715  30.919  34.966  0.00  0.00    -0.279 OA
BRANCH   8   9
ATOM      9  C   UNL d   1     -47.462  31.731  35.036  0.00  0.00     0.124 C 
BRANCH   9  10
ATOM     10  C   UNL d   1     -47.635  32.290  34.463  0.00  0.00     0.025 A 
ATOM     11  C   UNL d   1     -48.397  32.599  34.404  0.00  0.00     0.002 A 
ATOM     12  C   UNL d   1     -48.578  33.166  33.825  0.00  0.00     0.000 A 
ATOM     13  C   UNL d   1     -47.991  33.421  33.306  0.00  0.00     0.000 A 
ATOM     14  C   UNL d   1     -47.224  33.108  33.367  0.00  0.00     0.000 A 
ATOM     15  C   UNL d   1     -47.048  32.545  33.944  0.00  0.00     0.002 A 
ENDBRANCH   9  10
ENDBRANCH   8   9
ENDBRANCH   1   8
BRANCH   1  16
ATOM     16  C   UNL d   1     -47.924  29.743  35.122  0.00  0.00     0.061 A 
ATOM     17  C   UNL d   1     -47.663  28.963  35.090  0.00  0.00     0.007 A 
ATOM     18  C   UNL d   1     -48.122  28.390  34.725  0.00  0.00     0.018 A 
ATOM     19  C   UNL d   1     -48.847  28.596  34.389  0.00  0.00     0.064 A 
ATOM     20  C   UNL d   1     -49.108  29.375  34.421  0.00  0.00     0.018 A 
ATOM     21  C   UNL d   1     -48.645  29.950  34.789  0.00  0.00     0.007 A 
BRANCH  19  22
ATOM     22  N   UNL d   1     -49.320  27.987  34.009  0.00  0.00    -0.301 N 
ATOM     23  C   UNL d   1     -49.722  28.165  33.306  0.00  0.00     0.100 C 
ATOM     24  C   UNL d   1     -49.379  27.228  34.336  0.00  0.00     0.100 C 
ENDBRANCH  19  22
ENDBRANCH   1  16
TORSDOF 7
ENDMDL
