MODEL 1
REMARK VINA RESULT:      50.8      0.000      0.000
REMARK  4 active torsions:
REMARK  status: ('A' for Active; 'I' for Inactive)
REMARK    1  A    between atoms: C_10  and  C_1 
REMARK       I    between atoms: C_5  and  N_3 
REMARK    2  A    between atoms: O_18  and  C_5 
REMARK    3  A    between atoms: N_9  and  C_10 
REMARK    4  A    between atoms: C_22  and  O_18 
ROOT
ATOM      1  C   UNL d   1      13.733  13.108  -2.641  0.00  0.00     0.059 A 
ATOM      2  C   UNL d   1      14.188  12.456  -1.456  0.00  0.00     0.121 A 
ATOM      3  C   UNL d   1      13.739  12.445  -2.152  0.00  0.00     0.214 A 
ATOM      4  C   UNL d   1      14.629  13.132  -1.254  0.00  0.00     0.032 A 
ATOM      5  C   UNL d   1      14.623  13.795  -1.744  0.00  0.00     0.059 A 
ATOM      6  C   UNL d   1      14.174  13.784  -2.439  0.00  0.00     0.016 A 
ATOM      7  N   UNL d   1      14.199  11.806  -0.967  0.00  0.00    -0.241 NA
ATOM      8 CL   UNL d   1      15.065  14.470  -1.542  0.00  0.00    -0.082 Cl
ATOM      9  O   UNL d   1      13.304  11.780  -2.351  0.00  0.00    -0.285 OA
ATOM     10  C   UNL d   1      15.073  13.143  -0.566  0.00  0.00     0.004 A 
ATOM     11  C   UNL d   1      14.644  11.803  -0.268  0.00  0.00     0.099 A 
ATOM     12  C   UNL d   1      15.087  12.476  -0.062  0.00  0.00     0.021 A 
ENDROOT
BRANCH   1  13
ATOM     13  C   UNL d   1      13.290  13.110  -3.337  0.00  0.00     0.084 C 
BRANCH  13  14
ATOM     14  N   UNL d   1      13.420  13.667  -3.921  0.00  0.00    -0.300 N 
ATOM     15  C   UNL d   1      13.928  13.513  -4.548  0.00  0.00     0.100 A 
ATOM     16  C   UNL d   1      14.058  14.070  -5.131  0.00  0.00     0.104 A 
ATOM     17  N   UNL d   1      13.670  14.805  -5.091  0.00  0.00    -0.249 N 
ATOM     18  C   UNL d   1      13.154  14.964  -4.457  0.00  0.00     0.104 A 
ATOM     19  C   UNL d   1      13.799  15.372  -5.681  0.00  0.00     0.378 C 
ATOM     20  C   UNL d   1      13.031  14.401  -3.881  0.00  0.00     0.100 A 
ATOM     21  O   UNL d   1      14.307  15.207  -6.299  0.00  0.00    -0.237 OA
BRANCH  19  22
ATOM     22  O   UNL d   1      13.419  16.092  -5.642  0.00  0.00    -0.257 OA
BRANCH  22  23
ATOM     23  C   UNL d   1      13.552  16.670  -6.227  0.00  0.00     0.128 C 
ATOM     24  C   UNL d   1      13.280  17.367  -6.389  0.00  0.00     0.029 C 
ENDBRANCH  22  23
ENDBRANCH  19  22
ENDBRANCH  13  14
ENDBRANCH   1  13
TORSDOF 4
ENDMDL
MODEL 2
REMARK VINA RESULT:      51.3      2.638      3.149
REMARK  4 active torsions:
REMARK  status: ('A' for Active; 'I' for Inactive)
REMARK    1  A    between atoms: C_10  and  C_1 
REMARK       I    between atoms: C_5  and  N_3 
REMARK    2  A    between atoms: O_18  and  C_5 
REMARK    3  A    between atoms: N_9  and  C_10 
REMARK    4  A    between atoms: C_22  and  O_18 
ROOT
ATOM      1  C   UNL d   1      14.938  14.727  -0.066  0.00  0.00     0.059 A 
ATOM      2  C   UNL d   1      14.337  13.433  -0.040  0.00  0.00     0.121 A 
ATOM      3  C   UNL d   1      14.261  14.258  -0.053  0.00  0.00     0.214 A 
ATOM      4  C   UNL d   1      15.092  13.083  -0.040  0.00  0.00     0.032 A 
ATOM      5  C   UNL d   1      15.769  13.554  -0.052  0.00  0.00     0.059 A 
ATOM      6  C   UNL d   1      15.692  14.377  -0.065  0.00  0.00     0.016 A 
ATOM      7  N   UNL d   1      13.674  12.962  -0.028  0.00  0.00    -0.241 NA
ATOM      8 CL   UNL d   1      16.523  13.203  -0.052  0.00  0.00    -0.082 Cl
ATOM      9  O   UNL d   1      13.518  14.602  -0.054  0.00  0.00    -0.285 OA
ATOM     10  C   UNL d   1      15.168  12.268  -0.027  0.00  0.00     0.004 A 
ATOM     11  C   UNL d   1      13.735  12.136  -0.015  0.00  0.00     0.099 A 
ATOM     12  C   UNL d   1      14.488  11.781  -0.014  0.00  0.00     0.021 A 
ENDROOT
BRANCH   1  13
ATOM     13  C   UNL d   1      14.875  15.550  -0.079  0.00  0.00     0.084 C 
BRANCH  13  14
ATOM     14  N   UNL d   1      14.985  15.972  -0.770  0.00  0.00    -0.300 N 
ATOM     15  C   UNL d   1      15.395  16.684  -0.771  0.00  0.00     0.100 A 
ATOM     16  C   UNL d   1      15.505  17.107  -1.462  0.00  0.00     0.104 A 
ATOM     17  N   UNL d   1      15.198  16.811  -2.177  0.00  0.00    -0.249 N 
ATOM     18  C   UNL d   1      14.782  16.090  -2.180  0.00  0.00     0.104 A 
ATOM     19  C   UNL d   1      15.308  17.237  -2.880  0.00  0.00     0.378 C 
ATOM     20  C   UNL d   1      14.678  15.677  -1.485  0.00  0.00     0.100 A 
ATOM     21  O   UNL d   1      15.717  17.943  -2.867  0.00  0.00    -0.237 OA
BRANCH  19  22
ATOM     22  O   UNL d   1      15.007  16.948  -3.580  0.00  0.00    -0.257 OA
BRANCH  22  23
ATOM     23  C   UNL d   1      15.133  17.359  -4.292  0.00  0.00     0.128 C 
ATOM     24  C   UNL d   1      15.384  17.186  -4.995  0.00  0.00     0.029 C 
ENDBRANCH  22  23
ENDBRANCH  19  22
ENDBRANCH  13  14
ENDBRANCH   1  13
TORSDOF 4
ENDMDL
MODEL 3
REMARK VINA RESULT:      51.5      2.442      3.960
REMARK  4 active torsions:
REMARK  status: ('A' for Active; 'I' for Inactive)
REMARK    1  A    between atoms: C_10  and  C_1 
REMARK       I    between atoms: C_5  and  N_3 
REMARK    2  A    between atoms: O_18  and  C_5 
REMARK    3  A    between atoms: N_9  and  C_10 
REMARK    4  A    between atoms: C_22  and  O_18 
ROOT
ATOM      1  C   UNL d   1      14.043  13.182  -2.253  0.00  0.00     0.059 A 
ATOM      2  C   UNL d   1      13.493  12.481  -3.368  0.00  0.00     0.121 A 
ATOM      3  C   UNL d   1      13.781  12.478  -2.592  0.00  0.00     0.214 A 
ATOM      4  C   UNL d   1      13.468  13.191  -3.802  0.00  0.00     0.032 A 
ATOM      5  C   UNL d   1      13.729  13.895  -3.462  0.00  0.00     0.059 A 
ATOM      6  C   UNL d   1      14.017  13.892  -2.687  0.00  0.00     0.016 A 
ATOM      7  N   UNL d   1      13.233  11.790  -3.711  0.00  0.00    -0.241 NA
ATOM      8 CL   UNL d   1      13.704  14.605  -3.895  0.00  0.00    -0.082 Cl
ATOM      9  O   UNL d   1      13.806  11.779  -2.165  0.00  0.00    -0.285 OA
ATOM     10  C   UNL d   1      13.183  13.195  -4.569  0.00  0.00     0.004 A 
ATOM     11  C   UNL d   1      12.942  11.779  -4.486  0.00  0.00     0.099 A 
ATOM     12  C   UNL d   1      12.915  12.487  -4.923  0.00  0.00     0.021 A 
ENDROOT
BRANCH   1  13
ATOM     13  C   UNL d   1      14.332  13.191  -1.481  0.00  0.00     0.084 C 
BRANCH  13  14
ATOM     14  N   UNL d   1      14.781  13.816  -1.204  0.00  0.00    -0.300 N 
ATOM     15  C   UNL d   1      15.508  13.689  -0.843  0.00  0.00     0.100 A 
ATOM     16  C   UNL d   1      15.956  14.314  -0.567  0.00  0.00     0.104 A 
ATOM     17  N   UNL d   1      15.673  15.091  -0.652  0.00  0.00    -0.249 N 
ATOM     18  C   UNL d   1      14.937  15.224  -1.017  0.00  0.00     0.104 A 
ATOM     19  C   UNL d   1      16.126  15.727  -0.373  0.00  0.00     0.378 C 
ATOM     20  C   UNL d   1      14.498  14.594  -1.289  0.00  0.00     0.100 A 
ATOM     21  O   UNL d   1      16.846  15.588  -0.016  0.00  0.00    -0.237 OA
BRANCH  19  22
ATOM     22  O   UNL d   1      15.848  16.489  -0.456  0.00  0.00    -0.257 OA
BRANCH  22  23
ATOM     23  C   UNL d   1      15.208  16.650  -0.963  0.00  0.00     0.128 C 
ATOM     24  C   UNL d   1      14.777  17.259  -1.136  0.00  0.00     0.029 C 
ENDBRANCH  22  23
ENDBRANCH  19  22
ENDBRANCH  13  14
ENDBRANCH   1  13
TORSDOF 4
ENDMDL
