MODEL 1
REMARK VINA RESULT:      -6.0      0.000      0.000
REMARK  6 active torsions:
REMARK  status: ('A' for Active; 'I' for Inactive)
REMARK    1  A    between atoms: C_18  and  N_5 
REMARK    2  A    between atoms: S_11  and  C_6 
REMARK    3  A    between atoms: C_10  and  C_12 
REMARK    4  A    between atoms: C_15  and  S_11 
REMARK    5  A    between atoms: C_12  and  C_15 
REMARK    6  A    between atoms: C_21  and  C_18 
ROOT
ATOM      1  C   UNL d   1     -49.132  12.799  23.199  0.00  0.00     0.081 A 
ATOM      2  C   UNL d   1     -48.762  12.123  23.464  0.00  0.00     0.117 A 
ATOM      3  N   UNL d   1     -47.939  12.080  23.477  0.00  0.00    -0.215 NA
ATOM      4  C   UNL d   1     -48.642  13.452  22.939  0.00  0.00     0.268 A 
ATOM      5  N   UNL d   1     -47.836  13.381  22.962  0.00  0.00    -0.253 N 
ATOM      6  C   UNL d   1     -47.504  12.731  23.217  0.00  0.00     0.182 A 
ATOM      7  S   UNL d   1     -49.358  11.610  23.670  0.00  0.00    -0.068 SA
ATOM      8  C   UNL d   1     -49.911  12.693  23.245  0.00  0.00     0.013 A 
ATOM      9  C   UNL d   1     -50.057  11.920  23.551  0.00  0.00     0.031 A 
ATOM     10  O   UNL d   1     -49.020  14.172  22.656  0.00  0.00    -0.267 OA
ATOM     11  C   UNL d   1     -50.475  13.279  23.016  0.00  0.00     0.001 C 
ATOM     12  C   UNL d   1     -50.810  11.566  23.695  0.00  0.00     0.007 C 
ENDROOT
BRANCH   6  13
ATOM     13  S   UNL d   1     -46.670  12.671  23.237  0.00  0.00    -0.046 SA
BRANCH  13  14
ATOM     14  C   UNL d   1     -46.300  11.914  23.246  0.00  0.00     0.081 C 
BRANCH  14  15
ATOM     15  C   UNL d   1     -45.498  11.831  23.115  0.00  0.00     0.208 C 
ATOM     16  O   UNL d   1     -45.049  12.459  22.799  0.00  0.00    -0.285 OA
BRANCH  15  17
ATOM     17  C   UNL d   1     -45.123  11.161  23.281  0.00  0.00     0.069 A 
ATOM     18  S   UNL d   1     -44.310  11.031  23.074  0.00  0.00    -0.083 SA
ATOM     19  C   UNL d   1     -44.102  10.275  23.331  0.00  0.00     0.035 A 
ATOM     20  C   UNL d   1     -44.741   9.917  23.692  0.00  0.00     0.008 A 
ATOM     21  C   UNL d   1     -45.354  10.420  23.674  0.00  0.00     0.010 A 
ENDBRANCH  15  17
ENDBRANCH  14  15
ENDBRANCH  13  14
ENDBRANCH   6  13
BRANCH   5  22
ATOM     22  C   UNL d   1     -47.351  13.988  22.720  0.00  0.00     0.085 C 
BRANCH  22  23
ATOM     23  C   UNL d   1     -47.513  14.770  22.926  0.00  0.00     0.019 C 
ATOM     24  C   UNL d   1     -47.299  15.406  22.440  0.00  0.00     0.002 C 
ENDBRANCH  22  23
ENDBRANCH   5  22
TORSDOF 6
ENDMDL
MODEL 2
REMARK VINA RESULT:      -5.6      1.558      4.854
REMARK  6 active torsions:
REMARK  status: ('A' for Active; 'I' for Inactive)
REMARK    1  A    between atoms: C_18  and  N_5 
REMARK    2  A    between atoms: S_11  and  C_6 
REMARK    3  A    between atoms: C_10  and  C_12 
REMARK    4  A    between atoms: C_15  and  S_11 
REMARK    5  A    between atoms: C_12  and  C_15 
REMARK    6  A    between atoms: C_21  and  C_18 
ROOT
ATOM      1  C   UNL d   1     -45.954  12.570  22.745  0.00  0.00     0.081 A 
ATOM      2  C   UNL d   1     -46.147  13.288  22.410  0.00  0.00     0.117 A 
ATOM      3  N   UNL d   1     -46.903  13.599  22.505  0.00  0.00    -0.215 NA
ATOM      4  C   UNL d   1     -46.558  12.160  23.193  0.00  0.00     0.268 A 
ATOM      5  N   UNL d   1     -47.293  12.490  23.271  0.00  0.00    -0.253 N 
ATOM      6  C   UNL d   1     -47.456  13.171  22.945  0.00  0.00     0.182 A 
ATOM      7  S   UNL d   1     -45.476  13.540  22.026  0.00  0.00    -0.068 SA
ATOM      8  C   UNL d   1     -45.205  12.405  22.570  0.00  0.00     0.013 A 
ATOM      9  C   UNL d   1     -44.894  13.035  22.103  0.00  0.00     0.031 A 
ATOM     10  O   UNL d   1     -46.368  11.401  23.553  0.00  0.00    -0.267 OA
ATOM     11  C   UNL d   1     -44.811  11.702  22.825  0.00  0.00     0.001 C 
ATOM     12  C   UNL d   1     -44.113  13.096  21.788  0.00  0.00     0.007 C 
ENDROOT
BRANCH   6  13
ATOM     13  S   UNL d   1     -48.219  13.502  23.032  0.00  0.00    -0.046 SA
BRANCH  13  14
ATOM     14  C   UNL d   1     -48.480  14.111  22.512  0.00  0.00     0.081 C 
BRANCH  14  15
ATOM     15  C   UNL d   1     -49.090  14.613  22.716  0.00  0.00     0.208 C 
ATOM     16  O   UNL d   1     -48.994  15.175  23.325  0.00  0.00    -0.285 OA
BRANCH  15  17
ATOM     17  C   UNL d   1     -49.784  14.586  22.349  0.00  0.00     0.069 A 
ATOM     18  S   UNL d   1     -50.430  15.095  22.558  0.00  0.00    -0.083 SA
ATOM     19  C   UNL d   1     -51.064  14.915  22.063  0.00  0.00     0.035 A 
ATOM     20  C   UNL d   1     -50.856  14.316  21.548  0.00  0.00     0.008 A 
ATOM     21  C   UNL d   1     -50.105  14.107  21.698  0.00  0.00     0.010 A 
ENDBRANCH  15  17
ENDBRANCH  14  15
ENDBRANCH  13  14
ENDBRANCH   6  13
BRANCH   5  22
ATOM     22  C   UNL d   1     -47.881  12.118  23.692  0.00  0.00     0.085 C 
BRANCH  22  23
ATOM     23  C   UNL d   1     -48.102  11.342  23.520  0.00  0.00     0.019 C 
ATOM     24  C   UNL d   1     -48.875  11.067  23.639  0.00  0.00     0.002 C 
ENDBRANCH  22  23
ENDBRANCH   5  22
TORSDOF 6
ENDMDL
MODEL 3
REMARK VINA RESULT:      -5.5      1.328      1.535
REMARK  6 active torsions:
REMARK  status: ('A' for Active; 'I' for Inactive)
REMARK    1  A    between atoms: C_18  and  N_5 
REMARK    2  A    between atoms: S_11  and  C_6 
REMARK    3  A    between atoms: C_10  and  C_12 
REMARK    4  A    between atoms: C_15  and  S_11 
REMARK    5  A    between atoms: C_12  and  C_15 
REMARK    6  A    between atoms: C_21  and  C_18 
ROOT
ATOM      1  C   UNL d   1     -49.609  12.941  23.317  0.00  0.00     0.081 A 
ATOM      2  C   UNL d   1     -48.970  12.436  23.279  0.00  0.00     0.117 A 
ATOM      3  N   UNL d   1     -48.217  12.732  23.124  0.00  0.00    -0.215 NA
ATOM      4  C   UNL d   1     -49.469  13.777  23.192  0.00  0.00     0.268 A 
ATOM      5  N   UNL d   1     -48.718  14.040  23.041  0.00  0.00    -0.253 N 
ATOM      6  C   UNL d   1     -48.126  13.544  23.009  0.00  0.00     0.182 A 
ATOM      7  S   UNL d   1     -49.267  11.692  23.418  0.00  0.00    -0.068 SA
ATOM      8  C   UNL d   1     -50.254  12.518  23.472  0.00  0.00     0.013 A 
ATOM      9  C   UNL d   1     -50.032  11.706  23.537  0.00  0.00     0.031 A 
ATOM     10  O   UNL d   1     -50.135  14.322  23.230  0.00  0.00    -0.267 OA
ATOM     11  C   UNL d   1     -51.025  12.856  23.551  0.00  0.00     0.001 C 
ATOM     12  C   UNL d   1     -50.542  11.053  23.698  0.00  0.00     0.007 C 
ENDROOT
BRANCH   6  13
ATOM     13  S   UNL d   1     -47.355  13.828  22.852  0.00  0.00    -0.046 SA
BRANCH  13  14
ATOM     14  C   UNL d   1     -46.706  13.292  22.811  0.00  0.00     0.081 C 
BRANCH  14  15
ATOM     15  C   UNL d   1     -45.938  13.559  22.742  0.00  0.00     0.208 C 
ATOM     16  O   UNL d   1     -45.742  14.349  22.922  0.00  0.00    -0.285 OA
BRANCH  15  17
ATOM     17  C   UNL d   1     -45.358  13.084  22.504  0.00  0.00     0.069 A 
ATOM     18  S   UNL d   1     -44.831  13.289  21.872  0.00  0.00    -0.083 SA
ATOM     19  C   UNL d   1     -44.299  12.667  21.775  0.00  0.00     0.035 A 
ATOM     20  C   UNL d   1     -44.460  12.074  22.314  0.00  0.00     0.008 A 
ATOM     21  C   UNL d   1     -45.080  12.298  22.754  0.00  0.00     0.010 A 
ENDBRANCH  15  17
ENDBRANCH  14  15
ENDBRANCH  13  14
ENDBRANCH   6  13
BRANCH   5  22
ATOM     22  C   UNL d   1     -48.563  14.829  22.920  0.00  0.00     0.085 C 
BRANCH  22  23
ATOM     23  C   UNL d   1     -48.987  15.265  22.363  0.00  0.00     0.019 C 
ATOM     24  C   UNL d   1     -48.662  15.922  21.977  0.00  0.00     0.002 C 
ENDBRANCH  22  23
ENDBRANCH   5  22
TORSDOF 6
ENDMDL
MODEL 4
REMARK VINA RESULT:      -5.5      1.622      2.633
REMARK  6 active torsions:
REMARK  status: ('A' for Active; 'I' for Inactive)
REMARK    1  A    between atoms: C_18  and  N_5 
REMARK    2  A    between atoms: S_11  and  C_6 
REMARK    3  A    between atoms: C_10  and  C_12 
REMARK    4  A    between atoms: C_15  and  S_11 
REMARK    5  A    between atoms: C_12  and  C_15 
REMARK    6  A    between atoms: C_21  and  C_18 
ROOT
ATOM      1  C   UNL d   1     -49.655  13.925  22.693  0.00  0.00     0.081 A 
ATOM      2  C   UNL d   1     -48.993  14.377  22.843  0.00  0.00     0.117 A 
ATOM      3  N   UNL d   1     -48.270  14.014  22.999  0.00  0.00    -0.215 NA
ATOM      4  C   UNL d   1     -49.571  13.072  22.704  0.00  0.00     0.268 A 
ATOM      5  N   UNL d   1     -48.848  12.743  22.861  0.00  0.00    -0.253 N 
ATOM      6  C   UNL d   1     -48.232  13.189  23.000  0.00  0.00     0.182 A 
ATOM      7  S   UNL d   1     -49.238  15.151  22.796  0.00  0.00    -0.068 SA
ATOM      8  C   UNL d   1     -50.263  14.407  22.564  0.00  0.00     0.013 A 
ATOM      9  C   UNL d   1     -49.992  15.203  22.630  0.00  0.00     0.031 A 
ATOM     10  O   UNL d   1     -50.262  12.582  22.548  0.00  0.00    -0.267 OA
ATOM     11  C   UNL d   1     -51.044  14.134  22.389  0.00  0.00     0.001 C 
ATOM     12  C   UNL d   1     -50.453  15.905  22.535  0.00  0.00     0.007 C 
ENDROOT
BRANCH   6  13
ATOM     13  S   UNL d   1     -47.492  12.836  23.160  0.00  0.00    -0.046 SA
BRANCH  13  14
ATOM     14  C   UNL d   1     -46.780  13.214  22.913  0.00  0.00     0.081 C 
BRANCH  14  15
ATOM     15  C   UNL d   1     -46.050  12.869  23.036  0.00  0.00     0.208 C 
ATOM     16  O   UNL d   1     -45.918  12.372  23.692  0.00  0.00    -0.285 OA
BRANCH  15  17
ATOM     17  C   UNL d   1     -45.450  12.992  22.544  0.00  0.00     0.069 A 
ATOM     18  S   UNL d   1     -44.892  12.385  22.345  0.00  0.00    -0.083 SA
ATOM     19  C   UNL d   1     -44.344  12.707  21.820  0.00  0.00     0.035 A 
ATOM     20  C   UNL d   1     -44.524  13.491  21.674  0.00  0.00     0.008 A 
ATOM     21  C   UNL d   1     -45.173  13.681  22.090  0.00  0.00     0.010 A 
ENDBRANCH  15  17
ENDBRANCH  14  15
ENDBRANCH  13  14
ENDBRANCH   6  13
BRANCH   5  22
ATOM     22  C   UNL d   1     -48.746  11.936  22.876  0.00  0.00     0.085 C 
BRANCH  22  23
ATOM     23  C   UNL d   1     -49.239  11.452  23.327  0.00  0.00     0.019 C 
ATOM     24  C   UNL d   1     -48.997  10.710  23.602  0.00  0.00     0.002 C 
ENDBRANCH  22  23
ENDBRANCH   5  22
TORSDOF 6
ENDMDL
MODEL 5
REMARK VINA RESULT:      -4.3      1.658      2.669
REMARK  6 active torsions:
REMARK  status: ('A' for Active; 'I' for Inactive)
REMARK    1  A    between atoms: C_18  and  N_5 
REMARK    2  A    between atoms: S_11  and  C_6 
REMARK    3  A    between atoms: C_10  and  C_12 
REMARK    4  A    between atoms: C_15  and  S_11 
REMARK    5  A    between atoms: C_12  and  C_15 
REMARK    6  A    between atoms: C_21  and  C_18 
ROOT
ATOM      1  C   UNL d   1     -48.312  13.999  22.938  0.00  0.00     0.081 A 
ATOM      2  C   UNL d   1     -47.623  14.276  22.602  0.00  0.00     0.117 A 
ATOM      3  N   UNL d   1     -46.935  13.825  22.636  0.00  0.00    -0.215 NA
ATOM      4  C   UNL d   1     -48.294  13.233  23.321  0.00  0.00     0.268 A 
ATOM      5  N   UNL d   1     -47.603  12.810  23.340  0.00  0.00    -0.253 N 
ATOM      6  C   UNL d   1     -46.960  13.091  23.015  0.00  0.00     0.182 A 
ATOM      7  S   UNL d   1     -47.808  15.002  22.286  0.00  0.00    -0.068 SA
ATOM      8  C   UNL d   1     -48.879  14.534  22.827  0.00  0.00     0.013 A 
ATOM      9  C   UNL d   1     -48.550  15.186  22.403  0.00  0.00     0.031 A 
ATOM     10  O   UNL d   1     -49.014  12.927  23.680  0.00  0.00    -0.267 OA
ATOM     11  C   UNL d   1     -49.672  14.436  23.101  0.00  0.00     0.001 C 
ATOM     12  C   UNL d   1     -48.953  15.887  22.162  0.00  0.00     0.007 C 
ENDROOT
BRANCH   6  13
ATOM     13  S   UNL d   1     -46.253  12.646  23.041  0.00  0.00    -0.046 SA
BRANCH  13  14
ATOM     14  C   UNL d   1     -45.599  12.860  22.555  0.00  0.00     0.081 C 
BRANCH  14  15
ATOM     15  C   UNL d   1     -44.903  12.433  22.565  0.00  0.00     0.208 C 
ATOM     16  O   UNL d   1     -44.782  11.827  23.125  0.00  0.00    -0.285 OA
BRANCH  15  17
ATOM     17  C   UNL d   1     -44.325  12.578  22.052  0.00  0.00     0.069 A 
ATOM     18  S   UNL d   1     -43.619  12.109  22.018  0.00  0.00    -0.083 SA
ATOM     19  C   UNL d   1     -43.140  12.416  21.421  0.00  0.00     0.035 A 
ATOM     20  C   UNL d   1     -43.506  13.058  21.072  0.00  0.00     0.008 A 
ATOM     21  C   UNL d   1     -44.206  13.172  21.428  0.00  0.00     0.010 A 
ENDBRANCH  15  17
ENDBRANCH  14  15
ENDBRANCH  13  14
ENDBRANCH   6  13
BRANCH   5  22
ATOM     22  C   UNL d   1     -47.562  12.082  23.698  0.00  0.00     0.085 C 
BRANCH  22  23
ATOM     23  C   UNL d   1     -47.870  11.409  23.332  0.00  0.00     0.019 C 
ATOM     24  C   UNL d   1     -47.699  10.644  23.600  0.00  0.00     0.002 C 
ENDBRANCH  22  23
ENDBRANCH   5  22
TORSDOF 6
ENDMDL
MODEL 6
REMARK VINA RESULT:      -3.7      8.538     10.151
REMARK  6 active torsions:
REMARK  status: ('A' for Active; 'I' for Inactive)
REMARK    1  A    between atoms: C_18  and  N_5 
REMARK    2  A    between atoms: S_11  and  C_6 
REMARK    3  A    between atoms: C_10  and  C_12 
REMARK    4  A    between atoms: C_15  and  S_11 
REMARK    5  A    between atoms: C_12  and  C_15 
REMARK    6  A    between atoms: C_21  and  C_18 
ROOT
ATOM      1  C   UNL d   1     -39.688  15.017  20.278  0.00  0.00     0.081 A 
ATOM      2  C   UNL d   1     -38.898  14.929  20.097  0.00  0.00     0.117 A 
ATOM      3  N   UNL d   1     -38.623  15.111  19.342  0.00  0.00    -0.215 NA
ATOM      4  C   UNL d   1     -40.213  15.300  19.662  0.00  0.00     0.268 A 
ATOM      5  N   UNL d   1     -39.914  15.471  18.929  0.00  0.00    -0.253 N 
ATOM      6  C   UNL d   1     -39.162  15.381  18.778  0.00  0.00     0.182 A 
ATOM      7  S   UNL d   1     -38.545  14.657  20.777  0.00  0.00    -0.068 SA
ATOM      8  C   UNL d   1     -39.799  14.807  21.028  0.00  0.00     0.013 A 
ATOM      9  C   UNL d   1     -39.056  14.573  21.352  0.00  0.00     0.031 A 
ATOM     10  O   UNL d   1     -41.050  15.398  19.838  0.00  0.00    -0.267 OA
ATOM     11  C   UNL d   1     -40.552  14.826  21.410  0.00  0.00     0.001 C 
ATOM     12  C   UNL d   1     -38.908  14.305  22.139  0.00  0.00     0.007 C 
ENDROOT
BRANCH   6  13
ATOM     13  S   UNL d   1     -38.866  15.561  18.017  0.00  0.00    -0.046 SA
BRANCH  13  14
ATOM     14  C   UNL d   1     -38.685  14.942  17.475  0.00  0.00     0.081 C 
BRANCH  14  15
ATOM     15  C   UNL d   1     -38.268  15.086  16.788  0.00  0.00     0.208 C 
ATOM     16  O   UNL d   1     -37.945  15.839  16.634  0.00  0.00    -0.285 OA
BRANCH  15  17
ATOM     17  C   UNL d   1     -38.157  14.524  16.250  0.00  0.00     0.069 A 
ATOM     18  S   UNL d   1     -38.074  14.694  15.423  0.00  0.00    -0.083 SA
ATOM     19  C   UNL d   1     -37.966  13.979  15.027  0.00  0.00     0.035 A 
ATOM     20  C   UNL d   1     -37.976  13.360  15.560  0.00  0.00     0.008 A 
ATOM     21  C   UNL d   1     -38.087  13.657  16.287  0.00  0.00     0.010 A 
ENDBRANCH  15  17
ENDBRANCH  14  15
ENDBRANCH  13  14
ENDBRANCH   6  13
BRANCH   5  22
ATOM     22  C   UNL d   1     -40.394  15.742  18.330  0.00  0.00     0.085 C 
BRANCH  22  23
ATOM     23  C   UNL d   1     -41.185  15.512  18.281  0.00  0.00     0.019 C 
ATOM     24  C   UNL d   1     -41.685  15.781  17.678  0.00  0.00     0.002 C 
ENDBRANCH  22  23
ENDBRANCH   5  22
TORSDOF 6
ENDMDL
MODEL 7
REMARK VINA RESULT:      -3.6      8.890     10.100
REMARK  6 active torsions:
REMARK  status: ('A' for Active; 'I' for Inactive)
REMARK    1  A    between atoms: C_18  and  N_5 
REMARK    2  A    between atoms: S_11  and  C_6 
REMARK    3  A    between atoms: C_10  and  C_12 
REMARK    4  A    between atoms: C_15  and  S_11 
REMARK    5  A    between atoms: C_12  and  C_15 
REMARK    6  A    between atoms: C_21  and  C_18 
ROOT
ATOM      1  C   UNL d   1     -39.150  14.852  20.516  0.00  0.00     0.081 A 
ATOM      2  C   UNL d   1     -39.590  15.492  20.268  0.00  0.00     0.117 A 
ATOM      3  N   UNL d   1     -39.657  15.661  19.464  0.00  0.00    -0.215 NA
ATOM      4  C   UNL d   1     -38.767  14.370  19.921  0.00  0.00     0.268 A 
ATOM      5  N   UNL d   1     -38.850  14.560  19.138  0.00  0.00    -0.253 N 
ATOM      6  C   UNL d   1     -39.272  15.171  18.922  0.00  0.00     0.182 A 
ATOM      7  S   UNL d   1     -39.882  15.836  20.944  0.00  0.00    -0.068 SA
ATOM      8  C   UNL d   1     -39.179  14.818  21.302  0.00  0.00     0.013 A 
ATOM      9  C   UNL d   1     -39.654  15.458  21.580  0.00  0.00     0.031 A 
ATOM     10  O   UNL d   1     -38.298  13.692  20.169  0.00  0.00    -0.267 OA
ATOM     11  C   UNL d   1     -38.785  14.225  21.758  0.00  0.00     0.001 C 
ATOM     12  C   UNL d   1     -39.838  15.641  22.383  0.00  0.00     0.007 C 
ENDROOT
BRANCH   6  13
ATOM     13  S   UNL d   1     -39.350  15.356  18.111  0.00  0.00    -0.046 SA
BRANCH  13  14
ATOM     14  C   UNL d   1     -40.108  15.532  17.787  0.00  0.00     0.081 C 
BRANCH  14  15
ATOM     15  C   UNL d   1     -40.214  15.638  16.984  0.00  0.00     0.208 C 
ATOM     16  O   UNL d   1     -39.559  15.684  16.470  0.00  0.00    -0.285 OA
BRANCH  15  17
ATOM     17  C   UNL d   1     -40.931  15.700  16.670  0.00  0.00     0.069 A 
ATOM     18  S   UNL d   1     -41.056  15.909  15.857  0.00  0.00    -0.083 SA
ATOM     19  C   UNL d   1     -41.869  15.922  15.721  0.00  0.00     0.035 A 
ATOM     20  C   UNL d   1     -42.270  15.731  16.407  0.00  0.00     0.008 A 
ATOM     21  C   UNL d   1     -41.737  15.596  16.979  0.00  0.00     0.010 A 
ENDBRANCH  15  17
ENDBRANCH  14  15
ENDBRANCH  13  14
ENDBRANCH   6  13
BRANCH   5  22
ATOM     22  C   UNL d   1     -38.495  14.117  18.555  0.00  0.00     0.085 C 
BRANCH  22  23
ATOM     23  C   UNL d   1     -38.367  13.308  18.654  0.00  0.00     0.019 C 
ATOM     24  C   UNL d   1     -38.391  12.778  18.018  0.00  0.00     0.002 C 
ENDBRANCH  22  23
ENDBRANCH   5  22
TORSDOF 6
ENDMDL
MODEL 8
REMARK VINA RESULT:      -3.3      2.976      4.416
REMARK  6 active torsions:
REMARK  status: ('A' for Active; 'I' for Inactive)
REMARK    1  A    between atoms: C_18  and  N_5 
REMARK    2  A    between atoms: S_11  and  C_6 
REMARK    3  A    between atoms: C_10  and  C_12 
REMARK    4  A    between atoms: C_15  and  S_11 
REMARK    5  A    between atoms: C_12  and  C_15 
REMARK    6  A    between atoms: C_21  and  C_18 
ROOT
ATOM      1  C   UNL d   1     -45.792  12.763  22.838  0.00  0.00     0.081 A 
ATOM      2  C   UNL d   1     -45.538  13.361  22.345  0.00  0.00     0.117 A 
ATOM      3  N   UNL d   1     -44.810  13.303  21.965  0.00  0.00    -0.215 NA
ATOM      4  C   UNL d   1     -45.280  12.084  22.944  0.00  0.00     0.268 A 
ATOM      5  N   UNL d   1     -44.568  12.055  22.558  0.00  0.00    -0.253 N 
ATOM      6  C   UNL d   1     -44.346  12.632  22.095  0.00  0.00     0.182 A 
ATOM      7  S   UNL d   1     -46.129  13.919  22.353  0.00  0.00    -0.068 SA
ATOM      8  C   UNL d   1     -46.498  12.957  23.125  0.00  0.00     0.013 A 
ATOM      9  C   UNL d   1     -46.717  13.709  22.809  0.00  0.00     0.031 A 
ATOM     10  O   UNL d   1     -45.535  11.445  23.462  0.00  0.00    -0.267 OA
ATOM     11  C   UNL d   1     -46.935  12.468  23.658  0.00  0.00     0.001 C 
ATOM     12  C   UNL d   1     -47.430  14.135  22.964  0.00  0.00     0.007 C 
ENDROOT
BRANCH   6  13
ATOM     13  S   UNL d   1     -43.610  12.589  21.702  0.00  0.00    -0.046 SA
BRANCH  13  14
ATOM     14  C   UNL d   1     -43.205  13.295  21.482  0.00  0.00     0.081 C 
BRANCH  14  15
ATOM     15  C   UNL d   1     -42.571  13.279  20.968  0.00  0.00     0.208 C 
ATOM     16  O   UNL d   1     -42.487  12.664  20.411  0.00  0.00    -0.285 OA
BRANCH  15  17
ATOM     17  C   UNL d   1     -42.020  13.839  20.979  0.00  0.00     0.069 A 
ATOM     18  S   UNL d   1     -41.190  13.663  20.954  0.00  0.00    -0.083 SA
ATOM     19  C   UNL d   1     -40.779  14.377  20.975  0.00  0.00     0.035 A 
ATOM     20  C   UNL d   1     -41.304  15.001  21.013  0.00  0.00     0.008 A 
ATOM     21  C   UNL d   1     -42.042  14.708  21.017  0.00  0.00     0.010 A 
ENDBRANCH  15  17
ENDBRANCH  14  15
ENDBRANCH  13  14
ENDBRANCH   6  13
BRANCH   5  22
ATOM     22  C   UNL d   1     -44.067  11.420  22.645  0.00  0.00     0.085 C 
BRANCH  22  23
ATOM     23  C   UNL d   1     -44.112  10.928  23.306  0.00  0.00     0.019 C 
ATOM     24  C   UNL d   1     -43.602  10.284  23.411  0.00  0.00     0.002 C 
ENDBRANCH  22  23
ENDBRANCH   5  22
TORSDOF 6
ENDMDL
MODEL 9
REMARK VINA RESULT:      -3.1      1.954      5.155
REMARK  6 active torsions:
REMARK  status: ('A' for Active; 'I' for Inactive)
REMARK    1  A    between atoms: C_18  and  N_5 
REMARK    2  A    between atoms: S_11  and  C_6 
REMARK    3  A    between atoms: C_10  and  C_12 
REMARK    4  A    between atoms: C_15  and  S_11 
REMARK    5  A    between atoms: C_12  and  C_15 
REMARK    6  A    between atoms: C_21  and  C_18 
ROOT
ATOM      1  C   UNL d   1     -44.175  12.318  22.264  0.00  0.00     0.081 A 
ATOM      2  C   UNL d   1     -44.564  12.973  21.975  0.00  0.00     0.117 A 
ATOM      3  N   UNL d   1     -45.341  13.127  22.203  0.00  0.00    -0.215 NA
ATOM      4  C   UNL d   1     -44.596  11.805  22.806  0.00  0.00     0.268 A 
ATOM      5  N   UNL d   1     -45.359  11.981  23.013  0.00  0.00    -0.253 N 
ATOM      6  C   UNL d   1     -45.711  12.607  22.727  0.00  0.00     0.182 A 
ATOM      7  S   UNL d   1     -44.035  13.346  21.484  0.00  0.00    -0.068 SA
ATOM      8  C   UNL d   1     -43.449  12.303  21.961  0.00  0.00     0.013 A 
ATOM      9  C   UNL d   1     -43.358  12.972  21.453  0.00  0.00     0.031 A 
ATOM     10  O   UNL d   1     -44.197  11.109  23.120  0.00  0.00    -0.267 OA
ATOM     11  C   UNL d   1     -42.882  11.701  22.136  0.00  0.00     0.001 C 
ATOM     12  C   UNL d   1     -42.671  13.181  21.009  0.00  0.00     0.007 C 
ENDROOT
BRANCH   6  13
ATOM     13  S   UNL d   1     -46.498  12.778  22.949  0.00  0.00    -0.046 SA
BRANCH  13  14
ATOM     14  C   UNL d   1     -46.821  13.544  22.810  0.00  0.00     0.081 C 
BRANCH  14  15
ATOM     15  C   UNL d   1     -47.570  13.744  23.068  0.00  0.00     0.208 C 
ATOM     16  O   UNL d   1     -47.943  13.310  23.674  0.00  0.00    -0.285 OA
BRANCH  15  17
ATOM     17  C   UNL d   1     -47.964  14.347  22.755  0.00  0.00     0.069 A 
ATOM     18  S   UNL d   1     -48.773  14.285  22.509  0.00  0.00    -0.083 SA
ATOM     19  C   UNL d   1     -49.005  15.017  22.210  0.00  0.00     0.035 A 
ATOM     20  C   UNL d   1     -48.383  15.546  22.252  0.00  0.00     0.008 A 
ATOM     21  C   UNL d   1     -47.759  15.172  22.570  0.00  0.00     0.010 A 
ENDBRANCH  15  17
ENDBRANCH  14  15
ENDBRANCH  13  14
ENDBRANCH   6  13
BRANCH   5  22
ATOM     22  C   UNL d   1     -45.778  11.508  23.525  0.00  0.00     0.085 C 
BRANCH  22  23
ATOM     23  C   UNL d   1     -45.908  10.711  23.359  0.00  0.00     0.019 C 
ATOM     24  C   UNL d   1     -46.551  10.295  23.674  0.00  0.00     0.002 C 
ENDBRANCH  22  23
ENDBRANCH   5  22
TORSDOF 6
ENDMDL
