MODEL 1
REMARK VINA RESULT:      -5.7      0.000      0.000
REMARK  1 active torsions:
REMARK  status: ('A' for Active; 'I' for Inactive)
REMARK    1  A    between atoms: C_7  and  C_1 
ROOT
ATOM      1  C   UNL d   1      57.330  -0.377  31.284  0.00  0.00     0.103 A 
ATOM      2  C   UNL d   1      57.343  -1.119  30.895  0.00  0.00     0.067 A 
ATOM      3  C   UNL d   1      58.417  -0.654  30.045  0.00  0.00     0.062 A 
ATOM      4  C   UNL d   1      57.888  -1.250  30.277  0.00  0.00     0.200 A 
ATOM      5  O   UNL d   1      57.859   0.223  31.054  0.00  0.00    -0.307 OA
ATOM      6  C   UNL d   1      58.398   0.085  30.439  0.00  0.00     0.103 A 
ATOM      7  C   UNL d   1      58.952  -0.787  29.437  0.00  0.00     0.005 A 
ATOM      8  O   UNL d   1      57.900  -1.981  29.894  0.00  0.00    -0.286 OA
ATOM      9  C   UNL d   1      58.926   0.681  30.207  0.00  0.00     0.025 A 
ATOM     10  C   UNL d   1      59.475  -0.192  29.210  0.00  0.00     0.000 A 
ATOM     11  C   UNL d   1      59.462   0.538  29.592  0.00  0.00     0.002 A 
ATOM     12  C   UNL d   1      60.010  -0.329  28.599  0.00  0.00     0.000 C 
ENDROOT
BRANCH   1  13
ATOM     13  C   UNL d   1      56.796  -0.248  31.891  0.00  0.00     0.023 A 
ATOM     14  C   UNL d   1      56.504  -0.885  32.333  0.00  0.00     0.002 A 
ATOM     15  C   UNL d   1      55.966  -0.748  32.942  0.00  0.00     0.000 A 
ATOM     16  C   UNL d   1      55.719   0.020  33.110  0.00  0.00     0.000 A 
ATOM     17  C   UNL d   1      56.009   0.652  32.669  0.00  0.00     0.000 A 
ATOM     18  C   UNL d   1      55.177   0.154  33.724  0.00  0.00     0.000 C 
ATOM     19  C   UNL d   1      56.546   0.516  32.061  0.00  0.00     0.002 A 
ENDBRANCH   1  13
TORSDOF 1
ENDMDL
MODEL 2
REMARK VINA RESULT:      -5.6      1.219      4.460
REMARK  1 active torsions:
REMARK  status: ('A' for Active; 'I' for Inactive)
REMARK    1  A    between atoms: C_7  and  C_1 
ROOT
ATOM      1  C   UNL d   1      57.087   0.185  32.147  0.00  0.00     0.103 A 
ATOM      2  C   UNL d   1      57.568   0.367  32.809  0.00  0.00     0.067 A 
ATOM      3  C   UNL d   1      56.388   0.458  33.640  0.00  0.00     0.062 A 
ATOM      4  C   UNL d   1      57.212   0.502  33.551  0.00  0.00     0.200 A 
ATOM      5  O   UNL d   1      56.261   0.140  32.233  0.00  0.00    -0.307 OA
ATOM      6  C   UNL d   1      55.914   0.275  32.973  0.00  0.00     0.103 A 
ATOM      7  C   UNL d   1      56.040   0.592  34.371  0.00  0.00     0.005 A 
ATOM      8  O   UNL d   1      57.685   0.682  34.203  0.00  0.00    -0.286 OA
ATOM      9  C   UNL d   1      55.090   0.231  33.061  0.00  0.00     0.025 A 
ATOM     10  C   UNL d   1      55.222   0.547  34.455  0.00  0.00     0.000 A 
ATOM     11  C   UNL d   1      54.750   0.368  33.804  0.00  0.00     0.002 A 
ATOM     12  C   UNL d   1      54.878   0.682  35.190  0.00  0.00     0.000 C 
ENDROOT
BRANCH   1  13
ATOM     13  C   UNL d   1      57.437   0.052  31.419  0.00  0.00     0.023 A 
ATOM     14  C   UNL d   1      57.817   0.671  31.019  0.00  0.00     0.002 A 
ATOM     15  C   UNL d   1      58.167   0.530  30.286  0.00  0.00     0.000 A 
ATOM     16  C   UNL d   1      58.138  -0.224  29.952  0.00  0.00     0.000 A 
ATOM     17  C   UNL d   1      57.760  -0.837  30.351  0.00  0.00     0.000 A 
ATOM     18  C   UNL d   1      58.492  -0.361  29.214  0.00  0.00     0.000 C 
ATOM     19  C   UNL d   1      57.411  -0.697  31.083  0.00  0.00     0.002 A 
ENDBRANCH   1  13
TORSDOF 1
ENDMDL
MODEL 3
REMARK VINA RESULT:      -4.7      0.765      3.970
REMARK  1 active torsions:
REMARK  status: ('A' for Active; 'I' for Inactive)
REMARK    1  A    between atoms: C_7  and  C_1 
ROOT
ATOM      1  C   UNL d   1      57.881  -0.176  30.998  0.00  0.00     0.103 A 
ATOM      2  C   UNL d   1      57.555  -0.948  30.970  0.00  0.00     0.067 A 
ATOM      3  C   UNL d   1      56.699  -0.627  32.091  0.00  0.00     0.062 A 
ATOM      4  C   UNL d   1      56.965  -1.166  31.518  0.00  0.00     0.200 A 
ATOM      5  O   UNL d   1      57.616   0.367  31.571  0.00  0.00    -0.307 OA
ATOM      6  C   UNL d   1      57.030   0.143  32.113  0.00  0.00     0.103 A 
ATOM      7  C   UNL d   1      56.119  -0.844  32.629  0.00  0.00     0.005 A 
ATOM      8  O   UNL d   1      56.644  -1.925  31.490  0.00  0.00    -0.286 OA
ATOM      9  C   UNL d   1      56.765   0.682  32.684  0.00  0.00     0.025 A 
ATOM     10  C   UNL d   1      55.858  -0.306  33.195  0.00  0.00     0.000 A 
ATOM     11  C   UNL d   1      56.179   0.453  33.223  0.00  0.00     0.002 A 
ATOM     12  C   UNL d   1      55.276  -0.528  33.733  0.00  0.00     0.000 C 
ENDROOT
BRANCH   1  13
ATOM     13  C   UNL d   1      58.459   0.038  30.460  0.00  0.00     0.023 A 
ATOM     14  C   UNL d   1      59.182   0.348  30.724  0.00  0.00     0.002 A 
ATOM     15  C   UNL d   1      59.760   0.561  30.176  0.00  0.00     0.000 A 
ATOM     16  C   UNL d   1      59.620   0.466  29.369  0.00  0.00     0.000 A 
ATOM     17  C   UNL d   1      58.902   0.158  29.109  0.00  0.00     0.000 A 
ATOM     18  C   UNL d   1      60.204   0.682  28.821  0.00  0.00     0.000 C 
ATOM     19  C   UNL d   1      58.324  -0.055  29.655  0.00  0.00     0.002 A 
ENDBRANCH   1  13
TORSDOF 1
ENDMDL
MODEL 4
REMARK VINA RESULT:      -4.7      1.189      2.271
REMARK  1 active torsions:
REMARK  status: ('A' for Active; 'I' for Inactive)
REMARK    1  A    between atoms: C_7  and  C_1 
ROOT
ATOM      1  C   UNL d   1      56.093  -0.205  33.093  0.00  0.00     0.103 A 
ATOM      2  C   UNL d   1      56.067  -1.001  32.831  0.00  0.00     0.067 A 
ATOM      3  C   UNL d   1      56.950  -0.668  31.735  0.00  0.00     0.062 A 
ATOM      4  C   UNL d   1      56.497  -1.225  32.152  0.00  0.00     0.200 A 
ATOM      5  O   UNL d   1      56.546   0.356  32.676  0.00  0.00    -0.307 OA
ATOM      6  C   UNL d   1      56.971   0.125  32.003  0.00  0.00     0.103 A 
ATOM      7  C   UNL d   1      57.373  -0.892  31.068  0.00  0.00     0.005 A 
ATOM      8  O   UNL d   1      56.472  -2.008  31.895  0.00  0.00    -0.286 OA
ATOM      9  C   UNL d   1      57.424   0.682  31.586  0.00  0.00     0.025 A 
ATOM     10  C   UNL d   1      57.821  -0.336  30.656  0.00  0.00     0.000 A 
ATOM     11  C   UNL d   1      57.846   0.446  30.914  0.00  0.00     0.002 A 
ATOM     12  C   UNL d   1      58.243  -0.565  29.988  0.00  0.00     0.000 C 
ENDROOT
BRANCH   1  13
ATOM     13  C   UNL d   1      55.671   0.015  33.758  0.00  0.00     0.023 A 
ATOM     14  C   UNL d   1      54.850   0.124  33.715  0.00  0.00     0.002 A 
ATOM     15  C   UNL d   1      54.431   0.345  34.389  0.00  0.00     0.000 A 
ATOM     16  C   UNL d   1      54.827   0.458  35.104  0.00  0.00     0.000 A 
ATOM     17  C   UNL d   1      55.643   0.350  35.145  0.00  0.00     0.000 A 
ATOM     18  C   UNL d   1      54.402   0.681  35.780  0.00  0.00     0.000 C 
ATOM     19  C   UNL d   1      56.061   0.129  34.472  0.00  0.00     0.002 A 
ENDBRANCH   1  13
TORSDOF 1
ENDMDL
MODEL 5
REMARK VINA RESULT:      -3.1      1.618      4.878
REMARK  1 active torsions:
REMARK  status: ('A' for Active; 'I' for Inactive)
REMARK    1  A    between atoms: C_7  and  C_1 
ROOT
ATOM      1  C   UNL d   1      56.692   0.376  33.022  0.00  0.00     0.103 A 
ATOM      2  C   UNL d   1      57.100   0.488  33.746  0.00  0.00     0.067 A 
ATOM      3  C   UNL d   1      55.837   0.544  34.448  0.00  0.00     0.062 A 
ATOM      4  C   UNL d   1      56.667   0.571  34.454  0.00  0.00     0.200 A 
ATOM      5  O   UNL d   1      55.861   0.349  33.013  0.00  0.00    -0.307 OA
ATOM      6  C   UNL d   1      55.437   0.432  33.721  0.00  0.00     0.103 A 
ATOM      7  C   UNL d   1      55.414   0.627  35.146  0.00  0.00     0.005 A 
ATOM      8  O   UNL d   1      57.068   0.682  35.166  0.00  0.00    -0.286 OA
ATOM      9  C   UNL d   1      54.608   0.405  33.715  0.00  0.00     0.025 A 
ATOM     10  C   UNL d   1      54.591   0.599  35.136  0.00  0.00     0.000 A 
ATOM     11  C   UNL d   1      54.190   0.489  34.425  0.00  0.00     0.002 A 
ATOM     12  C   UNL d   1      54.170   0.682  35.839  0.00  0.00     0.000 C 
ENDROOT
BRANCH   1  13
ATOM     13  C   UNL d   1      57.118   0.295  32.327  0.00  0.00     0.023 A 
ATOM     14  C   UNL d   1      56.813  -0.157  31.702  0.00  0.00     0.002 A 
ATOM     15  C   UNL d   1      57.247  -0.235  31.006  0.00  0.00     0.000 A 
ATOM     16  C   UNL d   1      57.980   0.135  30.931  0.00  0.00     0.000 A 
ATOM     17  C   UNL d   1      58.280   0.583  31.554  0.00  0.00     0.000 A 
ATOM     18  C   UNL d   1      58.413   0.054  30.228  0.00  0.00     0.000 C 
ATOM     19  C   UNL d   1      57.848   0.661  32.249  0.00  0.00     0.002 A 
ENDBRANCH   1  13
TORSDOF 1
ENDMDL
MODEL 6
REMARK VINA RESULT:      -2.8      9.648     10.062
REMARK  1 active torsions:
REMARK  status: ('A' for Active; 'I' for Inactive)
REMARK    1  A    between atoms: C_7  and  C_1 
ROOT
ATOM      1  C   UNL d   1      58.303  -9.791  31.320  0.00  0.00     0.103 A 
ATOM      2  C   UNL d   1      57.892  -9.807  32.050  0.00  0.00     0.067 A 
ATOM      3  C   UNL d   1      59.152  -9.778  32.760  0.00  0.00     0.062 A 
ATOM      4  C   UNL d   1      58.322  -9.800  32.765  0.00  0.00     0.200 A 
ATOM      5  O   UNL d   1      59.135  -9.769  31.311  0.00  0.00    -0.307 OA
ATOM      6  C   UNL d   1      59.556  -9.763  32.026  0.00  0.00     0.103 A 
ATOM      7  C   UNL d   1      59.572  -9.772  33.465  0.00  0.00     0.005 A 
ATOM      8  O   UNL d   1      57.917  -9.815  33.484  0.00  0.00    -0.286 OA
ATOM      9  C   UNL d   1      60.385  -9.741  32.020  0.00  0.00     0.025 A 
ATOM     10  C   UNL d   1      60.396  -9.750  33.455  0.00  0.00     0.000 A 
ATOM     11  C   UNL d   1      60.800  -9.735  32.737  0.00  0.00     0.002 A 
ATOM     12  C   UNL d   1      60.813  -9.744  34.164  0.00  0.00     0.000 C 
ENDROOT
BRANCH   1  13
ATOM     13  C   UNL d   1      57.881  -9.798  30.619  0.00  0.00     0.023 A 
ATOM     14  C   UNL d   1      58.280  -9.795  29.891  0.00  0.00     0.002 A 
ATOM     15  C   UNL d   1      57.849  -9.802  29.189  0.00  0.00     0.000 A 
ATOM     16  C   UNL d   1      57.024  -9.811  29.210  0.00  0.00     0.000 A 
ATOM     17  C   UNL d   1      56.630  -9.813  29.933  0.00  0.00     0.000 A 
ATOM     18  C   UNL d   1      56.594  -9.817  28.501  0.00  0.00     0.000 C 
ATOM     19  C   UNL d   1      57.060  -9.807  30.635  0.00  0.00     0.002 A 
ENDBRANCH   1  13
TORSDOF 1
ENDMDL
