MODEL 1
REMARK VINA RESULT:      58.7      0.000      0.000
REMARK  4 active torsions:
REMARK  status: ('A' for Active; 'I' for Inactive)
REMARK    1  A    between atoms: C_7  and  C_1 
REMARK    2  A    between atoms: S_4  and  O_12 
REMARK    3  A    between atoms: O_12  and  C_10 
REMARK    4  A    between atoms: C_25  and  C_13 
ROOT
ATOM      1  C   UNL d   1     -54.777-101.396 -40.664  0.00  0.00     0.064 A 
ATOM      2  C   UNL d   1     -54.759-101.394 -39.239  0.00  0.00     0.062 A 
ATOM      3  C   UNL d   1     -54.759-100.984 -39.952  0.00  0.00     0.199 A 
ATOM      4  C   UNL d   1     -54.795-102.229 -40.665  0.00  0.00     0.126 A 
ATOM      5  C   UNL d   1     -54.776-102.219 -39.237  0.00  0.00     0.105 A 
ATOM      6  O   UNL d   1     -54.794-102.643 -39.941  0.00  0.00    -0.305 OA
ATOM      7  C   UNL d   1     -54.741-100.987 -38.527  0.00  0.00     0.007 A 
ATOM      8  C   UNL d   1     -54.758-102.221 -37.816  0.00  0.00     0.115 A 
ATOM      9  C   UNL d   1     -54.776-102.632 -38.529  0.00  0.00     0.050 A 
ATOM     10  C   UNL d   1     -54.741-101.397 -37.815  0.00  0.00     0.024 A 
ATOM     11  O   UNL d   1     -54.742-100.169 -39.951  0.00  0.00    -0.286 OA
ENDROOT
BRANCH   1  12
ATOM     12  C   UNL d   1     -54.778-100.982 -41.377  0.00  0.00     0.007 A 
ATOM     13  C   UNL d   1     -54.841-101.400 -42.088  0.00  0.00     0.027 A 
ATOM     14  C   UNL d   1     -54.842-100.987 -42.800  0.00  0.00     0.123 A 
ATOM     15  O   UNL d   1     -54.906-101.408 -43.521  0.00  0.00    -0.301 OA
ATOM     16  C   UNL d   1     -54.779-100.156 -42.801  0.00  0.00     0.123 A 
ATOM     17  C   UNL d   1     -54.906-100.982 -44.236  0.00  0.00     0.149 A 
ATOM     18  C   UNL d   1     -54.843-100.159 -44.236  0.00  0.00     0.149 A 
ATOM     19  O   UNL d   1     -54.779 -99.742 -43.521  0.00  0.00    -0.301 OA
ATOM     20  C   UNL d   1     -54.716 -99.754 -42.096  0.00  0.00     0.027 A 
ATOM     21  C   UNL d   1     -54.715-100.160 -41.377  0.00  0.00     0.002 A 
ENDBRANCH   1  12
BRANCH  10  22
ATOM     22  C   UNL d   1     -54.723-100.985 -37.102  0.00  0.00     0.002 C 
ATOM     23  C   UNL d   1     -55.083-100.245 -37.037  0.00  0.00     0.000 C 
ENDBRANCH  10  22
BRANCH   8  24
ATOM     24  O   UNL d   1     -54.758-102.635 -37.104  0.00  0.00    -0.230 OA
BRANCH  24  25
ATOM     25  S   UNL d   1     -55.431-102.637 -36.628  0.00  0.00     0.285 S 
ATOM     26  O   UNL d   1     -54.974-102.849 -35.974  0.00  0.00    -0.197 OA
ATOM     27  O   UNL d   1     -55.892-102.425 -37.278  0.00  0.00    -0.197 OA
ATOM     28  C   UNL d   1     -56.107-102.638 -36.155  0.00  0.00     0.172 C 
ENDBRANCH  24  25
ENDBRANCH   8  24
TORSDOF 4
ENDMDL
