MODEL 1
REMARK VINA RESULT:      -1.8      0.000      0.000
REMARK  5 active torsions:
REMARK  status: ('A' for Active; 'I' for Inactive)
REMARK    1  A    between atoms: C_12  and  N_3 
REMARK    2  A    between atoms: C_11  and  C_5 
REMARK    3  A    between atoms: C_10  and  C_8 
REMARK    4  A    between atoms: O_27  and  C_14 
REMARK    5  A    between atoms: O_28  and  C_21 
ROOT
ATOM      1  C   UNL d   1     -47.099  13.984  22.722  0.00  0.00     0.143 A 
ATOM      2  C   UNL d   1     -47.182  13.171  22.846  0.00  0.00     0.172 A 
ATOM      3  N   UNL d   1     -46.437  12.854  23.032  0.00  0.00    -0.242 N 
ATOM      4  C   UNL d   1     -45.894  13.480  23.022  0.00  0.00     0.355 A 
ATOM      5  C   UNL d   1     -47.746  14.439  22.530  0.00  0.00     0.163 A 
ATOM      6  N   UNL d   1     -47.927  12.814  22.775  0.00  0.00    -0.207 NA
ATOM      7  N   UNL d   1     -46.304  14.171  22.831  0.00  0.00    -0.187 NA
ATOM      8  C   UNL d   1     -48.580  13.286  22.579  0.00  0.00     0.166 A 
ATOM      9  N   UNL d   1     -48.490  14.098  22.457  0.00  0.00    -0.220 NA
ATOM     10  O   UNL d   1     -45.084  13.413  23.176  0.00  0.00    -0.244 OA
ENDROOT
BRANCH   8  11
ATOM     11  C   UNL d   1     -49.322  12.941  22.506  0.00  0.00     0.060 A 
ATOM     12  C   UNL d   1     -49.767  13.065  21.827  0.00  0.00     0.097 A 
ATOM     13  C   UNL d   1     -50.516  12.717  21.755  0.00  0.00     0.026 A 
ATOM     14  C   UNL d   1     -50.809  12.251  22.360  0.00  0.00     0.026 A 
ATOM     15  C   UNL d   1     -50.358  12.132  23.035  0.00  0.00     0.094 A 
ATOM     16  C   UNL d   1     -49.619  12.470  23.117  0.00  0.00     0.029 A 
BRANCH  12  17
ATOM     17  O   UNL d   1     -49.464  13.537  21.220  0.00  0.00    -0.328 OA
ATOM     18  C   UNL d   1     -49.685  13.365  20.439  0.00  0.00     0.181 C 
ENDBRANCH  12  17
BRANCH  15  19
ATOM     19  O   UNL d   1     -50.654  11.662  23.646  0.00  0.00    -0.328 OA
ATOM     20  C   UNL d   1     -50.453  10.863  23.688  0.00  0.00     0.181 C 
ENDBRANCH  15  19
ENDBRANCH   8  11
BRANCH   5  21
ATOM     21  C   UNL d   1     -47.664  15.252  22.406  0.00  0.00     0.316 C 
ATOM     22  O   UNL d   1     -47.161  15.538  21.819  0.00  0.00    -0.262 OA
ATOM     23  N   UNL d   1     -48.096  15.781  22.882  0.00  0.00    -0.101 N 
ENDBRANCH   5  21
BRANCH   3  24
ATOM     24  C   UNL d   1     -46.272  12.069  23.195  0.00  0.00     0.070 A 
ATOM     25  C   UNL d   1     -46.850  11.605  23.527  0.00  0.00     0.020 A 
ATOM     26  C   UNL d   1     -46.683  10.808  23.692  0.00  0.00     0.031 A 
ATOM     27  C   UNL d   1     -45.931  10.504  23.516  0.00  0.00     0.140 A 
ATOM     28  C   UNL d   1     -45.353  10.977  23.181  0.00  0.00     0.031 A 
ATOM     29  F   UNL d   1     -45.771   9.709  23.683  0.00  0.00    -0.204 F 
ATOM     30  C   UNL d   1     -45.525  11.766  23.020  0.00  0.00     0.020 A 
ENDBRANCH   3  24
TORSDOF 5
ENDMDL
MODEL 2
REMARK VINA RESULT:      -0.7      1.952      3.640
REMARK  5 active torsions:
REMARK  status: ('A' for Active; 'I' for Inactive)
REMARK    1  A    between atoms: C_12  and  N_3 
REMARK    2  A    between atoms: C_11  and  C_5 
REMARK    3  A    between atoms: C_10  and  C_8 
REMARK    4  A    between atoms: O_27  and  C_14 
REMARK    5  A    between atoms: O_28  and  C_21 
ROOT
ATOM      1  C   UNL d   1     -46.881  13.857  22.765  0.00  0.00     0.143 A 
ATOM      2  C   UNL d   1     -47.706  13.908  22.763  0.00  0.00     0.172 A 
ATOM      3  N   UNL d   1     -47.924  14.683  22.563  0.00  0.00    -0.242 N 
ATOM      4  C   UNL d   1     -47.225  15.112  22.441  0.00  0.00     0.355 A 
ATOM      5  C   UNL d   1     -46.512  13.154  22.944  0.00  0.00     0.163 A 
ATOM      6  N   UNL d   1     -48.163  13.240  22.943  0.00  0.00    -0.207 NA
ATOM      7  N   UNL d   1     -46.588  14.601  22.567  0.00  0.00    -0.187 NA
ATOM      8  C   UNL d   1     -47.778  12.528  23.124  0.00  0.00     0.166 A 
ATOM      9  N   UNL d   1     -46.952  12.485  23.125  0.00  0.00    -0.220 NA
ATOM     10  O   UNL d   1     -47.183  15.911  22.232  0.00  0.00    -0.244 OA
ENDROOT
BRANCH   8  11
ATOM     11  C   UNL d   1     -48.222  11.860  23.305  0.00  0.00     0.060 A 
ATOM     12  C   UNL d   1     -47.854  11.130  23.378  0.00  0.00     0.097 A 
ATOM     13  C   UNL d   1     -48.303  10.458  23.560  0.00  0.00     0.026 A 
ATOM     14  C   UNL d   1     -49.111  10.523  23.666  0.00  0.00     0.026 A 
ATOM     15  C   UNL d   1     -49.471  11.257  23.591  0.00  0.00     0.094 A 
ATOM     16  C   UNL d   1     -49.039  11.927  23.412  0.00  0.00     0.029 A 
BRANCH  12  17
ATOM     17  O   UNL d   1     -47.036  11.071  23.269  0.00  0.00    -0.328 OA
ATOM     18  C   UNL d   1     -46.647  10.401  23.565  0.00  0.00     0.181 C 
ENDBRANCH  12  17
BRANCH  15  19
ATOM     19  O   UNL d   1     -50.288  11.323  23.698  0.00  0.00    -0.328 OA
ATOM     20  C   UNL d   1     -50.726  11.842  23.228  0.00  0.00     0.181 C 
ENDBRANCH  15  19
ENDBRANCH   8  11
BRANCH   5  21
ATOM     21  C   UNL d   1     -45.687  13.103  22.946  0.00  0.00     0.316 C 
ATOM     22  O   UNL d   1     -45.259  13.259  23.634  0.00  0.00    -0.262 OA
ATOM     23  N   UNL d   1     -45.291  12.892  22.246  0.00  0.00    -0.101 N 
ENDBRANCH   5  21
BRANCH   3  24
ATOM     24  C   UNL d   1     -48.687  14.970  22.498  0.00  0.00     0.070 A 
ATOM     25  C   UNL d   1     -49.124  14.785  21.838  0.00  0.00     0.020 A 
ATOM     26  C   UNL d   1     -49.899  15.076  21.772  0.00  0.00     0.031 A 
ATOM     27  C   UNL d   1     -50.211  15.548  22.379  0.00  0.00     0.140 A 
ATOM     28  C   UNL d   1     -49.766  15.731  23.041  0.00  0.00     0.031 A 
ATOM     29  F   UNL d   1     -50.984  15.835  22.306  0.00  0.00    -0.204 F 
ATOM     30  C   UNL d   1     -48.998  15.440  23.101  0.00  0.00     0.020 A 
ENDBRANCH   3  24
TORSDOF 5
ENDMDL
MODEL 3
REMARK VINA RESULT:       0.2      2.247      4.696
REMARK  5 active torsions:
REMARK  status: ('A' for Active; 'I' for Inactive)
REMARK    1  A    between atoms: C_12  and  N_3 
REMARK    2  A    between atoms: C_11  and  C_5 
REMARK    3  A    between atoms: C_10  and  C_8 
REMARK    4  A    between atoms: O_27  and  C_14 
REMARK    5  A    between atoms: O_28  and  C_21 
ROOT
ATOM      1  C   UNL d   1     -49.049  12.661  21.187  0.00  0.00     0.143 A 
ATOM      2  C   UNL d   1     -49.116  13.234  21.780  0.00  0.00     0.172 A 
ATOM      3  N   UNL d   1     -49.876  13.566  21.745  0.00  0.00    -0.242 N 
ATOM      4  C   UNL d   1     -50.279  13.193  21.124  0.00  0.00     0.355 A 
ATOM      5  C   UNL d   1     -48.357  12.243  21.094  0.00  0.00     0.163 A 
ATOM      6  N   UNL d   1     -48.474  13.385  22.283  0.00  0.00    -0.207 NA
ATOM      7  N   UNL d   1     -49.768  12.639  20.785  0.00  0.00    -0.187 NA
ATOM      8  C   UNL d   1     -47.773  12.955  22.180  0.00  0.00     0.166 A 
ATOM      9  N   UNL d   1     -47.715  12.384  21.585  0.00  0.00    -0.220 NA
ATOM     10  O   UNL d   1     -51.056  13.354  20.892  0.00  0.00    -0.244 OA
ENDROOT
BRANCH   8  11
ATOM     11  C   UNL d   1     -47.132  13.098  22.674  0.00  0.00     0.060 A 
ATOM     12  C   UNL d   1     -46.854  12.504  23.168  0.00  0.00     0.097 A 
ATOM     13  C   UNL d   1     -46.208  12.649  23.666  0.00  0.00     0.026 A 
ATOM     14  C   UNL d   1     -45.849  13.384  23.664  0.00  0.00     0.026 A 
ATOM     15  C   UNL d   1     -46.133  13.973  23.167  0.00  0.00     0.094 A 
ATOM     16  C   UNL d   1     -46.770  13.840  22.672  0.00  0.00     0.029 A 
BRANCH  12  17
ATOM     17  O   UNL d   1     -47.222  11.763  23.165  0.00  0.00    -0.328 OA
ATOM     18  C   UNL d   1     -46.782  11.103  23.406  0.00  0.00     0.181 C 
ENDBRANCH  12  17
BRANCH  15  19
ATOM     19  O   UNL d   1     -45.771  14.715  23.165  0.00  0.00    -0.328 OA
ATOM     20  C   UNL d   1     -45.221  14.905  22.580  0.00  0.00     0.181 C 
ENDBRANCH  15  19
ENDBRANCH   8  11
BRANCH   5  21
ATOM     21  C   UNL d   1     -48.291  11.671  20.502  0.00  0.00     0.316 C 
ATOM     22  O   UNL d   1     -48.734  10.976  20.538  0.00  0.00    -0.262 OA
ATOM     23  N   UNL d   1     -47.771  11.803  19.866  0.00  0.00    -0.101 N 
ENDBRANCH   5  21
BRANCH   3  24
ATOM     24  C   UNL d   1     -50.170  14.153  22.233  0.00  0.00     0.070 A 
ATOM     25  C   UNL d   1     -50.497  13.946  22.947  0.00  0.00     0.020 A 
ATOM     26  C   UNL d   1     -50.796  14.540  23.443  0.00  0.00     0.031 A 
ATOM     27  C   UNL d   1     -50.756  15.333  23.199  0.00  0.00     0.140 A 
ATOM     28  C   UNL d   1     -50.426  15.536  22.477  0.00  0.00     0.031 A 
ATOM     29  F   UNL d   1     -51.057  15.921  23.698  0.00  0.00    -0.204 F 
ATOM     30  C   UNL d   1     -50.131  14.941  21.991  0.00  0.00     0.020 A 
ENDBRANCH   3  24
TORSDOF 5
ENDMDL
MODEL 4
REMARK VINA RESULT:       1.1      1.579      3.169
REMARK  5 active torsions:
REMARK  status: ('A' for Active; 'I' for Inactive)
REMARK    1  A    between atoms: C_12  and  N_3 
REMARK    2  A    between atoms: C_11  and  C_5 
REMARK    3  A    between atoms: C_10  and  C_8 
REMARK    4  A    between atoms: O_27  and  C_14 
REMARK    5  A    between atoms: O_28  and  C_21 
ROOT
ATOM      1  C   UNL d   1     -48.726  11.813  22.938  0.00  0.00     0.143 A 
ATOM      2  C   UNL d   1     -48.014  12.234  22.913  0.00  0.00     0.172 A 
ATOM      3  N   UNL d   1     -47.385  11.692  22.926  0.00  0.00    -0.242 N 
ATOM      4  C   UNL d   1     -47.715  10.932  22.961  0.00  0.00     0.355 A 
ATOM      5  C   UNL d   1     -49.438  12.208  22.932  0.00  0.00     0.163 A 
ATOM      6  N   UNL d   1     -48.023  13.062  22.880  0.00  0.00    -0.207 NA
ATOM      7  N   UNL d   1     -48.537  11.011  22.968  0.00  0.00    -0.187 NA
ATOM      8  C   UNL d   1     -48.753  13.455  22.873  0.00  0.00     0.166 A 
ATOM      9  N   UNL d   1     -49.461  13.028  22.899  0.00  0.00    -0.220 NA
ATOM     10  O   UNL d   1     -47.287  10.225  22.983  0.00  0.00    -0.244 OA
ENDROOT
BRANCH   8  11
ATOM     11  C   UNL d   1     -48.772  14.276  22.841  0.00  0.00     0.060 A 
ATOM     12  C   UNL d   1     -49.429  14.682  23.119  0.00  0.00     0.097 A 
ATOM     13  C   UNL d   1     -49.448  15.510  23.086  0.00  0.00     0.026 A 
ATOM     14  C   UNL d   1     -48.811  15.920  22.776  0.00  0.00     0.026 A 
ATOM     15  C   UNL d   1     -48.158  15.506  22.501  0.00  0.00     0.094 A 
ATOM     16  C   UNL d   1     -48.129  14.690  22.528  0.00  0.00     0.029 A 
BRANCH  12  17
ATOM     17  O   UNL d   1     -50.069  14.261  23.430  0.00  0.00    -0.328 OA
ATOM     18  C   UNL d   1     -50.732  14.686  23.691  0.00  0.00     0.181 C 
ENDBRANCH  12  17
BRANCH  15  19
ATOM     19  O   UNL d   1     -47.515  15.920  22.188  0.00  0.00    -0.328 OA
ATOM     20  C   UNL d   1     -47.001  15.549  21.660  0.00  0.00     0.181 C 
ENDBRANCH  15  19
ENDBRANCH   8  11
BRANCH   5  21
ATOM     21  C   UNL d   1     -50.148  11.788  22.957  0.00  0.00     0.316 C 
ATOM     22  O   UNL d   1     -50.584  11.657  22.269  0.00  0.00    -0.262 OA
ATOM     23  N   UNL d   1     -50.422  11.497  23.687  0.00  0.00    -0.101 N 
ENDBRANCH   5  21
BRANCH   3  24
ATOM     24  C   UNL d   1     -46.588  11.876  22.909  0.00  0.00     0.070 A 
ATOM     25  C   UNL d   1     -46.080  11.480  23.404  0.00  0.00     0.020 A 
ATOM     26  C   UNL d   1     -45.271  11.665  23.387  0.00  0.00     0.031 A 
ATOM     27  C   UNL d   1     -44.998  12.250  22.865  0.00  0.00     0.140 A 
ATOM     28  C   UNL d   1     -45.515  12.646  22.368  0.00  0.00     0.031 A 
ATOM     29  F   UNL d   1     -44.190  12.431  22.853  0.00  0.00    -0.204 F 
ATOM     30  C   UNL d   1     -46.315  12.457  22.390  0.00  0.00     0.020 A 
ENDBRANCH   3  24
TORSDOF 5
ENDMDL
