MODEL 1
REMARK VINA RESULT:      56.3      0.000      0.000
REMARK  11 active torsions:
REMARK  status: ('A' for Active; 'I' for Inactive)
REMARK    1  A    between atoms: C_8  and  C_1 
REMARK    2  A    between atoms: C_6  and  N_7 
REMARK    3  A    between atoms: N_19  and  C_6 
REMARK    4  A    between atoms: N_7  and  C_14 
REMARK    5  A    between atoms: C_11  and  N_7 
REMARK    6  A    between atoms: C_14  and  C_8 
REMARK    7  A    between atoms: C_9  and  C_11 
REMARK    8  A    between atoms: C_25  and  N_19 
REMARK    9  A    between atoms: O_23  and  C_20 
REMARK   10  A    between atoms: O_24  and  C_26 
REMARK   11  A    between atoms: C_26  and  C_25 
ROOT
ATOM      1  N   UNL d   1     -55.208-100.701 -43.651  0.00  0.00    -0.279 N 
ENDROOT
BRANCH   1   2
ATOM      2  C   UNL d   1     -55.065-100.355 -42.918  0.00  0.00     0.206 C 
ATOM      3  S   UNL d   1     -54.812 -99.567 -42.877  0.00  0.00    -0.038 SA
BRANCH   2   4
ATOM      4  N   UNL d   1     -55.173-100.791 -42.224  0.00  0.00    -0.215 NA
BRANCH   4   5
ATOM      5  C   UNL d   1     -54.790-100.553 -41.532  0.00  0.00     0.128 C 
BRANCH   5   6
ATOM      6  C   UNL d   1     -54.737-101.065 -40.892  0.00  0.00     0.137 C 
BRANCH   6   7
ATOM      7  O   UNL d   1     -54.908-101.864 -40.993  0.00  0.00    -0.325 OA
ATOM      8  C   UNL d   1     -54.993-102.348 -40.339  0.00  0.00     0.182 C 
ENDBRANCH   6   7
ENDBRANCH   5   6
ENDBRANCH   4   5
ENDBRANCH   2   4
ENDBRANCH   1   2
BRANCH   1   9
ATOM      9  C   UNL d   1     -55.669-100.299 -44.220  0.00  0.00     0.082 C 
BRANCH   9  10
ATOM     10  C   UNL d   1     -56.122 -99.641 -44.000  0.00  0.00     0.021 C 
BRANCH  10  11
ATOM     11  C   UNL d   1     -56.701 -99.349 -44.503  0.00  0.00     0.021 A 
ATOM     12  C   UNL d   1     -56.591 -99.105 -45.297  0.00  0.00     0.082 A 
ATOM     13  N   UNL d   1     -57.320 -98.853 -45.586  0.00  0.00    -0.246 NA
ATOM     14  C   UNL d   1     -55.873 -99.119 -45.708  0.00  0.00     0.021 C 
ATOM     15  C   UNL d   1     -57.884 -98.935 -44.989  0.00  0.00     0.082 A 
ATOM     16  C   UNL d   1     -57.497 -99.241 -44.322  0.00  0.00     0.021 A 
ATOM     17  C   UNL d   1     -58.691 -98.773 -44.962  0.00  0.00     0.021 A 
ATOM     18  C   UNL d   1     -57.929 -99.381 -43.636  0.00  0.00     0.026 A 
ATOM     19  C   UNL d   1     -58.739 -99.219 -43.607  0.00  0.00     0.094 A 
ATOM     20  C   UNL d   1     -59.113 -98.914 -44.278  0.00  0.00     0.026 A 
BRANCH  19  21
ATOM     21  O   UNL d   1     -59.169 -99.360 -42.917  0.00  0.00    -0.328 OA
ATOM     22  C   UNL d   1     -59.927 -99.694 -42.969  0.00  0.00     0.181 C 
ENDBRANCH  19  21
ENDBRANCH  10  11
ENDBRANCH   9  10
ENDBRANCH   1   9
BRANCH   1  23
ATOM     23  C   UNL d   1     -54.898-101.442 -43.821  0.00  0.00     0.107 C 
BRANCH  23  24
ATOM     24  C   UNL d   1     -54.995-101.769 -44.581  0.00  0.00     0.118 A 
ATOM     25  O   UNL d   1     -55.161-101.348 -45.276  0.00  0.00    -0.304 OA
ATOM     26  C   UNL d   1     -55.211-101.891 -45.898  0.00  0.00     0.123 A 
ATOM     27  C   UNL d   1     -55.076-102.635 -45.589  0.00  0.00     0.029 A 
ATOM     28  C   UNL d   1     -54.943-102.552 -44.772  0.00  0.00     0.028 A 
ENDBRANCH  23  24
ENDBRANCH   1  23
TORSDOF 11
ENDMDL
