MODEL 1
REMARK VINA RESULT:      25.8      0.000      0.000
REMARK  4 active torsions:
REMARK  status: ('A' for Active; 'I' for Inactive)
REMARK    1  A    between atoms: C_9  and  C_3 
REMARK    2  A    between atoms: C_11  and  C_8 
REMARK    3  A    between atoms: N_10  and  C_11 
REMARK    4  A    between atoms: C_18  and  N_10 
ROOT
ATOM      1  N   UNL d   1      14.651  13.087  -1.082  0.00  0.00    -0.267 N 
ATOM      2  C   UNL d   1      14.793  12.349  -0.742  0.00  0.00     0.201 A 
ATOM      3  C   UNL d   1      15.045  13.656  -0.627  0.00  0.00     0.171 A 
ATOM      4  N   UNL d   1      15.424  13.266  -0.015  0.00  0.00    -0.128 NA
ATOM      5  N   UNL d   1      15.269  12.460  -0.085  0.00  0.00    -0.121 NA
ATOM      6  S   UNL d   1      14.399  11.780  -1.196  0.00  0.00    -0.045 SA
ATOM      7  C   UNL d   1      14.170  12.978  -1.745  0.00  0.00     0.091 A 
ATOM      8  C   UNL d   1      14.015  12.171  -1.815  0.00  0.00     0.069 A 
ENDROOT
BRANCH   3   9
ATOM      9  C   UNL d   1      15.049  14.473  -0.774  0.00  0.00     0.036 A 
ATOM     10  C   UNL d   1      15.040  14.998  -0.139  0.00  0.00     0.004 A 
ATOM     11  C   UNL d   1      15.044  15.813  -0.277  0.00  0.00     0.007 A 
ATOM     12  C   UNL d   1      15.056  16.094  -1.052  0.00  0.00     0.035 A 
ATOM     13  C   UNL d   1      15.065  15.576  -1.686  0.00  0.00     0.007 A 
ATOM     14 BR   UNL d   1      15.060  16.902  -1.200  0.00  0.00    -0.049 Br
ATOM     15  C   UNL d   1      15.061  14.760  -1.540  0.00  0.00     0.004 A 
ENDBRANCH   3   9
BRANCH   8  16
ATOM     16  C   UNL d   1      13.559  11.812  -2.397  0.00  0.00     0.107 C 
BRANCH  16  17
ATOM     17  N   UNL d   1      13.034  12.269  -2.847  0.00  0.00    -0.243 NA
BRANCH  17  18
ATOM     18  C   UNL d   1      13.110  12.297  -3.672  0.00  0.00     0.081 A 
ATOM     19  C   UNL d   1      12.959  13.044  -3.983  0.00  0.00     0.019 A 
ATOM     20  C   UNL d   1      13.055  12.987  -4.806  0.00  0.00     0.002 A 
ATOM     21  C   UNL d   1      13.263  12.206  -4.989  0.00  0.00     0.002 A 
ATOM     22  C   UNL d   1      13.297  11.779  -4.288  0.00  0.00     0.019 A 
ENDBRANCH  17  18
ENDBRANCH  16  17
ENDBRANCH   8  16
TORSDOF 4
ENDMDL
MODEL 2
REMARK VINA RESULT:      27.3      1.741      4.056
REMARK  4 active torsions:
REMARK  status: ('A' for Active; 'I' for Inactive)
REMARK    1  A    between atoms: C_9  and  C_3 
REMARK    2  A    between atoms: C_11  and  C_8 
REMARK    3  A    between atoms: N_10  and  C_11 
REMARK    4  A    between atoms: C_18  and  N_10 
ROOT
ATOM      1  N   UNL d   1      14.684  13.066  -1.028  0.00  0.00    -0.267 N 
ATOM      2  C   UNL d   1      15.016  12.954  -0.282  0.00  0.00     0.201 A 
ATOM      3  C   UNL d   1      14.401  12.334  -1.293  0.00  0.00     0.171 A 
ATOM      4  N   UNL d   1      14.561  11.780  -0.710  0.00  0.00    -0.128 NA
ATOM      5  N   UNL d   1      14.940  12.162  -0.086  0.00  0.00    -0.121 NA
ATOM      6  S   UNL d   1      15.299  13.686  -0.017  0.00  0.00    -0.045 SA
ATOM      7  C   UNL d   1      14.760  13.864  -1.228  0.00  0.00     0.091 A 
ATOM      8  C   UNL d   1      15.139  14.246  -0.604  0.00  0.00     0.069 A 
ENDROOT
BRANCH   3   9
ATOM      9  C   UNL d   1      14.025  12.195  -2.019  0.00  0.00     0.036 A 
ATOM     10  C   UNL d   1      13.229  11.984  -2.029  0.00  0.00     0.004 A 
ATOM     11  C   UNL d   1      12.847  11.844  -2.748  0.00  0.00     0.007 A 
ATOM     12  C   UNL d   1      13.268  11.919  -3.454  0.00  0.00     0.035 A 
ATOM     13  C   UNL d   1      14.060  12.129  -3.448  0.00  0.00     0.007 A 
ATOM     14 BR   UNL d   1      12.899  11.782  -4.174  0.00  0.00    -0.049 Br
ATOM     15  C   UNL d   1      14.435  12.267  -2.723  0.00  0.00     0.004 A 
ENDBRANCH   3   9
BRANCH   8  16
ATOM     16  C   UNL d   1      15.328  15.045  -0.565  0.00  0.00     0.107 C 
BRANCH  16  17
ATOM     17  N   UNL d   1      14.767  15.611  -0.792  0.00  0.00    -0.243 NA
BRANCH  17  18
ATOM     18  C   UNL d   1      15.014  16.342  -1.095  0.00  0.00     0.081 A 
ATOM     19  C   UNL d   1      14.857  16.426  -1.899  0.00  0.00     0.019 A 
ATOM     20  C   UNL d   1      15.132  17.178  -2.122  0.00  0.00     0.002 A 
ATOM     21  C   UNL d   1      15.452  17.545  -1.451  0.00  0.00     0.002 A 
ATOM     22  C   UNL d   1      15.379  17.028  -0.817  0.00  0.00     0.019 A 
ENDBRANCH  17  18
ENDBRANCH  16  17
ENDBRANCH   8  16
TORSDOF 4
ENDMDL
