MODEL 1
REMARK VINA RESULT:       6.3      0.000      0.000
REMARK  2 active torsions:
REMARK  status: ('A' for Active; 'I' for Inactive)
REMARK    1  A    between atoms: C_5  and  N_2 
REMARK    2  A    between atoms: C_4  and  C_5 
ROOT
ATOM      1  C   UNL d   1      45.894 -14.217  37.094  0.00  0.00     0.206 A 
ATOM      2  N   UNL d   1      45.507 -14.950  37.076  0.00  0.00    -0.279 N 
ATOM      3  N   UNL d   1      46.605 -14.294  36.664  0.00  0.00    -0.215 NA
ATOM      4  C   UNL d   1      46.646 -15.068  36.388  0.00  0.00     0.120 A 
ATOM      5  C   UNL d   1      45.972 -15.474  36.640  0.00  0.00     0.103 A 
ATOM      6  S   UNL d   1      45.624 -13.532  37.471  0.00  0.00    -0.038 SA
ENDROOT
BRANCH   2   7
ATOM      7  C   UNL d   1      44.778 -15.127  37.435  0.00  0.00     0.089 C 
BRANCH   7   8
ATOM      8  C   UNL d   1      44.195 -15.511  37.007  0.00  0.00     0.047 A 
ATOM      9  S   UNL d   1      44.228 -16.284  36.732  0.00  0.00    -0.085 SA
ATOM     10  C   UNL d   1      43.526 -16.449  36.330  0.00  0.00     0.035 A 
ATOM     11  C   UNL d   1      43.057 -15.766  36.361  0.00  0.00     0.007 A 
ATOM     12  C   UNL d   1      43.471 -15.190  36.778  0.00  0.00     0.009 A 
ENDBRANCH   7   8
ENDBRANCH   2   7
TORSDOF 2
ENDMDL
