MODEL 1
REMARK VINA RESULT:      40.2      0.000      0.000
REMARK  7 active torsions:
REMARK  status: ('A' for Active; 'I' for Inactive)
REMARK    1  A    between atoms: C_8  and  C_1 
REMARK    2  A    between atoms: N_7  and  C_2 
REMARK    3  A    between atoms: C_5  and  N_7 
REMARK    4  A    between atoms: N_9  and  C_5 
REMARK    5  A    between atoms: O_14  and  C_8 
REMARK    6  A    between atoms: C_10  and  N_9 
REMARK    7  A    between atoms: C_20  and  O_14 
ROOT
ATOM      1  C   UNL d   1      45.884 -17.080  43.887  0.00  0.00     0.162 A 
ATOM      2  C   UNL d   1      46.147 -17.611  43.324  0.00  0.00     0.108 A 
ATOM      3  N   UNL d   1      45.767 -17.489  44.594  0.00  0.00    -0.239 NA
ATOM      4  C   UNL d   1      46.196 -18.352  43.673  0.00  0.00     0.037 A 
ATOM      5  C   UNL d   1      45.962 -18.281  44.459  0.00  0.00     0.083 A 
ATOM      6  C   UNL d   1      46.424 -19.086  43.377  0.00  0.00     0.003 A 
ATOM      7  C   UNL d   1      45.955 -18.943  44.952  0.00  0.00     0.019 A 
ATOM      8  C   UNL d   1      46.420 -19.750  43.863  0.00  0.00     0.000 A 
ATOM      9  C   UNL d   1      46.183 -19.673  44.655  0.00  0.00     0.002 A 
ENDROOT
BRANCH   2  10
ATOM     10  N   UNL d   1      46.334 -17.435  42.530  0.00  0.00    -0.216 NA
BRANCH  10  11
ATOM     11  C   UNL d   1      46.099 -17.955  41.932  0.00  0.00     0.221 C 
ATOM     12  S   UNL d   1      45.328 -17.932  41.632  0.00  0.00    -0.037 SA
BRANCH  11  13
ATOM     13  N   UNL d   1      46.645 -18.501  41.636  0.00  0.00    -0.217 NA
BRANCH  13  14
ATOM     14  C   UNL d   1      46.601 -18.730  40.845  0.00  0.00     0.084 A 
ATOM     15  C   UNL d   1      46.583 -19.532  40.637  0.00  0.00     0.018 A 
ATOM     16  C   UNL d   1      46.610 -20.121  41.235  0.00  0.00     0.002 C 
ATOM     17  C   UNL d   1      46.539 -19.765  39.851  0.00  0.00     0.002 A 
ATOM     18  C   UNL d   1      46.512 -19.186  39.261  0.00  0.00     0.000 A 
ATOM     19  C   UNL d   1      46.529 -18.382  39.455  0.00  0.00     0.002 A 
ATOM     20  C   UNL d   1      46.574 -18.159  40.254  0.00  0.00     0.019 A 
ENDBRANCH  13  14
ENDBRANCH  11  13
ENDBRANCH  10  11
ENDBRANCH   2  10
BRANCH   1  21
ATOM     21  C   UNL d   1      45.757 -16.272  43.770  0.00  0.00     0.320 C 
ATOM     22  O   UNL d   1      46.170 -15.876  43.175  0.00  0.00    -0.257 OA
BRANCH  21  23
ATOM     23  O   UNL d   1      45.226 -15.857  44.237  0.00  0.00    -0.270 OA
BRANCH  23  24
ATOM     24  C   UNL d   1      45.292 -15.035  44.295  0.00  0.00     0.126 C 
ATOM     25  C   UNL d   1      44.618 -14.579  44.388  0.00  0.00     0.029 C 
ENDBRANCH  23  24
ENDBRANCH  21  23
ENDBRANCH   1  21
TORSDOF 7
ENDMDL
