MODEL 1
REMARK VINA RESULT:      18.1      0.000      0.000
REMARK  3 active torsions:
REMARK  status: ('A' for Active; 'I' for Inactive)
REMARK    1  A    between atoms: S_5  and  C_1 
REMARK    2  A    between atoms: N_3  and  C_2 
REMARK    3  A    between atoms: C_4  and  S_5 
ROOT
ATOM      1  C   UNL d   1      14.237  11.968  -1.880  0.00  0.00     0.140 A 
ATOM      2  C   UNL d   1      14.313  12.122  -1.098  0.00  0.00     0.188 A 
ATOM      3  N   UNL d   1      14.877  11.801  -2.349  0.00  0.00    -0.216 NA
ATOM      4  C   UNL d   1      15.077  12.111  -0.751  0.00  0.00     0.209 A 
ATOM      5  N   UNL d   1      15.711  11.947  -1.209  0.00  0.00    -0.202 NA
ATOM      6  C   UNL d   1      15.641  11.790  -2.001  0.00  0.00     0.201 A 
ATOM      7  N   UNL d   1      15.165  12.230  -0.136  0.00  0.00    -0.125 N 
ENDROOT
BRANCH   1   8
ATOM      8  S   UNL d   1      13.473  11.979  -2.227  0.00  0.00    -0.028 SA
BRANCH   8   9
ATOM      9  C   UNL d   1      13.364  12.333  -2.997  0.00  0.00     0.196 A 
ATOM     10  N   UNL d   1      13.483  11.885  -3.678  0.00  0.00    -0.221 NA
ATOM     11  C   UNL d   1      13.365  12.272  -4.405  0.00  0.00     0.085 A 
ATOM     12  C   UNL d   1      13.494  11.785  -5.115  0.00  0.00     0.021 C 
ATOM     13  C   UNL d   1      13.145  13.047  -4.461  0.00  0.00     0.038 A 
ATOM     14  C   UNL d   1      13.029  13.483  -3.792  0.00  0.00     0.085 A 
ATOM     15  N   UNL d   1      13.142  13.116  -3.021  0.00  0.00    -0.221 NA
ATOM     16  C   UNL d   1      12.804  14.275  -3.849  0.00  0.00     0.021 C 
ENDBRANCH   8   9
ENDBRANCH   1   8
BRANCH   2  17
ATOM     17  N   UNL d   1      13.673  12.289  -0.629  0.00  0.00    -0.108 N 
ATOM     18  O   UNL d   1      13.579  12.999  -0.169  0.00  0.00    -0.532 OA
ATOM     19  O   UNL d   1      13.016  11.779  -0.537  0.00  0.00    -0.532 OA
ENDBRANCH   2  17
TORSDOF 3
ENDMDL
MODEL 2
REMARK VINA RESULT:      20.2      1.720      3.659
REMARK  3 active torsions:
REMARK  status: ('A' for Active; 'I' for Inactive)
REMARK    1  A    between atoms: S_5  and  C_1 
REMARK    2  A    between atoms: N_3  and  C_2 
REMARK    3  A    between atoms: C_4  and  S_5 
ROOT
ATOM      1  C   UNL d   1      13.529  12.798  -3.295  0.00  0.00     0.140 A 
ATOM      2  C   UNL d   1      13.393  12.830  -4.082  0.00  0.00     0.188 A 
ATOM      3  N   UNL d   1      13.487  13.459  -2.825  0.00  0.00    -0.216 NA
ATOM      4  C   UNL d   1      13.201  13.566  -4.436  0.00  0.00     0.209 A 
ATOM      5  N   UNL d   1      13.157  14.219  -3.978  0.00  0.00    -0.202 NA
ATOM      6  C   UNL d   1      13.294  14.195  -3.179  0.00  0.00     0.201 A 
ATOM      7  N   UNL d   1      13.088  13.618  -5.057  0.00  0.00    -0.125 N 
ENDROOT
BRANCH   1   8
ATOM      8  S   UNL d   1      13.722  12.063  -2.941  0.00  0.00    -0.028 SA
BRANCH   8   9
ATOM      9  C   UNL d   1      13.954  12.036  -2.118  0.00  0.00     0.196 A 
ATOM     10  N   UNL d   1      14.746  12.124  -1.910  0.00  0.00    -0.221 NA
ATOM     11  C   UNL d   1      14.923  12.091  -1.097  0.00  0.00     0.085 A 
ATOM     12  C   UNL d   1      15.765  12.185  -0.893  0.00  0.00     0.021 C 
ATOM     13  C   UNL d   1      14.362  11.981  -0.528  0.00  0.00     0.038 A 
ATOM     14  C   UNL d   1      13.587  11.896  -0.735  0.00  0.00     0.085 A 
ATOM     15  N   UNL d   1      13.365  11.924  -1.567  0.00  0.00    -0.221 NA
ATOM     16  C   UNL d   1      13.013  11.783  -0.153  0.00  0.00     0.021 C 
ENDBRANCH   8   9
ENDBRANCH   1   8
BRANCH   2  17
ATOM     17  N   UNL d   1      13.436  12.170  -4.552  0.00  0.00    -0.108 N 
ATOM     18  O   UNL d   1      14.158  11.781  -4.781  0.00  0.00    -0.532 OA
ATOM     19  O   UNL d   1      12.769  11.783  -4.874  0.00  0.00    -0.532 OA
ENDBRANCH   2  17
TORSDOF 3
ENDMDL
