MODEL 1
REMARK VINA RESULT:      -2.5      0.000      0.000
REMARK  7 active torsions:
REMARK  status: ('A' for Active; 'I' for Inactive)
REMARK    1  A    between atoms: N_2  and  S_1 
REMARK    2  A    between atoms: C_5  and  S_1 
REMARK    3  A    between atoms: C_3  and  N_2 
REMARK    4  A    between atoms: C_4  and  C_3 
REMARK    5  A    between atoms: C_13  and  C_3 
REMARK    6  A    between atoms: C_9  and  C_8 
REMARK    7  A    between atoms: O_22  and  C_19 
ROOT
ATOM      1  C   UNL d   1     -41.268-122.918 -50.423  0.00  0.00     0.105 A 
ATOM      2  C   UNL d   1     -41.297-122.800 -52.065  0.00  0.00     0.000 A 
ATOM      3  C   UNL d   1     -41.423-122.192 -50.778  0.00  0.00     0.013 A 
ATOM      4  C   UNL d   1     -41.128-123.585 -50.888  0.00  0.00     0.013 A 
ATOM      5  C   UNL d   1     -41.143-123.526 -51.708  0.00  0.00     0.001 A 
ATOM      6  C   UNL d   1     -41.437-122.133 -51.600  0.00  0.00     0.001 A 
ENDROOT
BRANCH   1   7
ATOM      7  S   UNL d   1     -41.253-122.981 -49.589  0.00  0.00     0.285 S 
ATOM      8  O   UNL d   1     -41.247-122.148 -49.530  0.00  0.00    -0.198 OA
ATOM      9  O   UNL d   1     -41.260-123.812 -49.655  0.00  0.00    -0.198 OA
BRANCH   7  10
ATOM     10  N   UNL d   1     -41.239-123.043 -48.764  0.00  0.00    -0.152 NA
BRANCH  10  11
ATOM     11  C   UNL d   1     -41.930-123.240 -48.346  0.00  0.00     0.158 C 
BRANCH  11  12
ATOM     12  C   UNL d   1     -42.668-123.069 -48.672  0.00  0.00     0.230 C 
ATOM     13  O   UNL d   1     -43.136-123.675 -48.973  0.00  0.00    -0.643 OA
ATOM     14  O   UNL d   1     -42.938-122.291 -48.696  0.00  0.00    -0.643 OA
ENDBRANCH  11  12
BRANCH  11  15
ATOM     15  C   UNL d   1     -41.877-123.605 -47.610  0.00  0.00     0.025 C 
ATOM     16  C   UNL d   1     -41.131-123.789 -47.288  0.00  0.00     0.002 C 
ATOM     17  C   UNL d   1     -42.564-123.787 -47.194  0.00  0.00     0.002 C 
ENDBRANCH  11  15
ENDBRANCH  10  11
ENDBRANCH   7  10
ENDBRANCH   1   7
BRANCH   2  18
ATOM     18  C   UNL d   1     -41.311-122.741 -52.885  0.00  0.00     0.000 A 
ATOM     19  C   UNL d   1     -41.316-122.000 -53.244  0.00  0.00     0.002 A 
ATOM     20  C   UNL d   1     -41.330-121.936 -54.071  0.00  0.00     0.024 A 
ATOM     21  C   UNL d   1     -41.340-122.625 -54.539  0.00  0.00     0.094 A 
ATOM     22  C   UNL d   1     -41.336-123.372 -54.175  0.00  0.00     0.024 A 
ATOM     23  C   UNL d   1     -41.321-123.431 -53.353  0.00  0.00     0.002 A 
BRANCH  21  24
ATOM     24  O   UNL d   1     -41.355-122.568 -55.366  0.00  0.00    -0.328 OA
ATOM     25  C   UNL d   1     -41.873-122.031 -55.739  0.00  0.00     0.181 C 
ENDBRANCH  21  24
ENDBRANCH   2  18
TORSDOF 7
ENDMDL
