MODEL 1
REMARK VINA RESULT:      -7.2      0.000      0.000
REMARK  5 active torsions:
REMARK  status: ('A' for Active; 'I' for Inactive)
REMARK    1  A    between atoms: C_2  and  C_1 
REMARK       I    between atoms: N_3  and  C_1 
REMARK    2  A    between atoms: C_8  and  N_3 
REMARK    3  A    between atoms: C_5  and  C_4 
REMARK    4  A    between atoms: O_15  and  C_12 
REMARK    5  A    between atoms: O_16  and  C_13 
ROOT
ATOM      1  C   UNL d   1     -48.267  12.631  22.763  0.00  0.00     0.279 C 
ATOM      2  N   UNL d   1     -48.706  13.070  23.342  0.00  0.00    -0.208 NA
ATOM      3  O   UNL d   1     -48.624  12.387  22.079  0.00  0.00    -0.265 OA
ENDROOT
BRANCH   1   4
ATOM      4  C   UNL d   1     -47.474  12.466  22.920  0.00  0.00     0.062 A 
ATOM      5  C   UNL d   1     -47.284  11.716  23.227  0.00  0.00     0.029 A 
ATOM      6  C   UNL d   1     -46.496  11.533  23.390  0.00  0.00     0.096 A 
ATOM      7  C   UNL d   1     -45.892  12.115  23.241  0.00  0.00     0.048 A 
ATOM      8  C   UNL d   1     -46.105  12.851  22.937  0.00  0.00     0.096 A 
ATOM      9  C   UNL d   1     -46.888  13.031  22.775  0.00  0.00     0.029 A 
BRANCH   6  10
ATOM     10  O   UNL d   1     -46.332  10.772  23.698  0.00  0.00    -0.328 OA
ATOM     11  C   UNL d   1     -45.565  10.444  23.631  0.00  0.00     0.181 C 
ENDBRANCH   6  10
BRANCH   8  12
ATOM     12  O   UNL d   1     -45.500  13.429  22.790  0.00  0.00    -0.328 OA
ATOM     13  C   UNL d   1     -44.974  13.322  22.164  0.00  0.00     0.181 C 
ENDBRANCH   8  12
ENDBRANCH   1   4
BRANCH   2  14
ATOM     14  C   UNL d   1     -49.499  13.229  23.173  0.00  0.00     0.085 A 
ATOM     15  C   UNL d   1     -49.740  14.015  23.103  0.00  0.00     0.022 A 
ATOM     16  C   UNL d   1     -50.482  14.214  22.943  0.00  0.00     0.041 A 
ATOM     17  C   UNL d   1     -51.064  13.594  22.836  0.00  0.00     0.003 A 
ATOM     18  C   UNL d   1     -50.835  12.805  22.903  0.00  0.00     0.002 A 
ATOM     19  C   UNL d   1     -50.046  12.633  23.072  0.00  0.00     0.019 A 
BRANCH  16  20
ATOM     20  C   UNL d   1     -50.704  15.022  22.877  0.00  0.00     0.196 C 
ATOM     21  O   UNL d   1     -50.837  15.362  22.131  0.00  0.00    -0.287 OA
ATOM     22  C   UNL d   1     -50.787  15.468  23.567  0.00  0.00     0.045 C 
ENDBRANCH  16  20
ENDBRANCH   2  14
TORSDOF 5
ENDMDL
MODEL 2
REMARK VINA RESULT:      -7.0      1.087      4.630
REMARK  5 active torsions:
REMARK  status: ('A' for Active; 'I' for Inactive)
REMARK    1  A    between atoms: C_2  and  C_1 
REMARK       I    between atoms: N_3  and  C_1 
REMARK    2  A    between atoms: C_8  and  N_3 
REMARK    3  A    between atoms: C_5  and  C_4 
REMARK    4  A    between atoms: O_15  and  C_12 
REMARK    5  A    between atoms: O_16  and  C_13 
ROOT
ATOM      1  C   UNL d   1     -48.037  13.548  22.779  0.00  0.00     0.279 C 
ATOM      2  N   UNL d   1     -47.400  13.483  23.336  0.00  0.00    -0.208 NA
ATOM      3  O   UNL d   1     -47.919  13.361  22.000  0.00  0.00    -0.265 OA
ENDROOT
BRANCH   1   4
ATOM      4  C   UNL d   1     -48.771  13.803  23.057  0.00  0.00     0.062 A 
ATOM      5  C   UNL d   1     -49.343  13.227  23.239  0.00  0.00     0.029 A 
ATOM      6  C   UNL d   1     -50.082  13.464  23.518  0.00  0.00     0.096 A 
ATOM      7  C   UNL d   1     -50.246  14.293  23.614  0.00  0.00     0.048 A 
ATOM      8  C   UNL d   1     -49.664  14.846  23.426  0.00  0.00     0.096 A 
ATOM      9  C   UNL d   1     -48.930  14.609  23.149  0.00  0.00     0.029 A 
BRANCH   6  10
ATOM     10  O   UNL d   1     -50.639  12.864  23.695  0.00  0.00    -0.328 OA
ATOM     11  C   UNL d   1     -51.059  12.481  23.080  0.00  0.00     0.181 C 
ENDBRANCH   6  10
BRANCH   8  12
ATOM     12  O   UNL d   1     -49.831  15.673  23.523  0.00  0.00    -0.328 OA
ATOM     13  C   UNL d   1     -50.605  15.922  23.667  0.00  0.00     0.181 C 
ENDBRANCH   8  12
ENDBRANCH   1   4
BRANCH   2  14
ATOM     14  C   UNL d   1     -46.671  13.226  23.045  0.00  0.00     0.085 A 
ATOM     15  C   UNL d   1     -46.376  12.499  23.300  0.00  0.00     0.022 A 
ATOM     16  C   UNL d   1     -45.688  12.214  23.051  0.00  0.00     0.041 A 
ATOM     17  C   UNL d   1     -45.225  12.674  22.494  0.00  0.00     0.003 A 
ATOM     18  C   UNL d   1     -45.510  13.402  22.233  0.00  0.00     0.002 A 
ATOM     19  C   UNL d   1     -46.237  13.670  22.516  0.00  0.00     0.019 A 
BRANCH  16  20
ATOM     20  C   UNL d   1     -45.408  11.470  23.324  0.00  0.00     0.196 C 
ATOM     21  O   UNL d   1     -44.596  11.297  23.312  0.00  0.00    -0.287 OA
ATOM     22  C   UNL d   1     -45.955  10.919  23.603  0.00  0.00     0.045 C 
ENDBRANCH  16  20
ENDBRANCH   2  14
TORSDOF 5
ENDMDL
MODEL 3
REMARK VINA RESULT:      -7.0      1.005      4.790
REMARK  5 active torsions:
REMARK  status: ('A' for Active; 'I' for Inactive)
REMARK    1  A    between atoms: C_2  and  C_1 
REMARK       I    between atoms: N_3  and  C_1 
REMARK    2  A    between atoms: C_8  and  N_3 
REMARK    3  A    between atoms: C_5  and  C_4 
REMARK    4  A    between atoms: O_15  and  C_12 
REMARK    5  A    between atoms: O_16  and  C_13 
ROOT
ATOM      1  C   UNL d   1     -48.166  13.351  22.670  0.00  0.00     0.279 C 
ATOM      2  N   UNL d   1     -47.559  13.330  23.264  0.00  0.00    -0.208 NA
ATOM      3  O   UNL d   1     -47.995  13.146  21.906  0.00  0.00    -0.265 OA
ENDROOT
BRANCH   1   4
ATOM      4  C   UNL d   1     -48.923  13.586  22.897  0.00  0.00     0.062 A 
ATOM      5  C   UNL d   1     -49.114  14.394  22.846  0.00  0.00     0.029 A 
ATOM      6  C   UNL d   1     -49.868  14.647  23.069  0.00  0.00     0.096 A 
ATOM      7  C   UNL d   1     -50.435  14.076  23.347  0.00  0.00     0.048 A 
ATOM      8  C   UNL d   1     -50.223  13.280  23.388  0.00  0.00     0.096 A 
ATOM      9  C   UNL d   1     -49.474  13.031  23.166  0.00  0.00     0.029 A 
BRANCH   6  10
ATOM     10  O   UNL d   1     -50.034  15.465  23.009  0.00  0.00    -0.328 OA
ATOM     11  C   UNL d   1     -50.175  15.921  23.696  0.00  0.00     0.181 C 
ENDBRANCH   6  10
BRANCH   8  12
ATOM     12  O   UNL d   1     -50.791  12.713  23.665  0.00  0.00    -0.328 OA
ATOM     13  C   UNL d   1     -50.623  11.907  23.618  0.00  0.00     0.181 C 
ENDBRANCH   8  12
ENDBRANCH   1   4
BRANCH   2  14
ATOM     14  C   UNL d   1     -46.805  13.093  23.023  0.00  0.00     0.085 A 
ATOM     15  C   UNL d   1     -46.499  12.385  23.316  0.00  0.00     0.022 A 
ATOM     16  C   UNL d   1     -45.788  12.120  23.116  0.00  0.00     0.041 A 
ATOM     17  C   UNL d   1     -45.310  12.582  22.574  0.00  0.00     0.003 A 
ATOM     18  C   UNL d   1     -45.606  13.291  22.275  0.00  0.00     0.002 A 
ATOM     19  C   UNL d   1     -46.357  13.539  22.508  0.00  0.00     0.019 A 
BRANCH  16  20
ATOM     20  C   UNL d   1     -45.497  11.395  23.426  0.00  0.00     0.196 C 
ATOM     21  O   UNL d   1     -44.682  11.280  23.531  0.00  0.00    -0.287 OA
ATOM     22  C   UNL d   1     -46.038  10.804  23.624  0.00  0.00     0.045 C 
ENDBRANCH  16  20
ENDBRANCH   2  14
TORSDOF 5
ENDMDL
MODEL 4
REMARK VINA RESULT:      -6.9      0.435      1.541
REMARK  5 active torsions:
REMARK  status: ('A' for Active; 'I' for Inactive)
REMARK    1  A    between atoms: C_2  and  C_1 
REMARK       I    between atoms: N_3  and  C_1 
REMARK    2  A    between atoms: C_8  and  N_3 
REMARK    3  A    between atoms: C_5  and  C_4 
REMARK    4  A    between atoms: O_15  and  C_12 
REMARK    5  A    between atoms: O_16  and  C_13 
ROOT
ATOM      1  C   UNL d   1     -48.225  12.912  22.675  0.00  0.00     0.279 C 
ATOM      2  N   UNL d   1     -48.631  13.239  23.345  0.00  0.00    -0.208 NA
ATOM      3  O   UNL d   1     -48.624  12.773  21.984  0.00  0.00    -0.265 OA
ENDROOT
BRANCH   1   4
ATOM      4  C   UNL d   1     -47.421  12.743  22.752  0.00  0.00     0.062 A 
ATOM      5  C   UNL d   1     -46.877  13.252  22.381  0.00  0.00     0.029 A 
ATOM      6  C   UNL d   1     -46.069  13.099  22.448  0.00  0.00     0.096 A 
ATOM      7  C   UNL d   1     -45.807  12.423  22.894  0.00  0.00     0.048 A 
ATOM      8  C   UNL d   1     -46.365  11.933  23.252  0.00  0.00     0.096 A 
ATOM      9  C   UNL d   1     -47.167  12.086  23.185  0.00  0.00     0.029 A 
BRANCH   6  10
ATOM     10  O   UNL d   1     -45.543  13.627  22.066  0.00  0.00    -0.328 OA
ATOM     11  C   UNL d   1     -44.732  13.436  21.988  0.00  0.00     0.181 C 
ENDBRANCH   6  10
BRANCH   8  12
ATOM     12  O   UNL d   1     -46.100  11.259  23.696  0.00  0.00    -0.328 OA
ATOM     13  C   UNL d   1     -46.502  10.541  23.632  0.00  0.00     0.181 C 
ENDBRANCH   8  12
ENDBRANCH   1   4
BRANCH   2  14
ATOM     14  C   UNL d   1     -49.436  13.403  23.254  0.00  0.00     0.085 A 
ATOM     15  C   UNL d   1     -49.677  14.191  23.203  0.00  0.00     0.022 A 
ATOM     16  C   UNL d   1     -50.429  14.394  23.117  0.00  0.00     0.041 A 
ATOM     17  C   UNL d   1     -51.024  13.779  23.074  0.00  0.00     0.003 A 
ATOM     18  C   UNL d   1     -50.795  12.989  23.123  0.00  0.00     0.002 A 
ATOM     19  C   UNL d   1     -49.995  12.811  23.214  0.00  0.00     0.019 A 
BRANCH  16  20
ATOM     20  C   UNL d   1     -50.651  15.204  23.067  0.00  0.00     0.196 C 
ATOM     21  O   UNL d   1     -50.458  15.652  22.396  0.00  0.00    -0.287 OA
ATOM     22  C   UNL d   1     -51.064  15.541  23.698  0.00  0.00     0.045 C 
ENDBRANCH  16  20
ENDBRANCH   2  14
TORSDOF 5
ENDMDL
MODEL 5
REMARK VINA RESULT:      -6.1      8.254     10.039
REMARK  5 active torsions:
REMARK  status: ('A' for Active; 'I' for Inactive)
REMARK    1  A    between atoms: C_2  and  C_1 
REMARK       I    between atoms: N_3  and  C_1 
REMARK    2  A    between atoms: C_8  and  N_3 
REMARK    3  A    between atoms: C_5  and  C_4 
REMARK    4  A    between atoms: O_15  and  C_12 
REMARK    5  A    between atoms: O_16  and  C_13 
ROOT
ATOM      1  C   UNL d   1     -40.397  14.466  18.756  0.00  0.00     0.279 C 
ATOM      2  N   UNL d   1     -40.233  15.000  19.395  0.00  0.00    -0.208 NA
ATOM      3  O   UNL d   1     -40.552  13.686  18.906  0.00  0.00    -0.265 OA
ENDROOT
BRANCH   1   4
ATOM      4  C   UNL d   1     -40.391  14.766  17.988  0.00  0.00     0.062 A 
ATOM      5  C   UNL d   1     -41.058  15.191  17.729  0.00  0.00     0.029 A 
ATOM      6  C   UNL d   1     -41.070  15.499  16.963  0.00  0.00     0.096 A 
ATOM      7  C   UNL d   1     -40.400  15.376  16.453  0.00  0.00     0.048 A 
ATOM      8  C   UNL d   1     -39.750  14.952  16.732  0.00  0.00     0.096 A 
ATOM      9  C   UNL d   1     -39.740  14.647  17.492  0.00  0.00     0.029 A 
BRANCH   6  10
ATOM     10  O   UNL d   1     -41.753  15.922  16.728  0.00  0.00    -0.328 OA
ATOM     11  C   UNL d   1     -42.023  15.886  15.936  0.00  0.00     0.181 C 
ENDBRANCH   6  10
BRANCH   8  12
ATOM     12  O   UNL d   1     -39.083  14.832  16.220  0.00  0.00    -0.328 OA
ATOM     13  C   UNL d   1     -38.399  15.279  16.326  0.00  0.00     0.181 C 
ENDBRANCH   8  12
ENDBRANCH   1   4
BRANCH   2  14
ATOM     14  C   UNL d   1     -40.242  14.686  20.160  0.00  0.00     0.085 A 
ATOM     15  C   UNL d   1     -39.538  14.672  20.591  0.00  0.00     0.022 A 
ATOM     16  C   UNL d   1     -39.498  14.384  21.319  0.00  0.00     0.041 A 
ATOM     17  C   UNL d   1     -40.209  14.072  21.683  0.00  0.00     0.003 A 
ATOM     18  C   UNL d   1     -40.917  14.080  21.261  0.00  0.00     0.002 A 
ATOM     19  C   UNL d   1     -40.923  14.391  20.497  0.00  0.00     0.019 A 
BRANCH  16  20
ATOM     20  C   UNL d   1     -38.770  14.380  21.740  0.00  0.00     0.196 C 
ATOM     21  O   UNL d   1     -38.474  15.080  22.074  0.00  0.00    -0.287 OA
ATOM     22  C   UNL d   1     -38.358  13.669  21.812  0.00  0.00     0.045 C 
ENDBRANCH  16  20
ENDBRANCH   2  14
TORSDOF 5
ENDMDL
MODEL 6
REMARK VINA RESULT:      -6.0      9.243     10.239
REMARK  5 active torsions:
REMARK  status: ('A' for Active; 'I' for Inactive)
REMARK    1  A    between atoms: C_2  and  C_1 
REMARK       I    between atoms: N_3  and  C_1 
REMARK    2  A    between atoms: C_8  and  N_3 
REMARK    3  A    between atoms: C_5  and  C_4 
REMARK    4  A    between atoms: O_15  and  C_12 
REMARK    5  A    between atoms: O_16  and  C_13 
ROOT
ATOM      1  C   UNL d   1     -39.521  14.921  19.305  0.00  0.00     0.279 C 
ATOM      2  N   UNL d   1     -39.913  14.492  19.925  0.00  0.00    -0.208 NA
ATOM      3  O   UNL d   1     -38.968  15.483  19.484  0.00  0.00    -0.265 OA
ENDROOT
BRANCH   1   4
ATOM      4  C   UNL d   1     -39.724  14.745  18.525  0.00  0.00     0.062 A 
ATOM      5  C   UNL d   1     -39.200  14.275  18.081  0.00  0.00     0.029 A 
ATOM      6  C   UNL d   1     -39.386  14.090  17.298  0.00  0.00     0.096 A 
ATOM      7  C   UNL d   1     -40.110  14.382  16.961  0.00  0.00     0.048 A 
ATOM      8  C   UNL d   1     -40.614  14.846  17.420  0.00  0.00     0.096 A 
ATOM      9  C   UNL d   1     -40.428  15.029  18.197  0.00  0.00     0.029 A 
BRANCH   6  10
ATOM     10  O   UNL d   1     -38.841  13.616  16.874  0.00  0.00    -0.328 OA
ATOM     11  C   UNL d   1     -38.444  13.923  16.204  0.00  0.00     0.181 C 
ENDBRANCH   6  10
BRANCH   8  12
ATOM     12  O   UNL d   1     -41.336  15.136  17.080  0.00  0.00    -0.328 OA
ATOM     13  C   UNL d   1     -41.380  15.916  16.814  0.00  0.00     0.181 C 
ENDBRANCH   8  12
ENDBRANCH   1   4
BRANCH   2  14
ATOM     14  C   UNL d   1     -39.701  14.678  20.702  0.00  0.00     0.085 A 
ATOM     15  C   UNL d   1     -39.336  14.098  21.163  0.00  0.00     0.022 A 
ATOM     16  C   UNL d   1     -39.118  14.229  21.905  0.00  0.00     0.041 A 
ATOM     17  C   UNL d   1     -39.261  15.000  22.251  0.00  0.00     0.003 A 
ATOM     18  C   UNL d   1     -39.624  15.586  21.800  0.00  0.00     0.002 A 
ATOM     19  C   UNL d   1     -39.841  15.414  21.023  0.00  0.00     0.019 A 
BRANCH  16  20
ATOM     20  C   UNL d   1     -38.748  13.623  22.356  0.00  0.00     0.196 C 
ATOM     21  O   UNL d   1     -39.183  13.190  22.915  0.00  0.00    -0.287 OA
ATOM     22  C   UNL d   1     -37.947  13.469  22.231  0.00  0.00     0.045 C 
ENDBRANCH  16  20
ENDBRANCH   2  14
TORSDOF 5
ENDMDL
MODEL 7
REMARK VINA RESULT:      -5.4      1.366      2.164
REMARK  5 active torsions:
REMARK  status: ('A' for Active; 'I' for Inactive)
REMARK    1  A    between atoms: C_2  and  C_1 
REMARK       I    between atoms: N_3  and  C_1 
REMARK    2  A    between atoms: C_8  and  N_3 
REMARK    3  A    between atoms: C_5  and  C_4 
REMARK    4  A    between atoms: O_15  and  C_12 
REMARK    5  A    between atoms: O_16  and  C_13 
ROOT
ATOM      1  C   UNL d   1     -46.359  13.025  22.941  0.00  0.00     0.279 C 
ATOM      2  N   UNL d   1     -46.865  13.187  22.278  0.00  0.00    -0.208 NA
ATOM      3  O   UNL d   1     -46.563  13.281  23.681  0.00  0.00    -0.265 OA
ENDROOT
BRANCH   1   4
ATOM      4  C   UNL d   1     -45.664  12.604  22.804  0.00  0.00     0.062 A 
ATOM      5  C   UNL d   1     -45.491  11.960  23.303  0.00  0.00     0.029 A 
ATOM      6  C   UNL d   1     -44.800  11.527  23.181  0.00  0.00     0.096 A 
ATOM      7  C   UNL d   1     -44.276  11.747  22.548  0.00  0.00     0.048 A 
ATOM      8  C   UNL d   1     -44.467  12.388  22.066  0.00  0.00     0.096 A 
ATOM      9  C   UNL d   1     -45.155  12.817  22.189  0.00  0.00     0.029 A 
BRANCH   6  10
ATOM     10  O   UNL d   1     -44.650  10.885  23.697  0.00  0.00    -0.328 OA
ATOM     11  C   UNL d   1     -44.624  10.102  23.403  0.00  0.00     0.181 C 
ENDBRANCH   6  10
BRANCH   8  12
ATOM     12  O   UNL d   1     -43.942  12.604  21.435  0.00  0.00    -0.328 OA
ATOM     13  C   UNL d   1     -43.188  12.890  21.608  0.00  0.00     0.181 C 
ENDBRANCH   8  12
ENDBRANCH   1   4
BRANCH   2  14
ATOM     14  C   UNL d   1     -47.559  13.610  22.429  0.00  0.00     0.085 A 
ATOM     15  C   UNL d   1     -48.285  13.241  22.297  0.00  0.00     0.022 A 
ATOM     16  C   UNL d   1     -48.969  13.603  22.426  0.00  0.00     0.041 A 
ATOM     17  C   UNL d   1     -48.964  14.411  22.715  0.00  0.00     0.003 A 
ATOM     18  C   UNL d   1     -48.245  14.789  22.850  0.00  0.00     0.002 A 
ATOM     19  C   UNL d   1     -47.545  14.378  22.704  0.00  0.00     0.019 A 
BRANCH  16  20
ATOM     20  C   UNL d   1     -49.697  13.207  22.284  0.00  0.00     0.196 C 
ATOM     21  O   UNL d   1     -50.207  13.468  21.683  0.00  0.00    -0.287 OA
ATOM     22  C   UNL d   1     -49.892  12.557  22.753  0.00  0.00     0.045 C 
ENDBRANCH  16  20
ENDBRANCH   2  14
TORSDOF 5
ENDMDL
MODEL 8
REMARK VINA RESULT:      -5.1      6.971     10.002
REMARK  5 active torsions:
REMARK  status: ('A' for Active; 'I' for Inactive)
REMARK    1  A    between atoms: C_2  and  C_1 
REMARK       I    between atoms: N_3  and  C_1 
REMARK    2  A    between atoms: C_8  and  N_3 
REMARK    3  A    between atoms: C_5  and  C_4 
REMARK    4  A    between atoms: O_15  and  C_12 
REMARK    5  A    between atoms: O_16  and  C_13 
ROOT
ATOM      1  C   UNL d   1     -40.154  14.864  19.210  0.00  0.00     0.279 C 
ATOM      2  N   UNL d   1     -40.173  14.307  18.570  0.00  0.00    -0.208 NA
ATOM      3  O   UNL d   1     -40.044  15.652  19.062  0.00  0.00    -0.265 OA
ENDROOT
BRANCH   1   4
ATOM      4  C   UNL d   1     -40.251  14.577  19.977  0.00  0.00     0.062 A 
ATOM      5  C   UNL d   1     -41.025  14.431  20.245  0.00  0.00     0.029 A 
ATOM      6  C   UNL d   1     -41.141  14.143  21.010  0.00  0.00     0.096 A 
ATOM      7  C   UNL d   1     -40.467  14.002  21.510  0.00  0.00     0.048 A 
ATOM      8  C   UNL d   1     -39.710  14.154  21.222  0.00  0.00     0.096 A 
ATOM      9  C   UNL d   1     -39.596  14.440  20.463  0.00  0.00     0.029 A 
BRANCH   6  10
ATOM     10  O   UNL d   1     -41.930  14.005  21.255  0.00  0.00    -0.328 OA
ATOM     11  C   UNL d   1     -42.231  13.224  21.296  0.00  0.00     0.181 C 
ENDBRANCH   6  10
BRANCH   8  12
ATOM     12  O   UNL d   1     -39.039  14.012  21.724  0.00  0.00    -0.328 OA
ATOM     13  C   UNL d   1     -38.828  14.569  22.295  0.00  0.00     0.181 C 
ENDBRANCH   8  12
ENDBRANCH   1   4
BRANCH   2  14
ATOM     14  C   UNL d   1     -40.074  14.608  17.806  0.00  0.00     0.085 A 
ATOM     15  C   UNL d   1     -39.389  14.414  17.389  0.00  0.00     0.022 A 
ATOM     16  C   UNL d   1     -39.252  14.677  16.662  0.00  0.00     0.041 A 
ATOM     17  C   UNL d   1     -39.834  15.182  16.286  0.00  0.00     0.003 A 
ATOM     18  C   UNL d   1     -40.522  15.381  16.693  0.00  0.00     0.002 A 
ATOM     19  C   UNL d   1     -40.633  15.088  17.456  0.00  0.00     0.019 A 
BRANCH  16  20
ATOM     20  C   UNL d   1     -38.546  14.467  16.256  0.00  0.00     0.196 C 
ATOM     21  O   UNL d   1     -38.465  13.713  15.917  0.00  0.00    -0.287 OA
ATOM     22  C   UNL d   1     -37.940  15.023  16.203  0.00  0.00     0.045 C 
ENDBRANCH  16  20
ENDBRANCH   2  14
TORSDOF 5
ENDMDL
MODEL 9
REMARK VINA RESULT:      -4.9      1.290      4.439
REMARK  5 active torsions:
REMARK  status: ('A' for Active; 'I' for Inactive)
REMARK    1  A    between atoms: C_2  and  C_1 
REMARK       I    between atoms: N_3  and  C_1 
REMARK    2  A    between atoms: C_8  and  N_3 
REMARK    3  A    between atoms: C_5  and  C_4 
REMARK    4  A    between atoms: O_15  and  C_12 
REMARK    5  A    between atoms: O_16  and  C_13 
ROOT
ATOM      1  C   UNL d   1     -48.300  12.913  23.040  0.00  0.00     0.279 C 
ATOM      2  N   UNL d   1     -47.559  12.815  23.442  0.00  0.00    -0.208 NA
ATOM      3  O   UNL d   1     -48.689  12.271  22.738  0.00  0.00    -0.265 OA
ENDROOT
BRANCH   1   4
ATOM      4  C   UNL d   1     -48.604  13.677  22.968  0.00  0.00     0.062 A 
ATOM      5  C   UNL d   1     -49.366  13.824  23.267  0.00  0.00     0.029 A 
ATOM      6  C   UNL d   1     -49.687  14.582  23.205  0.00  0.00     0.096 A 
ATOM      7  C   UNL d   1     -49.231  15.199  22.836  0.00  0.00     0.048 A 
ATOM      8  C   UNL d   1     -48.478  15.029  22.547  0.00  0.00     0.096 A 
ATOM      9  C   UNL d   1     -48.161  14.276  22.610  0.00  0.00     0.029 A 
BRANCH   6  10
ATOM     10  O   UNL d   1     -50.456  14.703  23.513  0.00  0.00    -0.328 OA
ATOM     11  C   UNL d   1     -50.927  15.338  23.240  0.00  0.00     0.181 C 
ENDBRANCH   6  10
BRANCH   8  12
ATOM     12  O   UNL d   1     -48.026  15.647  22.179  0.00  0.00    -0.328 OA
ATOM     13  C   UNL d   1     -47.202  15.598  22.160  0.00  0.00     0.181 C 
ENDBRANCH   8  12
ENDBRANCH   1   4
BRANCH   2  14
ATOM     14  C   UNL d   1     -47.265  12.045  23.507  0.00  0.00     0.085 A 
ATOM     15  C   UNL d   1     -46.451  11.923  23.442  0.00  0.00     0.022 A 
ATOM     16  C   UNL d   1     -46.128  11.211  23.497  0.00  0.00     0.041 A 
ATOM     17  C   UNL d   1     -46.635  10.532  23.628  0.00  0.00     0.003 A 
ATOM     18  C   UNL d   1     -47.450  10.642  23.694  0.00  0.00     0.002 A 
ATOM     19  C   UNL d   1     -47.756  11.405  23.632  0.00  0.00     0.019 A 
BRANCH  16  20
ATOM     20  C   UNL d   1     -45.296  11.111  23.428  0.00  0.00     0.196 C 
ATOM     21  O   UNL d   1     -44.811  11.754  23.225  0.00  0.00    -0.287 OA
ATOM     22  C   UNL d   1     -44.973  10.364  23.566  0.00  0.00     0.045 C 
ENDBRANCH  16  20
ENDBRANCH   2  14
TORSDOF 5
ENDMDL
