MODEL 1
REMARK VINA RESULT:      74.3      0.000      0.000
REMARK  3 active torsions:
REMARK  status: ('A' for Active; 'I' for Inactive)
REMARK    1  A    between atoms: C_2  and  C_1 
REMARK    2  A    between atoms: C_13  and  C_8 
REMARK    3  A    between atoms: O_23  and  C_20 
ROOT
ATOM      1  C   UNL d   1     -48.813  28.683  34.520  0.00  0.00     0.106 A 
ATOM      2  C   UNL d   1     -48.322  28.277  35.083  0.00  0.00     0.304 A 
ATOM      3  C   UNL d   1     -48.711  29.490  34.397  0.00  0.00     0.011 A 
ATOM      4  C   UNL d   1     -48.147  29.893  34.812  0.00  0.00     0.023 A 
ATOM      5  O   UNL d   1     -47.747  28.693  35.504  0.00  0.00    -0.273 OA
ATOM      6  C   UNL d   1     -47.657  29.488  35.375  0.00  0.00     0.103 A 
ATOM      7  C   UNL d   1     -48.046  30.701  34.689  0.00  0.00     0.002 A 
ATOM      8  O   UNL d   1     -48.432  27.449  35.203  0.00  0.00    -0.259 OA
ATOM      9  C   UNL d   1     -47.082  29.904  35.795  0.00  0.00     0.025 A 
ATOM     10  C   UNL d   1     -47.471  31.123  35.108  0.00  0.00     0.000 A 
ATOM     11  C   UNL d   1     -46.980  30.717  35.671  0.00  0.00     0.002 A 
ATOM     12  C   UNL d   1     -48.535  31.076  34.136  0.00  0.00     0.000 A 
ATOM     13  C   UNL d   1     -47.380  31.911  34.981  0.00  0.00     0.000 A 
ATOM     14  C   UNL d   1     -48.433  31.890  34.013  0.00  0.00     0.000 A 
ATOM     15  C   UNL d   1     -47.858  32.307  34.433  0.00  0.00     0.000 A 
ENDROOT
BRANCH   1  16
ATOM     16  C   UNL d   1     -49.388  28.261  34.101  0.00  0.00     0.210 A 
ATOM     17  O   UNL d   1     -49.506  27.463  34.244  0.00  0.00    -0.268 OA
ATOM     18  C   UNL d   1     -50.103  27.197  33.753  0.00  0.00     0.204 A 
ATOM     19  N   UNL d   1     -50.342  27.835  33.316  0.00  0.00    -0.121 NA
ATOM     20  N   UNL d   1     -49.905  28.488  33.528  0.00  0.00    -0.121 NA
BRANCH  18  21
ATOM     21  C   UNL d   1     -50.466  26.459  33.640  0.00  0.00     0.043 A 
ATOM     22  C   UNL d   1     -51.284  26.408  33.598  0.00  0.00     0.006 A 
ATOM     23  C   UNL d   1     -51.654  25.702  33.489  0.00  0.00     0.024 A 
ATOM     24  C   UNL d   1     -51.179  25.005  33.418  0.00  0.00     0.094 A 
ATOM     25  C   UNL d   1     -50.360  25.060  33.461  0.00  0.00     0.024 A 
ATOM     26  C   UNL d   1     -50.008  25.793  33.573  0.00  0.00     0.006 A 
BRANCH  24  27
ATOM     27  O   UNL d   1     -51.520  24.262  33.306  0.00  0.00    -0.328 OA
ATOM     28  C   UNL d   1     -52.328  24.165  33.359  0.00  0.00     0.181 C 
ENDBRANCH  24  27
ENDBRANCH  18  21
ENDBRANCH   1  16
TORSDOF 3
ENDMDL
