MODEL 1
REMARK VINA RESULT:      -7.6      0.000      0.000
REMARK  2 active torsions:
REMARK  status: ('A' for Active; 'I' for Inactive)
REMARK    1  A    between atoms: N_9  and  C_3 
REMARK    2  A    between atoms: C_13  and  C_5 
ROOT
ATOM      1  N   UNL d   1     -40.213  15.054  19.006  0.00  0.00    -0.196 N 
ATOM      2  C   UNL d   1     -39.796  14.719  19.657  0.00  0.00     0.167 A 
ATOM      3  C   UNL d   1     -40.064  14.778  18.236  0.00  0.00     0.153 A 
ATOM      4  N   UNL d   1     -40.910  15.921  19.898  0.00  0.00    -0.163 NA
ATOM      5  C   UNL d   1     -39.941  14.987  20.408  0.00  0.00     0.055 A 
ATOM      6  N   UNL d   1     -39.244  14.120  19.516  0.00  0.00    -0.227 NA
ATOM      7  C   UNL d   1     -39.516  14.187  18.113  0.00  0.00     0.052 A 
ATOM      8  C   UNL d   1     -40.499  15.591  20.539  0.00  0.00     0.104 A 
ATOM      9  C   UNL d   1     -39.095  13.847  18.759  0.00  0.00     0.086 A 
ATOM     10  C   UNL d   1     -39.256  13.811  17.439  0.00  0.00     0.005 A 
ATOM     11  C   UNL d   1     -40.641  15.857  21.304  0.00  0.00     0.023 C 
ATOM     12  C   UNL d   1     -38.586  13.270  18.467  0.00  0.00     0.019 A 
ATOM     13  C   UNL d   1     -38.690  13.250  17.638  0.00  0.00     0.002 A 
ENDROOT
BRANCH   5  14
ATOM     14  C   UNL d   1     -39.533  14.659  21.046  0.00  0.00     0.004 A 
ATOM     15  C   UNL d   1     -38.815  14.977  21.287  0.00  0.00     0.000 A 
ATOM     16  C   UNL d   1     -38.402  14.646  21.931  0.00  0.00     0.000 A 
ATOM     17  C   UNL d   1     -38.716  14.003  22.321  0.00  0.00     0.000 A 
ATOM     18  C   UNL d   1     -39.439  13.679  22.081  0.00  0.00     0.000 A 
ATOM     19  C   UNL d   1     -39.843  14.008  21.446  0.00  0.00     0.000 A 
ENDBRANCH   5  14
BRANCH   3  20
ATOM     20  N   UNL d   1     -40.483  15.114  17.576  0.00  0.00    -0.271 N 
ATOM     21  C   UNL d   1     -41.226  14.841  17.272  0.00  0.00     0.184 A 
ATOM     22  N   UNL d   1     -41.428  15.341  16.617  0.00  0.00    -0.222 NA
ATOM     23  C   UNL d   1     -40.813  15.922  16.516  0.00  0.00     0.120 A 
ATOM     24  C   UNL d   1     -40.227  15.772  17.120  0.00  0.00     0.104 A 
ENDBRANCH   3  20
TORSDOF 2
ENDMDL
MODEL 2
REMARK VINA RESULT:      -7.5      1.225      2.507
REMARK  2 active torsions:
REMARK  status: ('A' for Active; 'I' for Inactive)
REMARK    1  A    between atoms: N_9  and  C_3 
REMARK    2  A    between atoms: C_13  and  C_5 
ROOT
ATOM      1  N   UNL d   1     -39.319  14.768  18.051  0.00  0.00    -0.196 N 
ATOM      2  C   UNL d   1     -39.868  14.968  18.658  0.00  0.00     0.167 A 
ATOM      3  C   UNL d   1     -39.495  14.953  17.260  0.00  0.00     0.153 A 
ATOM      4  N   UNL d   1     -38.442  14.210  19.027  0.00  0.00    -0.163 NA
ATOM      5  C   UNL d   1     -39.697  14.788  19.430  0.00  0.00     0.055 A 
ATOM      6  N   UNL d   1     -40.574  15.345  18.453  0.00  0.00    -0.227 NA
ATOM      7  C   UNL d   1     -40.195  15.326  17.074  0.00  0.00     0.052 A 
ATOM      8  C   UNL d   1     -38.983  14.407  19.625  0.00  0.00     0.104 A 
ATOM      9  C   UNL d   1     -40.750  15.529  17.676  0.00  0.00     0.086 A 
ATOM     10  C   UNL d   1     -40.516  15.573  16.367  0.00  0.00     0.005 A 
ATOM     11  C   UNL d   1     -38.817  14.228  20.410  0.00  0.00     0.023 C 
ATOM     12  C   UNL d   1     -41.397  15.895  17.324  0.00  0.00     0.019 A 
ATOM     13  C   UNL d   1     -41.247  15.921  16.503  0.00  0.00     0.002 A 
ENDROOT
BRANCH   5  14
ATOM     14  C   UNL d   1     -40.235  14.983  20.024  0.00  0.00     0.004 A 
ATOM     15  C   UNL d   1     -40.209  15.723  20.380  0.00  0.00     0.000 A 
ATOM     16  C   UNL d   1     -40.753  15.921  20.981  0.00  0.00     0.000 A 
ATOM     17  C   UNL d   1     -41.311  15.374  21.214  0.00  0.00     0.000 A 
ATOM     18  C   UNL d   1     -41.340  14.627  20.857  0.00  0.00     0.000 A 
ATOM     19  C   UNL d   1     -40.803  14.436  20.266  0.00  0.00     0.000 A 
ENDBRANCH   5  14
BRANCH   3  20
ATOM     20  N   UNL d   1     -38.942  14.753  16.644  0.00  0.00    -0.271 N 
ATOM     21  C   UNL d   1     -38.364  15.276  16.311  0.00  0.00     0.184 A 
ATOM     22  N   UNL d   1     -37.942  14.838  15.719  0.00  0.00    -0.222 NA
ATOM     23  C   UNL d   1     -38.258  14.048  15.687  0.00  0.00     0.120 A 
ATOM     24  C   UNL d   1     -38.882  14.004  16.268  0.00  0.00     0.104 A 
ENDBRANCH   3  20
TORSDOF 2
ENDMDL
MODEL 3
REMARK VINA RESULT:      -6.8      8.278      9.488
REMARK  2 active torsions:
REMARK  status: ('A' for Active; 'I' for Inactive)
REMARK    1  A    between atoms: N_9  and  C_3 
REMARK    2  A    between atoms: C_13  and  C_5 
ROOT
ATOM      1  N   UNL d   1     -48.445  12.724  22.926  0.00  0.00    -0.196 N 
ATOM      2  C   UNL d   1     -47.694  13.031  22.699  0.00  0.00     0.167 A 
ATOM      3  C   UNL d   1     -49.133  13.164  22.773  0.00  0.00     0.153 A 
ATOM      4  N   UNL d   1     -47.810  11.558  23.448  0.00  0.00    -0.163 NA
ATOM      5  C   UNL d   1     -47.022  12.603  22.848  0.00  0.00     0.055 A 
ATOM      6  N   UNL d   1     -47.657  13.768  22.326  0.00  0.00    -0.227 NA
ATOM      7  C   UNL d   1     -49.080  13.889  22.405  0.00  0.00     0.052 A 
ATOM      8  C   UNL d   1     -47.070  11.861  23.224  0.00  0.00     0.104 A 
ATOM      9  C   UNL d   1     -48.333  14.204  22.174  0.00  0.00     0.086 A 
ATOM     10  C   UNL d   1     -49.642  14.437  22.185  0.00  0.00     0.005 A 
ATOM     11  C   UNL d   1     -46.385  11.433  23.372  0.00  0.00     0.023 C 
ATOM     12  C   UNL d   1     -48.454  14.936  21.819  0.00  0.00     0.019 A 
ATOM     13  C   UNL d   1     -49.276  15.079  21.828  0.00  0.00     0.002 A 
ENDROOT
BRANCH   5  14
ATOM     14  C   UNL d   1     -46.287  12.904  22.626  0.00  0.00     0.004 A 
ATOM     15  C   UNL d   1     -45.912  13.469  23.089  0.00  0.00     0.000 A 
ATOM     16  C   UNL d   1     -45.169  13.774  22.864  0.00  0.00     0.000 A 
ATOM     17  C   UNL d   1     -44.816  13.506  22.180  0.00  0.00     0.000 A 
ATOM     18  C   UNL d   1     -45.190  12.936  21.710  0.00  0.00     0.000 A 
ATOM     19  C   UNL d   1     -45.922  12.639  21.935  0.00  0.00     0.000 A 
ENDBRANCH   5  14
BRANCH   3  20
ATOM     20  N   UNL d   1     -49.893  12.857  23.001  0.00  0.00    -0.271 N 
ATOM     21  C   UNL d   1     -50.336  12.270  22.578  0.00  0.00     0.184 A 
ATOM     22  N   UNL d   1     -51.054  12.138  23.010  0.00  0.00    -0.222 NA
ATOM     23  C   UNL d   1     -51.056  12.641  23.697  0.00  0.00     0.120 A 
ATOM     24  C   UNL d   1     -50.326  13.086  23.683  0.00  0.00     0.104 A 
ENDBRANCH   3  20
TORSDOF 2
ENDMDL
MODEL 4
REMARK VINA RESULT:      -6.6      1.157      3.740
REMARK  2 active torsions:
REMARK  status: ('A' for Active; 'I' for Inactive)
REMARK    1  A    between atoms: N_9  and  C_3 
REMARK    2  A    between atoms: C_13  and  C_5 
ROOT
ATOM      1  N   UNL d   1     -40.114  15.057  18.806  0.00  0.00    -0.196 N 
ATOM      2  C   UNL d   1     -39.530  14.837  18.240  0.00  0.00     0.167 A 
ATOM      3  C   UNL d   1     -39.981  14.908  19.613  0.00  0.00     0.153 A 
ATOM      4  N   UNL d   1     -40.940  15.561  17.758  0.00  0.00    -0.163 NA
ATOM      5  C   UNL d   1     -39.659  14.981  17.452  0.00  0.00     0.055 A 
ATOM      6  N   UNL d   1     -38.833  14.476  18.500  0.00  0.00    -0.227 NA
ATOM      7  C   UNL d   1     -39.289  14.552  19.853  0.00  0.00     0.052 A 
ATOM      8  C   UNL d   1     -40.365  15.345  17.201  0.00  0.00     0.104 A 
ATOM      9  C   UNL d   1     -38.699  14.329  19.294  0.00  0.00     0.086 A 
ATOM     10  C   UNL d   1     -39.006  14.340  20.588  0.00  0.00     0.005 A 
ATOM     11  C   UNL d   1     -40.487  15.487  16.401  0.00  0.00     0.023 C 
ATOM     12  C   UNL d   1     -38.070  13.986  19.697  0.00  0.00     0.019 A 
ATOM     13  C   UNL d   1     -38.265  13.994  20.508  0.00  0.00     0.002 A 
ENDROOT
BRANCH   5  14
ATOM     14  C   UNL d   1     -39.087  14.766  16.898  0.00  0.00     0.004 A 
ATOM     15  C   UNL d   1     -39.070  14.003  16.594  0.00  0.00     0.000 A 
ATOM     16  C   UNL d   1     -38.492  13.785  16.033  0.00  0.00     0.000 A 
ATOM     17  C   UNL d   1     -37.943  14.335  15.789  0.00  0.00     0.000 A 
ATOM     18  C   UNL d   1     -37.956  15.106  16.093  0.00  0.00     0.000 A 
ATOM     19  C   UNL d   1     -38.527  15.316  16.645  0.00  0.00     0.000 A 
ENDBRANCH   5  14
BRANCH   3  20
ATOM     20  N   UNL d   1     -40.569  15.129  20.187  0.00  0.00    -0.271 N 
ATOM     21  C   UNL d   1     -41.160  14.615  20.511  0.00  0.00     0.184 A 
ATOM     22  N   UNL d   1     -41.619  15.073  21.059  0.00  0.00    -0.222 NA
ATOM     23  C   UNL d   1     -41.312  15.868  21.073  0.00  0.00     0.120 A 
ATOM     24  C   UNL d   1     -40.656  15.893  20.526  0.00  0.00     0.104 A 
ENDBRANCH   3  20
TORSDOF 2
ENDMDL
MODEL 5
REMARK VINA RESULT:      -5.6      1.206      2.557
REMARK  2 active torsions:
REMARK  status: ('A' for Active; 'I' for Inactive)
REMARK    1  A    between atoms: N_9  and  C_3 
REMARK    2  A    between atoms: C_13  and  C_5 
ROOT
ATOM      1  N   UNL d   1     -39.788  14.253  20.049  0.00  0.00    -0.196 N 
ATOM      2  C   UNL d   1     -39.674  14.291  20.883  0.00  0.00     0.167 A 
ATOM      3  C   UNL d   1     -40.412  14.677  19.700  0.00  0.00     0.153 A 
ATOM      4  N   UNL d   1     -38.666  13.381  19.935  0.00  0.00    -0.163 NA
ATOM      5  C   UNL d   1     -39.066  13.878  21.225  0.00  0.00     0.055 A 
ATOM      6  N   UNL d   1     -40.188  14.751  21.339  0.00  0.00    -0.227 NA
ATOM      7  C   UNL d   1     -40.910  15.126  20.163  0.00  0.00     0.052 A 
ATOM      8  C   UNL d   1     -38.554  13.418  20.757  0.00  0.00     0.104 A 
ATOM      9  C   UNL d   1     -40.803  15.169  20.998  0.00  0.00     0.086 A 
ATOM     10  C   UNL d   1     -41.555  15.591  19.986  0.00  0.00     0.005 A 
ATOM     11  C   UNL d   1     -37.940  13.003  21.111  0.00  0.00     0.023 C 
ATOM     12  C   UNL d   1     -41.384  15.659  21.313  0.00  0.00     0.019 A 
ATOM     13  C   UNL d   1     -41.855  15.922  20.675  0.00  0.00     0.002 A 
ENDROOT
BRANCH   5  14
ATOM     14  C   UNL d   1     -38.954  13.915  22.042  0.00  0.00     0.004 A 
ATOM     15  C   UNL d   1     -39.290  13.349  22.532  0.00  0.00     0.000 A 
ATOM     16  C   UNL d   1     -39.178  13.386  23.358  0.00  0.00     0.000 A 
ATOM     17  C   UNL d   1     -38.731  13.989  23.676  0.00  0.00     0.000 A 
ATOM     18  C   UNL d   1     -38.390  14.562  23.184  0.00  0.00     0.000 A 
ATOM     19  C   UNL d   1     -38.503  14.522  22.372  0.00  0.00     0.000 A 
ENDBRANCH   5  14
BRANCH   3  20
ATOM     20  N   UNL d   1     -40.530  14.641  18.858  0.00  0.00    -0.271 N 
ATOM     21  C   UNL d   1     -40.957  14.037  18.444  0.00  0.00     0.184 A 
ATOM     22  N   UNL d   1     -40.930  14.230  17.618  0.00  0.00    -0.222 NA
ATOM     23  C   UNL d   1     -40.487  14.952  17.522  0.00  0.00     0.120 A 
ATOM     24  C   UNL d   1     -40.242  15.201  18.301  0.00  0.00     0.104 A 
ENDBRANCH   3  20
TORSDOF 2
ENDMDL
