MODEL 1
REMARK VINA RESULT:      -8.4      0.000      0.000
REMARK  2 active torsions:
REMARK  status: ('A' for Active; 'I' for Inactive)
REMARK       I    between atoms: N_3  and  C_1 
REMARK    1  A    between atoms: O_4  and  C_1 
REMARK    2  A    between atoms: C_6  and  O_4 
ROOT
ATOM      1  C   UNL d   1     -47.145  13.037  22.978  0.00  0.00     0.105 A 
ATOM      2  C   UNL d   1     -46.687  12.380  23.164  0.00  0.00     0.030 A 
ATOM      3  C   UNL d   1     -47.968  13.033  23.135  0.00  0.00     0.122 A 
ATOM      4  N   UNL d   1     -46.795  13.707  22.634  0.00  0.00    -0.242 NA
ATOM      5  C   UNL d   1     -47.037  11.714  23.507  0.00  0.00     0.059 A 
ATOM      6  C   UNL d   1     -48.315  12.372  23.475  0.00  0.00     0.027 A 
ATOM      7  C   UNL d   1     -47.861  11.710  23.664  0.00  0.00     0.013 A 
ATOM      8 CL   UNL d   1     -46.578  11.049  23.697  0.00  0.00    -0.082 Cl
ATOM      9  C   UNL d   1     -45.876  12.385  23.010  0.00  0.00     0.004 A 
ATOM     10  C   UNL d   1     -45.985  13.711  22.479  0.00  0.00     0.099 A 
ATOM     11  C   UNL d   1     -45.525  13.046  22.669  0.00  0.00     0.021 A 
ENDROOT
BRANCH   3  12
ATOM     12  O   UNL d   1     -48.435  13.698  22.946  0.00  0.00    -0.257 OA
BRANCH  12  13
ATOM     13  C   UNL d   1     -49.266  13.631  22.889  0.00  0.00     0.378 C 
ATOM     14  N   UNL d   1     -49.750  14.269  23.055  0.00  0.00    -0.252 N 
ATOM     15  C   UNL d   1     -50.570  14.197  22.996  0.00  0.00     0.085 A 
ATOM     16  C   UNL d   1     -49.418  14.990  23.282  0.00  0.00     0.085 A 
ATOM     17  C   UNL d   1     -51.058  14.836  23.162  0.00  0.00     0.019 A 
ATOM     18  C   UNL d   1     -50.726  15.558  23.390  0.00  0.00     0.003 A 
ATOM     19  C   UNL d   1     -49.912  15.628  23.447  0.00  0.00     0.019 A 
ATOM     20  O   UNL d   1     -49.602  12.900  22.658  0.00  0.00    -0.237 OA
ENDBRANCH  12  13
ENDBRANCH   3  12
TORSDOF 2
ENDMDL
MODEL 2
REMARK VINA RESULT:      -8.3      1.029      1.762
REMARK  2 active torsions:
REMARK  status: ('A' for Active; 'I' for Inactive)
REMARK       I    between atoms: N_3  and  C_1 
REMARK    1  A    between atoms: O_4  and  C_1 
REMARK    2  A    between atoms: C_6  and  O_4 
ROOT
ATOM      1  C   UNL d   1     -47.208  13.008  23.135  0.00  0.00     0.105 A 
ATOM      2  C   UNL d   1     -46.421  12.864  22.947  0.00  0.00     0.030 A 
ATOM      3  C   UNL d   1     -47.556  13.747  22.947  0.00  0.00     0.122 A 
ATOM      4  N   UNL d   1     -47.662  12.424  23.512  0.00  0.00    -0.242 NA
ATOM      5  C   UNL d   1     -45.971  13.447  22.571  0.00  0.00     0.059 A 
ATOM      6  C   UNL d   1     -47.109  14.326  22.574  0.00  0.00     0.027 A 
ATOM      7  C   UNL d   1     -46.319  14.186  22.383  0.00  0.00     0.013 A 
ATOM      8 CL   UNL d   1     -45.175  13.306  22.380  0.00  0.00    -0.082 Cl
ATOM      9  C   UNL d   1     -46.078  12.137  23.133  0.00  0.00     0.004 A 
ATOM     10  C   UNL d   1     -47.319  11.697  23.698  0.00  0.00     0.099 A 
ATOM     11  C   UNL d   1     -46.523  11.554  23.506  0.00  0.00     0.021 A 
ENDROOT
BRANCH   3  12
ATOM     12  O   UNL d   1     -48.355  13.896  23.137  0.00  0.00    -0.257 OA
BRANCH  12  13
ATOM     13  C   UNL d   1     -48.689  14.650  23.005  0.00  0.00     0.378 C 
ATOM     14  N   UNL d   1     -49.475  14.795  23.176  0.00  0.00    -0.252 N 
ATOM     15  C   UNL d   1     -49.800  15.542  23.043  0.00  0.00     0.085 A 
ATOM     16  C   UNL d   1     -49.948  14.192  23.484  0.00  0.00     0.085 A 
ATOM     17  C   UNL d   1     -50.590  15.690  23.215  0.00  0.00     0.019 A 
ATOM     18  C   UNL d   1     -51.063  15.087  23.523  0.00  0.00     0.003 A 
ATOM     19  C   UNL d   1     -50.739  14.346  23.654  0.00  0.00     0.019 A 
ATOM     20  O   UNL d   1     -48.210  15.261  22.693  0.00  0.00    -0.237 OA
ENDBRANCH  12  13
ENDBRANCH   3  12
TORSDOF 2
ENDMDL
MODEL 3
REMARK VINA RESULT:      -8.0      1.604      3.980
REMARK  2 active torsions:
REMARK  status: ('A' for Active; 'I' for Inactive)
REMARK       I    between atoms: N_3  and  C_1 
REMARK    1  A    between atoms: O_4  and  C_1 
REMARK    2  A    between atoms: C_6  and  O_4 
ROOT
ATOM      1  C   UNL d   1     -49.431  13.958  22.784  0.00  0.00     0.105 A 
ATOM      2  C   UNL d   1     -50.097  14.132  22.333  0.00  0.00     0.030 A 
ATOM      3  C   UNL d   1     -49.052  13.216  22.704  0.00  0.00     0.122 A 
ATOM      4  N   UNL d   1     -49.133  14.517  23.321  0.00  0.00    -0.242 NA
ATOM      5  C   UNL d   1     -50.392  13.574  21.799  0.00  0.00     0.059 A 
ATOM      6  C   UNL d   1     -49.346  12.663  22.174  0.00  0.00     0.027 A 
ATOM      7  C   UNL d   1     -50.013  12.832  21.718  0.00  0.00     0.013 A 
ATOM      8 CL   UNL d   1     -51.064  13.746  21.342  0.00  0.00    -0.082 Cl
ATOM      9  C   UNL d   1     -50.470  14.864  22.412  0.00  0.00     0.004 A 
ATOM     10  C   UNL d   1     -49.506  15.249  23.400  0.00  0.00     0.099 A 
ATOM     11  C   UNL d   1     -50.178  15.421  22.943  0.00  0.00     0.021 A 
ENDROOT
BRANCH   3  12
ATOM     12  O   UNL d   1     -48.377  13.037  23.160  0.00  0.00    -0.257 OA
BRANCH  12  13
ATOM     13  C   UNL d   1     -48.204  12.248  23.373  0.00  0.00     0.378 C 
ATOM     14  N   UNL d   1     -47.432  11.989  23.430  0.00  0.00    -0.252 N 
ATOM     15  C   UNL d   1     -47.267  11.208  23.640  0.00  0.00     0.085 A 
ATOM     16  C   UNL d   1     -46.809  12.510  23.276  0.00  0.00     0.085 A 
ATOM     17  C   UNL d   1     -46.491  10.945  23.698  0.00  0.00     0.019 A 
ATOM     18  C   UNL d   1     -45.869  11.466  23.544  0.00  0.00     0.003 A 
ATOM     19  C   UNL d   1     -46.034  12.242  23.335  0.00  0.00     0.019 A 
ATOM     20  O   UNL d   1     -48.835  11.720  23.529  0.00  0.00    -0.237 OA
ENDBRANCH  12  13
ENDBRANCH   3  12
TORSDOF 2
ENDMDL
MODEL 4
REMARK VINA RESULT:      -7.2      2.122      4.636
REMARK  2 active torsions:
REMARK  status: ('A' for Active; 'I' for Inactive)
REMARK       I    between atoms: N_3  and  C_1 
REMARK    1  A    between atoms: O_4  and  C_1 
REMARK    2  A    between atoms: C_6  and  O_4 
ROOT
ATOM      1  C   UNL d   1     -47.539  12.866  22.714  0.00  0.00     0.105 A 
ATOM      2  C   UNL d   1     -47.953  13.560  22.558  0.00  0.00     0.030 A 
ATOM      3  C   UNL d   1     -46.745  12.902  22.981  0.00  0.00     0.122 A 
ATOM      4  N   UNL d   1     -47.905  12.129  22.609  0.00  0.00    -0.242 NA
ATOM      5  C   UNL d   1     -47.586  14.294  22.663  0.00  0.00     0.059 A 
ATOM      6  C   UNL d   1     -46.382  13.631  23.085  0.00  0.00     0.027 A 
ATOM      7  C   UNL d   1     -46.792  14.330  22.929  0.00  0.00     0.013 A 
ATOM      8 CL   UNL d   1     -48.000  14.996  22.506  0.00  0.00    -0.082 Cl
ATOM      9  C   UNL d   1     -48.734  13.525  22.295  0.00  0.00     0.004 A 
ATOM     10  C   UNL d   1     -48.687  12.093  22.347  0.00  0.00     0.099 A 
ATOM     11  C   UNL d   1     -49.102  12.796  22.189  0.00  0.00     0.021 A 
ENDROOT
BRANCH   3  12
ATOM     12  O   UNL d   1     -46.324  12.200  23.140  0.00  0.00    -0.257 OA
BRANCH  12  13
ATOM     13  C   UNL d   1     -45.512  12.141  22.953  0.00  0.00     0.378 C 
ATOM     14  N   UNL d   1     -45.088  11.467  23.138  0.00  0.00    -0.252 N 
ATOM     15  C   UNL d   1     -44.286  11.414  22.951  0.00  0.00     0.085 A 
ATOM     16  C   UNL d   1     -45.462  10.835  23.515  0.00  0.00     0.085 A 
ATOM     17  C   UNL d   1     -43.858  10.737  23.136  0.00  0.00     0.019 A 
ATOM     18  C   UNL d   1     -44.232  10.105  23.513  0.00  0.00     0.003 A 
ATOM     19  C   UNL d   1     -45.029  10.159  23.698  0.00  0.00     0.019 A 
ATOM     20  O   UNL d   1     -45.132  12.782  22.571  0.00  0.00    -0.237 OA
ENDBRANCH  12  13
ENDBRANCH   3  12
TORSDOF 2
ENDMDL
MODEL 5
REMARK VINA RESULT:      -6.2      8.490     10.274
REMARK  2 active torsions:
REMARK  status: ('A' for Active; 'I' for Inactive)
REMARK       I    between atoms: N_3  and  C_1 
REMARK    1  A    between atoms: O_4  and  C_1 
REMARK    2  A    between atoms: C_6  and  O_4 
ROOT
ATOM      1  C   UNL d   1     -38.968  13.771  17.539  0.00  0.00     0.105 A 
ATOM      2  C   UNL d   1     -38.582  13.753  16.812  0.00  0.00     0.030 A 
ATOM      3  C   UNL d   1     -39.490  14.400  17.722  0.00  0.00     0.122 A 
ATOM      4  N   UNL d   1     -38.842  13.165  18.093  0.00  0.00    -0.242 NA
ATOM      5  C   UNL d   1     -38.709  14.357  16.261  0.00  0.00     0.059 A 
ATOM      6  C   UNL d   1     -39.615  14.999  17.175  0.00  0.00     0.027 A 
ATOM      7  C   UNL d   1     -39.231  14.986  16.445  0.00  0.00     0.013 A 
ATOM      8 CL   UNL d   1     -38.322  14.343  15.527  0.00  0.00    -0.082 Cl
ATOM      9  C   UNL d   1     -38.069  13.134  16.632  0.00  0.00     0.004 A 
ATOM     10  C   UNL d   1     -38.328  12.546  17.912  0.00  0.00     0.099 A 
ATOM     11  C   UNL d   1     -37.940  12.531  17.178  0.00  0.00     0.021 A 
ENDROOT
BRANCH   3  12
ATOM     12  O   UNL d   1     -39.882  14.420  18.458  0.00  0.00    -0.257 OA
BRANCH  12  13
ATOM     13  C   UNL d   1     -40.076  15.149  18.816  0.00  0.00     0.378 C 
ATOM     14  N   UNL d   1     -40.432  15.173  19.552  0.00  0.00    -0.252 N 
ATOM     15  C   UNL d   1     -40.621  15.896  19.901  0.00  0.00     0.085 A 
ATOM     16  C   UNL d   1     -40.603  14.469  19.950  0.00  0.00     0.085 A 
ATOM     17  C   UNL d   1     -40.979  15.922  20.640  0.00  0.00     0.019 A 
ATOM     18  C   UNL d   1     -41.150  15.219  21.038  0.00  0.00     0.003 A 
ATOM     19  C   UNL d   1     -40.961  14.501  20.690  0.00  0.00     0.019 A 
ATOM     20  O   UNL d   1     -39.902  15.862  18.413  0.00  0.00    -0.237 OA
ENDBRANCH  12  13
ENDBRANCH   3  12
TORSDOF 2
ENDMDL
MODEL 6
REMARK VINA RESULT:      -6.0      9.236      9.938
REMARK  2 active torsions:
REMARK  status: ('A' for Active; 'I' for Inactive)
REMARK       I    between atoms: N_3  and  C_1 
REMARK    1  A    between atoms: O_4  and  C_1 
REMARK    2  A    between atoms: C_6  and  O_4 
ROOT
ATOM      1  C   UNL d   1     -39.600  14.233  18.417  0.00  0.00     0.105 A 
ATOM      2  C   UNL d   1     -39.944  14.432  17.697  0.00  0.00     0.030 A 
ATOM      3  C   UNL d   1     -39.885  14.574  19.127  0.00  0.00     0.122 A 
ATOM      4  N   UNL d   1     -38.969  13.693  18.444  0.00  0.00    -0.242 NA
ATOM      5  C   UNL d   1     -40.572  14.969  17.672  0.00  0.00     0.059 A 
ATOM      6  C   UNL d   1     -40.508  15.108  19.102  0.00  0.00     0.027 A 
ATOM      7  C   UNL d   1     -40.857  15.311  18.382  0.00  0.00     0.013 A 
ATOM      8 CL   UNL d   1     -40.922  15.173  16.947  0.00  0.00    -0.082 Cl
ATOM      9  C   UNL d   1     -39.663  14.096  16.998  0.00  0.00     0.004 A 
ATOM     10  C   UNL d   1     -38.688  13.357  17.745  0.00  0.00     0.099 A 
ATOM     11  C   UNL d   1     -39.038  13.561  17.019  0.00  0.00     0.021 A 
ENDROOT
BRANCH   3  12
ATOM     12  O   UNL d   1     -39.538  14.374  19.859  0.00  0.00    -0.257 OA
BRANCH  12  13
ATOM     13  C   UNL d   1     -39.456  14.947  20.461  0.00  0.00     0.378 C 
ATOM     14  N   UNL d   1     -39.300  14.725  21.232  0.00  0.00    -0.252 N 
ATOM     15  C   UNL d   1     -39.220  15.295  21.823  0.00  0.00     0.085 A 
ATOM     16  C   UNL d   1     -39.222  13.925  21.423  0.00  0.00     0.085 A 
ATOM     17  C   UNL d   1     -39.064  15.074  22.598  0.00  0.00     0.019 A 
ATOM     18  C   UNL d   1     -38.985  14.274  22.789  0.00  0.00     0.003 A 
ATOM     19  C   UNL d   1     -39.064  13.709  22.201  0.00  0.00     0.019 A 
ATOM     20  O   UNL d   1     -39.536  15.757  20.268  0.00  0.00    -0.237 OA
ENDBRANCH  12  13
ENDBRANCH   3  12
TORSDOF 2
ENDMDL
MODEL 7
REMARK VINA RESULT:      -5.6      1.841      2.953
REMARK  2 active torsions:
REMARK  status: ('A' for Active; 'I' for Inactive)
REMARK       I    between atoms: N_3  and  C_1 
REMARK    1  A    between atoms: O_4  and  C_1 
REMARK    2  A    between atoms: C_6  and  O_4 
ROOT
ATOM      1  C   UNL d   1     -45.124  11.899  22.905  0.00  0.00     0.105 A 
ATOM      2  C   UNL d   1     -44.355  11.776  22.639  0.00  0.00     0.030 A 
ATOM      3  C   UNL d   1     -45.555  12.569  22.644  0.00  0.00     0.122 A 
ATOM      4  N   UNL d   1     -45.475  11.362  23.432  0.00  0.00    -0.242 NA
ATOM      5  C   UNL d   1     -44.007  12.311  22.114  0.00  0.00     0.059 A 
ATOM      6  C   UNL d   1     -45.209  13.100  22.123  0.00  0.00     0.027 A 
ATOM      7  C   UNL d   1     -44.438  12.981  21.853  0.00  0.00     0.013 A 
ATOM      8 CL   UNL d   1     -43.231  12.190  21.844  0.00  0.00    -0.082 Cl
ATOM      9  C   UNL d   1     -43.931  11.117  22.896  0.00  0.00     0.004 A 
ATOM     10  C   UNL d   1     -45.051  10.703  23.688  0.00  0.00     0.099 A 
ATOM     11  C   UNL d   1     -44.274  10.581  23.418  0.00  0.00     0.021 A 
ENDROOT
BRANCH   3  12
ATOM     12  O   UNL d   1     -46.335  12.696  22.912  0.00  0.00    -0.257 OA
BRANCH  12  13
ATOM     13  C   UNL d   1     -46.637  13.472  22.987  0.00  0.00     0.378 C 
ATOM     14  N   UNL d   1     -47.428  13.628  22.856  0.00  0.00    -0.252 N 
ATOM     15  C   UNL d   1     -47.720  14.396  22.932  0.00  0.00     0.085 A 
ATOM     16  C   UNL d   1     -47.940  13.015  22.646  0.00  0.00     0.085 A 
ATOM     17  C   UNL d   1     -48.515  14.555  22.801  0.00  0.00     0.019 A 
ATOM     18  C   UNL d   1     -49.027  13.942  22.590  0.00  0.00     0.003 A 
ATOM     19  C   UNL d   1     -48.735  13.180  22.515  0.00  0.00     0.019 A 
ATOM     20  O   UNL d   1     -46.118  14.093  23.201  0.00  0.00    -0.237 OA
ENDBRANCH  12  13
ENDBRANCH   3  12
TORSDOF 2
ENDMDL
