MODEL 1
REMARK VINA RESULT:      -9.3      0.000      0.000
REMARK  9 active torsions:
REMARK  status: ('A' for Active; 'I' for Inactive)
REMARK    1  A    between atoms: N_9  and  C_3 
REMARK    2  A    between atoms: S_14  and  C_6 
REMARK       I    between atoms: C_11  and  N_9 
REMARK    3  A    between atoms: C_18  and  C_11 
REMARK    4  A    between atoms: C_12  and  C_15 
REMARK    5  A    between atoms: O_25  and  C_12 
REMARK    6  A    between atoms: C_13  and  C_23 
REMARK       I    between atoms: N_16  and  C_13 
REMARK    7  A    between atoms: C_23  and  S_14 
REMARK    8  A    between atoms: C_24  and  N_16 
REMARK    9  A    between atoms: C_32  and  O_25 
ROOT
ATOM      1  C   UNL d   1      53.138  33.553  54.099  0.00  0.00     0.079 A 
ATOM      2  C   UNL d   1      52.937  34.363  54.058  0.00  0.00     0.187 A 
ATOM      3  C   UNL d   1      52.663  33.002  53.729  0.00  0.00     0.171 A 
ATOM      4  N   UNL d   1      52.264  34.605  53.649  0.00  0.00    -0.197 NA
ATOM      5  N   UNL d   1      51.987  33.228  53.316  0.00  0.00    -0.202 NA
ATOM      6  C   UNL d   1      51.785  34.037  53.275  0.00  0.00     0.198 A 
ATOM      7  C   UNL d   1      53.831  33.491  54.541  0.00  0.00     0.029 A 
ATOM      8  O   UNL d   1      53.511  34.794  54.478  0.00  0.00    -0.289 OA
ATOM      9  C   UNL d   1      54.064  34.249  54.776  0.00  0.00     0.102 A 
ATOM     10  C   UNL d   1      54.229  32.788  54.721  0.00  0.00     0.002 C 
ATOM     11  C   UNL d   1      54.728  34.437  55.228  0.00  0.00     0.027 C 
ENDROOT
BRANCH   6  12
ATOM     12  S   UNL d   1      51.106  34.277  52.861  0.00  0.00    -0.043 SA
BRANCH  12  13
ATOM     13  C   UNL d   1      50.558  34.770  53.220  0.00  0.00     0.101 C 
BRANCH  13  14
ATOM     14  C   UNL d   1      49.807  34.864  52.889  0.00  0.00     0.286 C 
ATOM     15  N   UNL d   1      49.326  35.479  53.139  0.00  0.00    -0.208 NA
ATOM     16  O   UNL d   1      49.541  34.343  52.307  0.00  0.00    -0.265 OA
BRANCH  15  17
ATOM     17  C   UNL d   1      48.574  35.583  52.814  0.00  0.00     0.085 A 
ATOM     18  C   UNL d   1      48.448  35.446  52.017  0.00  0.00     0.019 A 
ATOM     19  C   UNL d   1      47.693  35.552  51.701  0.00  0.00     0.007 A 
ATOM     20  C   UNL d   1      47.071  35.794  52.186  0.00  0.00     0.064 A 
ATOM     21  C   UNL d   1      47.205  35.932  52.995  0.00  0.00     0.007 A 
ATOM     22  C   UNL d   1      47.954  35.826  53.309  0.00  0.00     0.019 A 
BRANCH  20  23
ATOM     23  C   UNL d   1      46.312  35.900  51.867  0.00  0.00     0.300 C 
ATOM     24  O   UNL d   1      46.164  36.526  51.349  0.00  0.00    -0.259 OA
BRANCH  23  25
ATOM     25  O   UNL d   1      45.705  35.379  52.068  0.00  0.00    -0.271 OA
BRANCH  25  26
ATOM     26  C   UNL d   1      44.966  35.442  51.712  0.00  0.00     0.126 C 
ATOM     27  C   UNL d   1      44.347  34.966  51.963  0.00  0.00     0.029 C 
ENDBRANCH  25  26
ENDBRANCH  23  25
ENDBRANCH  20  23
ENDBRANCH  15  17
ENDBRANCH  13  14
ENDBRANCH  12  13
ENDBRANCH   6  12
BRANCH   3  28
ATOM     28  N   UNL d   1      52.862  32.202  53.770  0.00  0.00    -0.189 NA
ATOM     29  C   UNL d   1      52.663  31.695  53.144  0.00  0.00     0.281 C 
ATOM     30  O   UNL d   1      52.267  31.989  52.483  0.00  0.00    -0.265 OA
BRANCH  29  31
ATOM     31  C   UNL d   1      52.864  30.896  53.188  0.00  0.00     0.058 A 
ATOM     32  C   UNL d   1      52.332  30.359  53.508  0.00  0.00     0.005 A 
ATOM     33  C   UNL d   1      52.527  29.564  53.554  0.00  0.00     0.000 A 
ATOM     34  C   UNL d   1      53.257  29.297  53.282  0.00  0.00     0.000 A 
ATOM     35  C   UNL d   1      53.793  29.840  52.960  0.00  0.00     0.000 A 
ATOM     36  C   UNL d   1      53.595  30.644  52.913  0.00  0.00     0.005 A 
ENDBRANCH  29  31
ENDBRANCH   3  28
TORSDOF 9
ENDMDL
MODEL 2
REMARK VINA RESULT:      -7.5      0.845      2.742
REMARK  9 active torsions:
REMARK  status: ('A' for Active; 'I' for Inactive)
REMARK    1  A    between atoms: N_9  and  C_3 
REMARK    2  A    between atoms: S_14  and  C_6 
REMARK       I    between atoms: C_11  and  N_9 
REMARK    3  A    between atoms: C_18  and  C_11 
REMARK    4  A    between atoms: C_12  and  C_15 
REMARK    5  A    between atoms: O_25  and  C_12 
REMARK    6  A    between atoms: C_13  and  C_23 
REMARK       I    between atoms: N_16  and  C_13 
REMARK    7  A    between atoms: C_23  and  S_14 
REMARK    8  A    between atoms: C_24  and  N_16 
REMARK    9  A    between atoms: C_32  and  O_25 
ROOT
ATOM      1  C   UNL d   1      52.880  31.992  53.149  0.00  0.00     0.079 A 
ATOM      2  C   UNL d   1      52.188  31.833  52.710  0.00  0.00     0.187 A 
ATOM      3  C   UNL d   1      53.054  32.761  53.359  0.00  0.00     0.171 A 
ATOM      4  N   UNL d   1      51.684  32.445  52.489  0.00  0.00    -0.197 NA
ATOM      5  N   UNL d   1      52.560  33.386  53.146  0.00  0.00    -0.202 NA
ATOM      6  C   UNL d   1      51.868  33.227  52.707  0.00  0.00     0.198 A 
ATOM      7  C   UNL d   1      53.261  31.274  53.282  0.00  0.00     0.029 A 
ATOM      8  O   UNL d   1      52.150  31.012  52.575  0.00  0.00    -0.289 OA
ATOM      9  C   UNL d   1      52.818  30.670  52.932  0.00  0.00     0.102 A 
ATOM     10  C   UNL d   1      53.971  31.171  53.696  0.00  0.00     0.002 C 
ATOM     11  C   UNL d   1      53.002  29.866  52.934  0.00  0.00     0.027 C 
ENDROOT
BRANCH   6  12
ATOM     12  S   UNL d   1      51.362  33.848  52.486  0.00  0.00    -0.043 SA
BRANCH  12  13
ATOM     13  C   UNL d   1      50.755  34.082  52.985  0.00  0.00     0.101 C 
BRANCH  13  14
ATOM     14  C   UNL d   1      50.089  34.458  52.676  0.00  0.00     0.286 C 
ATOM     15  N   UNL d   1      49.547  34.808  53.184  0.00  0.00    -0.208 NA
ATOM     16  O   UNL d   1      49.965  34.483  51.861  0.00  0.00    -0.265 OA
BRANCH  15  17
ATOM     17  C   UNL d   1      48.877  35.187  52.886  0.00  0.00     0.085 A 
ATOM     18  C   UNL d   1      48.534  34.928  52.189  0.00  0.00     0.019 A 
ATOM     19  C   UNL d   1      47.864  35.313  51.899  0.00  0.00     0.007 A 
ATOM     20  C   UNL d   1      47.544  35.954  52.308  0.00  0.00     0.064 A 
ATOM     21  C   UNL d   1      47.897  36.213  53.015  0.00  0.00     0.007 A 
ATOM     22  C   UNL d   1      48.562  35.831  53.303  0.00  0.00     0.019 A 
BRANCH  20  23
ATOM     23  C   UNL d   1      46.871  36.341  52.015  0.00  0.00     0.300 C 
ATOM     24  O   UNL d   1      46.876  36.665  51.255  0.00  0.00    -0.259 OA
BRANCH  23  25
ATOM     25  O   UNL d   1      46.195  36.401  52.484  0.00  0.00    -0.271 OA
BRANCH  25  26
ATOM     26  C   UNL d   1      45.470  36.598  52.148  0.00  0.00     0.126 C 
ATOM     27  C   UNL d   1      44.812  36.708  52.625  0.00  0.00     0.029 C 
ENDBRANCH  25  26
ENDBRANCH  23  25
ENDBRANCH  20  23
ENDBRANCH  15  17
ENDBRANCH  13  14
ENDBRANCH  12  13
ENDBRANCH   6  12
BRANCH   3  28
ATOM     28  N   UNL d   1      53.738  32.919  53.793  0.00  0.00    -0.189 NA
ATOM     29  C   UNL d   1      53.765  33.579  54.295  0.00  0.00     0.281 C 
ATOM     30  O   UNL d   1      53.111  34.077  54.360  0.00  0.00    -0.265 OA
BRANCH  29  31
ATOM     31  C   UNL d   1      54.451  33.733  54.727  0.00  0.00     0.058 A 
ATOM     32  C   UNL d   1      55.144  33.932  54.335  0.00  0.00     0.005 A 
ATOM     33  C   UNL d   1      55.828  34.085  54.760  0.00  0.00     0.000 A 
ATOM     34  C   UNL d   1      55.828  34.042  55.583  0.00  0.00     0.000 A 
ATOM     35  C   UNL d   1      55.127  33.841  55.976  0.00  0.00     0.000 A 
ATOM     36  C   UNL d   1      54.436  33.686  55.547  0.00  0.00     0.005 A 
ENDBRANCH  29  31
ENDBRANCH   3  28
TORSDOF 9
ENDMDL
