MODEL 1
REMARK VINA RESULT:       1.9      0.000      0.000
REMARK  4 active torsions:
REMARK  status: ('A' for Active; 'I' for Inactive)
REMARK    1  A    between atoms: N_9  and  C_3 
REMARK    2  A    between atoms: C_11  and  C_4 
REMARK    3  A    between atoms: C_15  and  C_10 
REMARK    4  A    between atoms: C_20  and  C_15 
ROOT
ATOM      1  N   UNL d   1     -41.874-122.479 -52.140  0.00  0.00    -0.196 N 
ATOM      2  C   UNL d   1     -41.806-122.387 -51.310  0.00  0.00     0.167 A 
ATOM      3  C   UNL d   1     -41.695-121.850 -52.612  0.00  0.00     0.153 A 
ATOM      4  C   UNL d   1     -41.980-123.004 -50.818  0.00  0.00     0.057 A 
ATOM      5  N   UNL d   1     -42.289-123.815 -51.946  0.00  0.00    -0.161 NA
ATOM      6  N   UNL d   1     -41.565-121.671 -50.999  0.00  0.00    -0.227 NA
ATOM      7  C   UNL d   1     -41.452-121.128 -52.311  0.00  0.00     0.057 A 
ATOM      8  C   UNL d   1     -42.223-123.724 -51.128  0.00  0.00     0.124 A 
ATOM      9  C   UNL d   1     -41.386-121.037 -51.494  0.00  0.00     0.086 A 
ENDROOT
BRANCH   3  10
ATOM     10  N   UNL d   1     -41.764-121.944 -53.456  0.00  0.00    -0.285 N 
ATOM     11  C   UNL d   1     -41.131-122.307 -53.902  0.00  0.00     0.108 A 
ATOM     12  C   UNL d   1     -41.206-122.396 -54.737  0.00  0.00     0.142 A 
ATOM     13  O   UNL d   1     -41.908-122.127 -55.141  0.00  0.00    -0.300 OA
ATOM     14  C   UNL d   1     -42.529-121.768 -54.687  0.00  0.00     0.142 A 
ATOM     15  C   UNL d   1     -42.461-121.675 -53.853  0.00  0.00     0.108 A 
ENDBRANCH   3  10
BRANCH   9  16
ATOM     16  C   UNL d   1     -41.133-120.292 -51.165  0.00  0.00     0.019 C 
BRANCH  16  17
ATOM     17  C   UNL d   1     -41.129-119.590 -51.641  0.00  0.00     0.002 C 
ATOM     18  C   UNL d   1     -41.139-118.818 -51.285  0.00  0.00     0.000 C 
ENDBRANCH  16  17
ENDBRANCH   9  16
BRANCH   4  19
ATOM     19  C   UNL d   1     -41.910-122.901 -49.998  0.00  0.00     0.004 A 
ATOM     20  C   UNL d   1     -42.570-122.664 -49.576  0.00  0.00     0.000 A 
ATOM     21  C   UNL d   1     -42.512-122.558 -48.760  0.00  0.00     0.000 A 
ATOM     22  C   UNL d   1     -41.796-122.691 -48.383  0.00  0.00     0.000 A 
ATOM     23  C   UNL d   1     -41.154-122.924 -48.808  0.00  0.00     0.000 A 
ATOM     24  C   UNL d   1     -41.211-123.030 -49.624  0.00  0.00     0.000 A 
ENDBRANCH   4  19
TORSDOF 4
ENDMDL
MODEL 2
REMARK VINA RESULT:       2.1      1.461      3.963
REMARK  4 active torsions:
REMARK  status: ('A' for Active; 'I' for Inactive)
REMARK    1  A    between atoms: N_9  and  C_3 
REMARK    2  A    between atoms: C_11  and  C_4 
REMARK    3  A    between atoms: C_15  and  C_10 
REMARK    4  A    between atoms: C_20  and  C_15 
ROOT
ATOM      1  N   UNL d   1     -42.000-122.625 -51.952  0.00  0.00    -0.196 N 
ATOM      2  C   UNL d   1     -41.911-122.294 -52.716  0.00  0.00     0.167 A 
ATOM      3  C   UNL d   1     -41.799-122.176 -51.313  0.00  0.00     0.153 A 
ATOM      4  C   UNL d   1     -42.107-122.726 -53.371  0.00  0.00     0.057 A 
ATOM      5  N   UNL d   1     -42.482-123.816 -52.538  0.00  0.00    -0.161 NA
ATOM      6  N   UNL d   1     -41.626-121.533 -52.798  0.00  0.00    -0.227 NA
ATOM      7  C   UNL d   1     -41.511-121.412 -51.384  0.00  0.00     0.057 A 
ATOM      8  C   UNL d   1     -42.394-123.490 -53.290  0.00  0.00     0.124 A 
ATOM      9  C   UNL d   1     -41.424-121.086 -52.136  0.00  0.00     0.086 A 
ENDROOT
BRANCH   3  10
ATOM     10  N   UNL d   1     -41.889-122.513 -50.535  0.00  0.00    -0.285 N 
ATOM     11  C   UNL d   1     -42.642-122.470 -50.133  0.00  0.00     0.108 A 
ATOM     12  C   UNL d   1     -42.724-122.806 -49.363  0.00  0.00     0.142 A 
ATOM     13  O   UNL d   1     -42.062-123.187 -48.983  0.00  0.00    -0.300 OA
ATOM     14  C   UNL d   1     -41.320-123.222 -49.394  0.00  0.00     0.142 A 
ATOM     15  C   UNL d   1     -41.230-122.890 -50.163  0.00  0.00     0.108 A 
ENDBRANCH   3  10
BRANCH   9  16
ATOM     16  C   UNL d   1     -41.126-120.291 -52.227  0.00  0.00     0.019 C 
BRANCH  16  17
ATOM     17  C   UNL d   1     -41.137-119.750 -51.575  0.00  0.00     0.002 C 
ATOM     18  C   UNL d   1     -41.171-118.911 -51.702  0.00  0.00     0.000 C 
ENDBRANCH  16  17
ENDBRANCH   9  16
BRANCH   4  19
ATOM     19  C   UNL d   1     -42.014-122.387 -54.122  0.00  0.00     0.004 A 
ATOM     20  C   UNL d   1     -41.333-122.554 -54.545  0.00  0.00     0.000 A 
ATOM     21  C   UNL d   1     -41.230-122.223 -55.293  0.00  0.00     0.000 A 
ATOM     22  C   UNL d   1     -41.809-121.732 -55.604  0.00  0.00     0.000 A 
ATOM     23  C   UNL d   1     -42.475-121.575 -55.179  0.00  0.00     0.000 A 
ATOM     24  C   UNL d   1     -42.579-121.906 -54.431  0.00  0.00     0.000 A 
ENDBRANCH   4  19
TORSDOF 4
ENDMDL
