MODEL 1
REMARK VINA RESULT:      56.4      0.000      0.000
REMARK  11 active torsions:
REMARK  status: ('A' for Active; 'I' for Inactive)
REMARK    1  A    between atoms: C_8  and  S_1 
REMARK    2  A    between atoms: N_19  and  S_1 
REMARK    3  A    between atoms: S_2  and  C_9 
REMARK    4  A    between atoms: N_20  and  S_2 
REMARK    5  A    between atoms: N_14  and  C_5 
REMARK    6  A    between atoms: C_24  and  N_19 
REMARK    7  A    between atoms: C_25  and  N_20 
REMARK    8  A    between atoms: C_29  and  C_24 
REMARK    9  A    between atoms: C_28  and  C_25 
REMARK   10  A    between atoms: O_26  and  C_29 
REMARK   11  A    between atoms: O_27  and  C_28 
ROOT
ATOM      1  C   UNL d   1     -55.093-101.262 -41.218  0.00  0.00     0.021 A 
ATOM      2  C   UNL d   1     -55.029-100.956 -42.431  0.00  0.00     0.021 A 
ATOM      3  C   UNL d   1     -55.161-100.649 -41.761  0.00  0.00     0.111 A 
ATOM      4  C   UNL d   1     -54.910-101.958 -41.628  0.00  0.00     0.002 A 
ATOM      5  C   UNL d   1     -54.864-101.769 -42.432  0.00  0.00     0.002 A 
ATOM      6  C   UNL d   1     -55.073-101.990 -39.996  0.00  0.00     0.105 A 
ATOM      7  C   UNL d   1     -54.889-100.922 -43.845  0.00  0.00     0.105 A 
ATOM      8  C   UNL d   1     -55.041-100.535 -43.141  0.00  0.00     0.015 A 
ATOM      9  C   UNL d   1     -55.174-101.283 -40.402  0.00  0.00     0.015 A 
ATOM     10  C   UNL d   1     -54.712-102.154 -43.146  0.00  0.00     0.001 A 
ATOM     11  C   UNL d   1     -54.808-102.669 -41.223  0.00  0.00     0.001 A 
ATOM     12  C   UNL d   1     -54.723-101.736 -43.856  0.00  0.00     0.013 A 
ATOM     13  C   UNL d   1     -54.892-102.673 -40.403  0.00  0.00     0.013 A 
ENDROOT
BRANCH   6  14
ATOM     14  S   UNL d   1     -55.118-102.179 -39.192  0.00  0.00     0.285 S 
ATOM     15  O   UNL d   1     -55.522-101.473 -39.045  0.00  0.00    -0.198 OA
ATOM     16  O   UNL d   1     -54.715-102.880 -39.347  0.00  0.00    -0.198 OA
BRANCH  14  17
ATOM     17  N   UNL d   1     -55.355-101.997 -38.424  0.00  0.00    -0.155 NA
BRANCH  17  18
ATOM     18  C   UNL d   1     -54.938-102.298 -37.780  0.00  0.00     0.138 C 
BRANCH  18  19
ATOM     19  C   UNL d   1     -55.334-102.512 -37.083  0.00  0.00     0.138 C 
BRANCH  19  20
ATOM     20  O   UNL d   1     -55.430-101.975 -36.475  0.00  0.00    -0.325 OA
ATOM     21  C   UNL d   1     -54.983-101.280 -36.453  0.00  0.00     0.182 C 
ENDBRANCH  19  20
ENDBRANCH  18  19
ENDBRANCH  17  18
ENDBRANCH  14  17
ENDBRANCH   6  14
BRANCH   3  22
ATOM     22  N   UNL d   1     -55.339 -99.861 -41.586  0.00  0.00    -0.096 NA
ATOM     23  O   UNL d   1     -54.717 -99.320 -41.474  0.00  0.00    -0.061 OA
ENDBRANCH   3  22
BRANCH   7  24
ATOM     24  S   UNL d   1     -54.844-100.733 -44.649  0.00  0.00     0.285 S 
ATOM     25  O   UNL d   1     -54.955-101.529 -44.843  0.00  0.00    -0.198 OA
ATOM     26  O   UNL d   1     -54.733 -99.936 -44.456  0.00  0.00    -0.198 OA
BRANCH  24  27
ATOM     27  N   UNL d   1     -54.750-100.171 -45.247  0.00  0.00    -0.155 NA
BRANCH  27  28
ATOM     28  C   UNL d   1     -55.291 -99.552 -45.316  0.00  0.00     0.138 C 
BRANCH  28  29
ATOM     29  C   UNL d   1     -55.901 -99.477 -44.766  0.00  0.00     0.138 C 
BRANCH  29  30
ATOM     30  O   UNL d   1     -56.479 -98.884 -44.861  0.00  0.00    -0.325 OA
ATOM     31  C   UNL d   1     -56.814 -98.758 -45.597  0.00  0.00     0.182 C 
ENDBRANCH  29  30
ENDBRANCH  28  29
ENDBRANCH  27  28
ENDBRANCH  24  27
ENDBRANCH   7  24
TORSDOF 11
ENDMDL
