MODEL 1
REMARK VINA RESULT:      -3.1      0.000      0.000
REMARK  7 active torsions:
REMARK  status: ('A' for Active; 'I' for Inactive)
REMARK    1  A    between atoms: C_9  and  N_1 
REMARK    2  A    between atoms: O_18  and  C_6 
REMARK    3  A    between atoms: C_7  and  C_8 
REMARK    4  A    between atoms: C_8  and  O_12 
REMARK    5  A    between atoms: O_12  and  C_9 
REMARK    6  A    between atoms: O_20  and  C_10 
REMARK    7  A    between atoms: O_19  and  C_11 
ROOT
ATOM      1  C   UNL d   1      32.764  18.820 -23.857  0.00  0.00     0.302 C 
ATOM      2  O   UNL d   1      33.171  19.105 -24.518  0.00  0.00    -0.259 OA
ENDROOT
BRANCH   1   3
ATOM      3  C   UNL d   1      32.342  18.111 -23.906  0.00  0.00     0.068 A 
ATOM      4  C   UNL d   1      31.640  18.075 -24.371  0.00  0.00     0.032 A 
ATOM      5  C   UNL d   1      31.236  17.366 -24.407  0.00  0.00     0.118 A 
ATOM      6  C   UNL d   1      31.498  16.698 -24.003  0.00  0.00     0.138 A 
ATOM      7  C   UNL d   1      32.186  16.746 -23.552  0.00  0.00     0.118 A 
ATOM      8  C   UNL d   1      32.604  17.451 -23.505  0.00  0.00     0.032 A 
BRANCH   5   9
ATOM      9  O   UNL d   1      30.535  17.319 -24.868  0.00  0.00    -0.326 OA
ATOM     10  C   UNL d   1      30.104  18.007 -25.024  0.00  0.00     0.181 C 
ENDBRANCH   5   9
BRANCH   6  11
ATOM     11  O   UNL d   1      31.069  15.986 -24.055  0.00  0.00    -0.324 OA
ATOM     12  C   UNL d   1      30.393  15.860 -23.607  0.00  0.00     0.182 C 
ENDBRANCH   6  11
BRANCH   7  13
ATOM     13  O   UNL d   1      32.455  16.070 -23.141  0.00  0.00    -0.326 OA
ATOM     14  C   UNL d   1      33.241  15.851 -23.167  0.00  0.00     0.181 C 
ENDBRANCH   7  13
ENDBRANCH   1   3
BRANCH   1  15
ATOM     15  O   UNL d   1      32.778  19.242 -23.148  0.00  0.00    -0.251 OA
BRANCH  15  16
ATOM     16  C   UNL d   1      33.079  20.011 -23.134  0.00  0.00     0.233 C 
BRANCH  16  17
ATOM     17  N   UNL d   1      32.973  20.484 -22.462  0.00  0.00    -0.150 N 
ATOM     18  N   UNL d   1      32.786  20.136 -21.736  0.00  0.00    -0.055 NA
ATOM     19  N   UNL d   1      32.681  20.609 -21.070  0.00  0.00    -0.130 NA
ATOM     20  C   UNL d   1      32.760  21.422 -21.124  0.00  0.00     0.109 A 
ATOM     21  C   UNL d   1      32.947  21.771 -21.851  0.00  0.00     0.077 A 
ATOM     22  C   UNL d   1      32.655  21.895 -20.459  0.00  0.00     0.021 A 
ATOM     23  C   UNL d   1      33.056  21.310 -22.529  0.00  0.00     0.285 A 
ATOM     24  C   UNL d   1      33.027  22.591 -21.908  0.00  0.00     0.006 A 
ATOM     25  O   UNL d   1      33.240  21.655 -23.249  0.00  0.00    -0.265 OA
ATOM     26  C   UNL d   1      32.922  23.063 -21.241  0.00  0.00     0.000 A 
ATOM     27  C   UNL d   1      32.734  22.712 -20.511  0.00  0.00     0.002 A 
ENDBRANCH  16  17
ENDBRANCH  15  16
ENDBRANCH   1  15
TORSDOF 7
ENDMDL
MODEL 2
REMARK VINA RESULT:      -1.0      1.464      5.417
REMARK  7 active torsions:
REMARK  status: ('A' for Active; 'I' for Inactive)
REMARK    1  A    between atoms: C_9  and  N_1 
REMARK    2  A    between atoms: O_18  and  C_6 
REMARK    3  A    between atoms: C_7  and  C_8 
REMARK    4  A    between atoms: C_8  and  O_12 
REMARK    5  A    between atoms: O_12  and  C_9 
REMARK    6  A    between atoms: O_20  and  C_10 
REMARK    7  A    between atoms: O_19  and  C_11 
ROOT
ATOM      1  C   UNL d   1      33.143  20.073 -21.644  0.00  0.00     0.302 C 
ATOM      2  O   UNL d   1      33.190  19.590 -20.975  0.00  0.00    -0.259 OA
ENDROOT
BRANCH   1   3
ATOM      3  C   UNL d   1      33.068  20.891 -21.560  0.00  0.00     0.068 A 
ATOM      4  C   UNL d   1      33.117  21.385 -22.241  0.00  0.00     0.032 A 
ATOM      5  C   UNL d   1      33.040  22.192 -22.139  0.00  0.00     0.118 A 
ATOM      6  C   UNL d   1      32.918  22.524 -21.396  0.00  0.00     0.138 A 
ATOM      7  C   UNL d   1      32.872  22.030 -20.737  0.00  0.00     0.118 A 
ATOM      8  C   UNL d   1      32.947  21.216 -20.823  0.00  0.00     0.032 A 
BRANCH   5   9
ATOM      9  O   UNL d   1      33.087  22.694 -22.810  0.00  0.00    -0.326 OA
ATOM     10  C   UNL d   1      33.211  22.364 -23.558  0.00  0.00     0.181 C 
ENDBRANCH   5   9
BRANCH   6  11
ATOM     11  O   UNL d   1      32.843  23.350 -21.316  0.00  0.00    -0.324 OA
ATOM     12  C   UNL d   1      32.113  23.702 -21.190  0.00  0.00     0.182 C 
ENDBRANCH   6  11
BRANCH   7  13
ATOM     13  O   UNL d   1      32.749  22.364 -19.981  0.00  0.00    -0.326 OA
ATOM     14  C   UNL d   1      32.820  21.908 -19.307  0.00  0.00     0.181 C 
ENDBRANCH   7  13
ENDBRANCH   1   3
BRANCH   1  15
ATOM     15  O   UNL d   1      33.171  19.738 -22.398  0.00  0.00    -0.251 OA
BRANCH  15  16
ATOM     16  C   UNL d   1      33.159  18.917 -22.484  0.00  0.00     0.233 C 
BRANCH  16  17
ATOM     17  N   UNL d   1      32.761  18.574 -23.125  0.00  0.00    -0.150 N 
ATOM     18  N   UNL d   1      32.608  19.021 -23.804  0.00  0.00    -0.055 NA
ATOM     19  N   UNL d   1      32.212  18.677 -24.440  0.00  0.00    -0.130 NA
ATOM     20  C   UNL d   1      31.969  17.895 -24.401  0.00  0.00     0.109 A 
ATOM     21  C   UNL d   1      32.122  17.448 -23.723  0.00  0.00     0.077 A 
ATOM     22  C   UNL d   1      31.574  17.553 -25.036  0.00  0.00     0.021 A 
ATOM     23  C   UNL d   1      32.519  17.779 -23.075  0.00  0.00     0.285 A 
ATOM     24  C   UNL d   1      31.878  16.661 -23.682  0.00  0.00     0.006 A 
ATOM     25  O   UNL d   1      32.670  17.336 -22.403  0.00  0.00    -0.265 OA
ATOM     26  C   UNL d   1      31.483  16.319 -24.318  0.00  0.00     0.000 A 
ATOM     27  C   UNL d   1      31.329  16.768 -25.000  0.00  0.00     0.002 A 
ENDBRANCH  16  17
ENDBRANCH  15  16
ENDBRANCH   1  15
TORSDOF 7
ENDMDL
MODEL 3
REMARK VINA RESULT:      -0.8      1.188      2.053
REMARK  7 active torsions:
REMARK  status: ('A' for Active; 'I' for Inactive)
REMARK    1  A    between atoms: C_9  and  N_1 
REMARK    2  A    between atoms: O_18  and  C_6 
REMARK    3  A    between atoms: C_7  and  C_8 
REMARK    4  A    between atoms: C_8  and  O_12 
REMARK    5  A    between atoms: O_12  and  C_9 
REMARK    6  A    between atoms: O_20  and  C_10 
REMARK    7  A    between atoms: O_19  and  C_11 
ROOT
ATOM      1  C   UNL d   1      33.111  18.755 -22.186  0.00  0.00     0.302 C 
ATOM      2  O   UNL d   1      33.190  18.345 -21.472  0.00  0.00    -0.259 OA
ENDROOT
BRANCH   1   3
ATOM      3  C   UNL d   1      32.903  18.349 -22.875  0.00  0.00     0.068 A 
ATOM      4  C   UNL d   1      32.559  17.582 -22.818  0.00  0.00     0.032 A 
ATOM      5  C   UNL d   1      32.360  17.197 -23.510  0.00  0.00     0.118 A 
ATOM      6  C   UNL d   1      32.487  17.538 -24.248  0.00  0.00     0.138 A 
ATOM      7  C   UNL d   1      32.825  18.289 -24.290  0.00  0.00     0.118 A 
ATOM      8  C   UNL d   1      33.031  18.691 -23.604  0.00  0.00     0.032 A 
BRANCH   5   9
ATOM      9  O   UNL d   1      32.016  16.431 -23.466  0.00  0.00    -0.326 OA
ATOM     10  C   UNL d   1      31.812  16.118 -22.728  0.00  0.00     0.181 C 
ENDBRANCH   5   9
BRANCH   6  11
ATOM     11  O   UNL d   1      32.276  17.126 -24.940  0.00  0.00    -0.324 OA
ATOM     12  C   UNL d   1      31.498  16.910 -25.089  0.00  0.00     0.182 C 
ENDBRANCH   6  11
BRANCH   7  13
ATOM     13  O   UNL d   1      32.956  18.639 -25.038  0.00  0.00    -0.326 OA
ATOM     14  C   UNL d   1      33.231  19.406 -25.097  0.00  0.00     0.181 C 
ENDBRANCH   7  13
ENDBRANCH   1   3
BRANCH   1  15
ATOM     15  O   UNL d   1      33.241  19.569 -22.212  0.00  0.00    -0.251 OA
BRANCH  15  16
ATOM     16  C   UNL d   1      33.158  20.021 -21.525  0.00  0.00     0.233 C 
BRANCH  16  17
ATOM     17  N   UNL d   1      32.990  20.831 -21.579  0.00  0.00    -0.150 N 
ATOM     18  N   UNL d   1      33.187  21.248 -22.265  0.00  0.00    -0.055 NA
ATOM     19  N   UNL d   1      33.019  22.053 -22.317  0.00  0.00    -0.130 NA
ATOM     20  C   UNL d   1      32.659  22.441 -21.692  0.00  0.00     0.109 A 
ATOM     21  C   UNL d   1      32.462  22.023 -21.005  0.00  0.00     0.077 A 
ATOM     22  C   UNL d   1      32.492  23.245 -21.744  0.00  0.00     0.021 A 
ATOM     23  C   UNL d   1      32.624  21.214 -20.938  0.00  0.00     0.285 A 
ATOM     24  C   UNL d   1      32.099  22.412 -20.374  0.00  0.00     0.006 A 
ATOM     25  O   UNL d   1      32.429  20.801 -20.258  0.00  0.00    -0.265 OA
ATOM     26  C   UNL d   1      31.932  23.216 -20.427  0.00  0.00     0.000 A 
ATOM     27  C   UNL d   1      32.130  23.636 -21.117  0.00  0.00     0.002 A 
ENDBRANCH  16  17
ENDBRANCH  15  16
ENDBRANCH   1  15
TORSDOF 7
ENDMDL
