MODEL 1
REMARK VINA RESULT:      15.1      0.000      0.000
REMARK  1 active torsions:
REMARK  status: ('A' for Active; 'I' for Inactive)
REMARK    1  A    between atoms: C_7  and  C_1 
ROOT
ATOM      1  C   UNL d   1      45.963 -16.975  44.031  0.00  0.00     0.103 A 
ATOM      2  C   UNL d   1      46.075 -17.567  44.615  0.00  0.00     0.067 A 
ATOM      3  C   UNL d   1      46.283 -18.551  43.576  0.00  0.00     0.062 A 
ATOM      4  C   UNL d   1      46.234 -18.351  44.381  0.00  0.00     0.200 A 
ATOM      5  O   UNL d   1      46.012 -17.173  43.224  0.00  0.00    -0.307 OA
ATOM      6  C   UNL d   1      46.171 -17.954  42.999  0.00  0.00     0.103 A 
ATOM      7  C   UNL d   1      46.441 -19.324  43.349  0.00  0.00     0.005 A 
ATOM      8  O   UNL d   1      46.344 -18.933  44.955  0.00  0.00    -0.286 OA
ATOM      9  C   UNL d   1      46.220 -18.154  42.195  0.00  0.00     0.025 A 
ATOM     10  C   UNL d   1      46.489 -19.518  42.549  0.00  0.00     0.000 A 
ATOM     11  C   UNL d   1      46.379 -18.936  41.976  0.00  0.00     0.002 A 
ATOM     12  C   UNL d   1      46.647 -20.294  42.325  0.00  0.00     0.000 C 
ENDROOT
BRANCH   1  13
ATOM     13  C   UNL d   1      45.806 -16.206  44.262  0.00  0.00     0.023 A 
ATOM     14  C   UNL d   1      45.139 -16.036  44.725  0.00  0.00     0.002 A 
ATOM     15  C   UNL d   1      44.988 -15.258  44.953  0.00  0.00     0.000 A 
ATOM     16  C   UNL d   1      45.497 -14.653  44.721  0.00  0.00     0.000 A 
ATOM     17  C   UNL d   1      46.159 -14.824  44.262  0.00  0.00     0.000 A 
ATOM     18  C   UNL d   1      45.341 -13.872  44.953  0.00  0.00     0.000 C 
ATOM     19  C   UNL d   1      46.311 -15.599  44.034  0.00  0.00     0.002 A 
ENDBRANCH   1  13
TORSDOF 1
ENDMDL
