MODEL 1
REMARK VINA RESULT:      -0.2      0.000      0.000
REMARK  3 active torsions:
REMARK  status: ('A' for Active; 'I' for Inactive)
REMARK    1  A    between atoms: N_10  and  C_3 
REMARK    2  A    between atoms: C_11  and  C_5 
REMARK    3  A    between atoms: C_13  and  N_10 
ROOT
ATOM      1  N   UNL d   1     -41.840-122.616 -52.206  0.00  0.00    -0.184 N 
ATOM      2  C   UNL d   1     -41.783-122.218 -52.942  0.00  0.00     0.168 A 
ATOM      3  C   UNL d   1     -41.683-122.205 -51.505  0.00  0.00     0.217 A 
ATOM      4  N   UNL d   1     -42.204-123.811 -52.879  0.00  0.00    -0.162 NA
ATOM      5  C   UNL d   1     -41.936-122.618 -53.626  0.00  0.00     0.055 A 
ATOM      6  N   UNL d   1     -41.572-121.423 -52.952  0.00  0.00    -0.227 NA
ATOM      7  C   UNL d   1     -41.476-121.420 -51.531  0.00  0.00     0.066 A 
ATOM      8  C   UNL d   1     -42.148-123.419 -53.604  0.00  0.00     0.104 A 
ATOM      9  C   UNL d   1     -41.417-121.015 -52.263  0.00  0.00     0.087 A 
ATOM     10  C   UNL d   1     -41.294-120.882 -50.952  0.00  0.00     0.006 A 
ATOM     11  C   UNL d   1     -42.301-123.817 -54.302  0.00  0.00     0.023 C 
ATOM     12  C   UNL d   1     -41.200-120.238 -52.116  0.00  0.00     0.019 A 
ATOM     13  C   UNL d   1     -41.124-120.159 -51.293  0.00  0.00     0.002 A 
ENDROOT
BRANCH   3  14
ATOM     14  N   UNL d   1     -41.740-122.603 -50.760  0.00  0.00    -0.383 NA
BRANCH  14  15
ATOM     15  C   UNL d   1     -41.798-123.003 -50.019  0.00  0.00     0.134 A 
ATOM     16  C   UNL d   1     -42.530-122.991 -49.599  0.00  0.00     0.032 A 
ATOM     17  C   UNL d   1     -42.596-123.386 -48.862  0.00  0.00     0.003 A 
ATOM     18  C   UNL d   1     -41.927-123.800 -48.534  0.00  0.00     0.000 A 
ATOM     19  C   UNL d   1     -41.203-123.804 -48.964  0.00  0.00     0.003 A 
ATOM     20  C   UNL d   1     -41.136-123.407 -49.705  0.00  0.00     0.032 A 
ENDBRANCH  14  15
ENDBRANCH   3  14
BRANCH   5  21
ATOM     21  C   UNL d   1     -41.880-122.229 -54.347  0.00  0.00     0.004 A 
ATOM     22  C   UNL d   1     -41.182-122.257 -54.778  0.00  0.00     0.000 A 
ATOM     23  C   UNL d   1     -41.123-121.870 -55.497  0.00  0.00     0.000 A 
ATOM     24  C   UNL d   1     -41.769-121.449 -55.790  0.00  0.00     0.000 A 
ATOM     25  C   UNL d   1     -42.461-121.416 -55.369  0.00  0.00     0.000 A 
ATOM     26  C   UNL d   1     -42.517-121.810 -54.640  0.00  0.00     0.000 A 
ENDBRANCH   5  21
TORSDOF 3
ENDMDL
