MODEL 1
REMARK VINA RESULT:      -9.4      0.000      0.000
REMARK  3 active torsions:
REMARK  status: ('A' for Active; 'I' for Inactive)
REMARK    1  A    between atoms: C_11  and  N_1 
REMARK    2  A    between atoms: C_3  and  C_6 
REMARK    3  A    between atoms: C_6  and  N_5 
ROOT
ATOM      1  N   UNL d   1      50.171  34.392  52.284  0.00  0.00    -0.301 N 
ATOM      2  N   UNL d   1      51.705  34.189  52.892  0.00  0.00    -0.300 N 
ATOM      3  C   UNL d   1      50.837  34.418  51.773  0.00  0.00     0.100 A 
ATOM      4  C   UNL d   1      50.289  34.265  53.091  0.00  0.00     0.100 A 
ATOM      5  C   UNL d   1      51.039  34.163  53.403  0.00  0.00     0.100 A 
ATOM      6  C   UNL d   1      51.605  34.316  52.081  0.00  0.00     0.100 A 
ENDROOT
BRANCH   2   7
ATOM      7  C   UNL d   1      52.472  34.086  53.200  0.00  0.00     0.080 C 
BRANCH   7   8
ATOM      8  C   UNL d   1      52.763  33.327  53.341  0.00  0.00     0.019 A 
ATOM      9  C   UNL d   1      53.336  33.204  53.943  0.00  0.00     0.022 A 
ATOM     10  C   UNL d   1      53.626  32.446  54.085  0.00  0.00     0.120 A 
ATOM     11  C   UNL d   1      53.600  33.842  54.385  0.00  0.00     0.003 A 
ATOM     12  N   UNL d   1      54.185  32.316  54.670  0.00  0.00    -0.241 NA
ATOM     13  C   UNL d   1      53.349  31.800  53.626  0.00  0.00     0.213 A 
ATOM     14  C   UNL d   1      54.463  32.962  55.129  0.00  0.00     0.099 A 
ATOM     15  C   UNL d   1      54.173  33.720  54.987  0.00  0.00     0.021 A 
ATOM     16  C   UNL d   1      52.781  31.925  53.030  0.00  0.00     0.044 A 
ATOM     17  O   UNL d   1      53.639  31.042  53.768  0.00  0.00    -0.285 OA
ATOM     18  C   UNL d   1      52.490  32.683  52.888  0.00  0.00     0.005 A 
ENDBRANCH   7   8
ENDBRANCH   2   7
BRANCH   1  19
ATOM     19  C   UNL d   1      49.515  34.515  51.783  0.00  0.00     0.064 A 
ATOM     20  C   UNL d   1      49.349  34.271  51.023  0.00  0.00     0.018 A 
ATOM     21  C   UNL d   1      48.610  34.503  50.672  0.00  0.00     0.002 A 
ATOM     22  C   UNL d   1      48.084  34.952  51.075  0.00  0.00     0.000 A 
ATOM     23  C   UNL d   1      48.263  35.197  51.850  0.00  0.00     0.002 A 
ATOM     24  C   UNL d   1      48.974  34.978  52.199  0.00  0.00     0.018 A 
ENDBRANCH   1  19
TORSDOF 3
ENDMDL
MODEL 2
REMARK VINA RESULT:      -9.0      1.081      1.743
REMARK  3 active torsions:
REMARK  status: ('A' for Active; 'I' for Inactive)
REMARK    1  A    between atoms: C_11  and  N_1 
REMARK    2  A    between atoms: C_3  and  C_6 
REMARK    3  A    between atoms: C_6  and  N_5 
ROOT
ATOM      1  N   UNL d   1      50.040  34.450  52.013  0.00  0.00    -0.301 N 
ATOM      2  N   UNL d   1      51.376  33.766  52.727  0.00  0.00    -0.300 N 
ATOM      3  C   UNL d   1      49.996  34.151  52.796  0.00  0.00     0.100 A 
ATOM      4  C   UNL d   1      50.755  34.400  51.603  0.00  0.00     0.100 A 
ATOM      5  C   UNL d   1      51.420  34.065  51.944  0.00  0.00     0.100 A 
ATOM      6  C   UNL d   1      50.668  33.809  53.152  0.00  0.00     0.100 A 
ENDROOT
BRANCH   2   7
ATOM      7  C   UNL d   1      52.047  33.424  53.082  0.00  0.00     0.080 C 
BRANCH   7   8
ATOM      8  C   UNL d   1      52.522  33.871  53.588  0.00  0.00     0.019 A 
ATOM      9  C   UNL d   1      53.113  33.494  54.049  0.00  0.00     0.022 A 
ATOM     10  C   UNL d   1      53.587  33.941  54.554  0.00  0.00     0.120 A 
ATOM     11  C   UNL d   1      53.212  32.682  53.992  0.00  0.00     0.003 A 
ATOM     12  N   UNL d   1      54.166  33.582  55.009  0.00  0.00    -0.241 NA
ATOM     13  C   UNL d   1      53.476  34.771  54.604  0.00  0.00     0.213 A 
ATOM     14  C   UNL d   1      54.277  32.751  54.959  0.00  0.00     0.099 A 
ATOM     15  C   UNL d   1      53.803  32.304  54.454  0.00  0.00     0.021 A 
ATOM     16  C   UNL d   1      52.889  35.143  54.145  0.00  0.00     0.044 A 
ATOM     17  O   UNL d   1      53.950  35.218  55.109  0.00  0.00    -0.285 OA
ATOM     18  C   UNL d   1      52.415  34.696  53.640  0.00  0.00     0.005 A 
ENDBRANCH   7   8
ENDBRANCH   2   7
BRANCH   1  19
ATOM     19  C   UNL d   1      49.274  34.743  51.855  0.00  0.00     0.064 A 
ATOM     20  C   UNL d   1      48.751  35.186  52.297  0.00  0.00     0.018 A 
ATOM     21  C   UNL d   1      47.999  35.390  51.955  0.00  0.00     0.002 A 
ATOM     22  C   UNL d   1      47.803  35.154  51.216  0.00  0.00     0.000 A 
ATOM     23  C   UNL d   1      48.343  34.702  50.773  0.00  0.00     0.002 A 
ATOM     24  C   UNL d   1      49.073  34.499  51.093  0.00  0.00     0.018 A 
ENDBRANCH   1  19
TORSDOF 3
ENDMDL
MODEL 3
REMARK VINA RESULT:      -8.7      1.729      5.213
REMARK  3 active torsions:
REMARK  status: ('A' for Active; 'I' for Inactive)
REMARK    1  A    between atoms: C_11  and  N_1 
REMARK    2  A    between atoms: C_3  and  C_6 
REMARK    3  A    between atoms: C_6  and  N_5 
ROOT
ATOM      1  N   UNL d   1      52.589  33.743  53.495  0.00  0.00    -0.301 N 
ATOM      2  N   UNL d   1      51.205  33.947  52.598  0.00  0.00    -0.300 N 
ATOM      3  C   UNL d   1      51.951  33.202  53.569  0.00  0.00     0.100 A 
ATOM      4  C   UNL d   1      52.519  34.377  52.971  0.00  0.00     0.100 A 
ATOM      5  C   UNL d   1      51.843  34.489  52.523  0.00  0.00     0.100 A 
ATOM      6  C   UNL d   1      51.259  33.307  53.118  0.00  0.00     0.100 A 
ENDROOT
BRANCH   2   7
ATOM      7  C   UNL d   1      50.512  34.053  52.147  0.00  0.00     0.080 C 
BRANCH   7   8
ATOM      8  C   UNL d   1      49.901  34.528  52.432  0.00  0.00     0.019 A 
ATOM      9  C   UNL d   1      49.251  34.716  51.935  0.00  0.00     0.022 A 
ATOM     10  C   UNL d   1      48.640  35.190  52.220  0.00  0.00     0.120 A 
ATOM     11  C   UNL d   1      49.231  34.424  51.169  0.00  0.00     0.003 A 
ATOM     12  N   UNL d   1      48.001  35.379  51.743  0.00  0.00    -0.241 NA
ATOM     13  C   UNL d   1      48.671  35.483  53.006  0.00  0.00     0.213 A 
ATOM     14  C   UNL d   1      47.970  35.086  50.956  0.00  0.00     0.099 A 
ATOM     15  C   UNL d   1      48.581  34.611  50.672  0.00  0.00     0.021 A 
ATOM     16  C   UNL d   1      49.318  35.295  53.496  0.00  0.00     0.044 A 
ATOM     17  O   UNL d   1      48.060  35.958  53.290  0.00  0.00    -0.285 OA
ATOM     18  C   UNL d   1      49.928  34.821  53.212  0.00  0.00     0.005 A 
ENDBRANCH   7   8
ENDBRANCH   2   7
BRANCH   1  19
ATOM     19  C   UNL d   1      53.170  33.459  54.023  0.00  0.00     0.064 A 
ATOM     20  C   UNL d   1      53.469  32.714  54.165  0.00  0.00     0.018 A 
ATOM     21  C   UNL d   1      54.072  32.623  54.758  0.00  0.00     0.002 A 
ATOM     22  C   UNL d   1      54.345  33.252  55.172  0.00  0.00     0.000 A 
ATOM     23  C   UNL d   1      54.033  34.008  55.019  0.00  0.00     0.002 A 
ATOM     24  C   UNL d   1      53.450  34.108  54.448  0.00  0.00     0.018 A 
ENDBRANCH   1  19
TORSDOF 3
ENDMDL
MODEL 4
REMARK VINA RESULT:      -8.6      1.805      5.101
REMARK  3 active torsions:
REMARK  status: ('A' for Active; 'I' for Inactive)
REMARK    1  A    between atoms: C_11  and  N_1 
REMARK    2  A    between atoms: C_3  and  C_6 
REMARK    3  A    between atoms: C_6  and  N_5 
ROOT
ATOM      1  N   UNL d   1      52.127  33.391  53.137  0.00  0.00    -0.301 N 
ATOM      2  N   UNL d   1      50.771  34.353  53.160  0.00  0.00    -0.300 N 
ATOM      3  C   UNL d   1      51.387  33.076  53.380  0.00  0.00     0.100 A 
ATOM      4  C   UNL d   1      52.172  34.184  52.911  0.00  0.00     0.100 A 
ATOM      5  C   UNL d   1      51.511  34.668  52.918  0.00  0.00     0.100 A 
ATOM      6  C   UNL d   1      50.709  33.561  53.390  0.00  0.00     0.100 A 
ENDROOT
BRANCH   2   7
ATOM      7  C   UNL d   1      50.094  34.837  53.170  0.00  0.00     0.080 C 
BRANCH   7   8
ATOM      8  C   UNL d   1      49.553  34.806  52.547  0.00  0.00     0.019 A 
ATOM      9  C   UNL d   1      48.843  35.253  52.587  0.00  0.00     0.022 A 
ATOM     10  C   UNL d   1      48.304  35.222  51.965  0.00  0.00     0.120 A 
ATOM     11  C   UNL d   1      48.695  35.716  53.247  0.00  0.00     0.003 A 
ATOM     12  N   UNL d   1      47.608  35.653  51.994  0.00  0.00    -0.241 NA
ATOM     13  C   UNL d   1      48.466  34.744  51.294  0.00  0.00     0.213 A 
ATOM     14  C   UNL d   1      47.445  36.131  52.665  0.00  0.00     0.099 A 
ATOM     15  C   UNL d   1      47.984  36.162  53.287  0.00  0.00     0.021 A 
ATOM     16  C   UNL d   1      49.172  34.302  51.258  0.00  0.00     0.044 A 
ATOM     17  O   UNL d   1      47.927  34.713  50.672  0.00  0.00    -0.285 OA
ATOM     18  C   UNL d   1      49.712  34.333  51.880  0.00  0.00     0.005 A 
ENDBRANCH   7   8
ENDBRANCH   2   7
BRANCH   1  19
ATOM     19  C   UNL d   1      52.660  32.751  53.200  0.00  0.00     0.064 A 
ATOM     20  C   UNL d   1      52.630  31.982  52.934  0.00  0.00     0.018 A 
ATOM     21  C   UNL d   1      53.287  31.466  53.101  0.00  0.00     0.002 A 
ATOM     22  C   UNL d   1      53.923  31.727  53.511  0.00  0.00     0.000 A 
ATOM     23  C   UNL d   1      53.943  32.514  53.779  0.00  0.00     0.002 A 
ATOM     24  C   UNL d   1      53.314  33.021  53.623  0.00  0.00     0.018 A 
ENDBRANCH   1  19
TORSDOF 3
ENDMDL
MODEL 5
REMARK VINA RESULT:      -7.7      2.100      4.891
REMARK  3 active torsions:
REMARK  status: ('A' for Active; 'I' for Inactive)
REMARK    1  A    between atoms: C_11  and  N_1 
REMARK    2  A    between atoms: C_3  and  C_6 
REMARK    3  A    between atoms: C_6  and  N_5 
ROOT
ATOM      1  N   UNL d   1      53.192  30.517  53.808  0.00  0.00    -0.301 N 
ATOM      2  N   UNL d   1      53.257  32.091  53.279  0.00  0.00    -0.300 N 
ATOM      3  C   UNL d   1      53.498  31.120  54.306  0.00  0.00     0.100 A 
ATOM      4  C   UNL d   1      52.924  30.716  53.053  0.00  0.00     0.100 A 
ATOM      5  C   UNL d   1      52.951  31.487  52.781  0.00  0.00     0.100 A 
ATOM      6  C   UNL d   1      53.529  31.908  54.037  0.00  0.00     0.100 A 
ENDROOT
BRANCH   2   7
ATOM      7  C   UNL d   1      53.287  32.879  53.010  0.00  0.00     0.080 C 
BRANCH   7   8
ATOM      8  C   UNL d   1      52.618  33.359  53.059  0.00  0.00     0.019 A 
ATOM      9  C   UNL d   1      52.671  34.113  53.425  0.00  0.00     0.022 A 
ATOM     10  C   UNL d   1      52.003  34.593  53.474  0.00  0.00     0.120 A 
ATOM     11  C   UNL d   1      53.389  34.364  53.730  0.00  0.00     0.003 A 
ATOM     12  N   UNL d   1      52.044  35.330  53.829  0.00  0.00    -0.241 NA
ATOM     13  C   UNL d   1      51.273  34.326  53.158  0.00  0.00     0.213 A 
ATOM     14  C   UNL d   1      52.775  35.598  54.145  0.00  0.00     0.099 A 
ATOM     15  C   UNL d   1      53.443  35.118  54.096  0.00  0.00     0.021 A 
ATOM     16  C   UNL d   1      51.224  33.577  52.796  0.00  0.00     0.044 A 
ATOM     17  O   UNL d   1      50.605  34.806  53.208  0.00  0.00    -0.285 OA
ATOM     18  C   UNL d   1      51.892  33.097  52.746  0.00  0.00     0.005 A 
ENDBRANCH   7   8
ENDBRANCH   2   7
BRANCH   1  19
ATOM     19  C   UNL d   1      53.252  29.818  54.262  0.00  0.00     0.064 A 
ATOM     20  C   UNL d   1      53.120  29.661  55.051  0.00  0.00     0.018 A 
ATOM     21  C   UNL d   1      53.237  28.867  55.335  0.00  0.00     0.002 A 
ATOM     22  C   UNL d   1      53.471  28.282  54.840  0.00  0.00     0.000 A 
ATOM     23  C   UNL d   1      53.603  28.453  54.037  0.00  0.00     0.002 A 
ATOM     24  C   UNL d   1      53.493  29.217  53.752  0.00  0.00     0.018 A 
ENDBRANCH   1  19
TORSDOF 3
ENDMDL
MODEL 6
REMARK VINA RESULT:      -6.5      9.786     10.799
REMARK  3 active torsions:
REMARK  status: ('A' for Active; 'I' for Inactive)
REMARK    1  A    between atoms: C_11  and  N_1 
REMARK    2  A    between atoms: C_3  and  C_6 
REMARK    3  A    between atoms: C_6  and  N_5 
ROOT
ATOM      1  N   UNL d   1      45.001  26.380  57.927  0.00  0.00    -0.301 N 
ATOM      2  N   UNL d   1      45.034  28.040  58.004  0.00  0.00    -0.300 N 
ATOM      3  C   UNL d   1      44.349  26.803  58.243  0.00  0.00     0.100 A 
ATOM      4  C   UNL d   1      45.659  26.799  57.656  0.00  0.00     0.100 A 
ATOM      5  C   UNL d   1      45.687  27.616  57.688  0.00  0.00     0.100 A 
ATOM      6  C   UNL d   1      44.368  27.636  58.280  0.00  0.00     0.100 A 
ENDROOT
BRANCH   2   7
ATOM      7  C   UNL d   1      45.054  28.872  58.041  0.00  0.00     0.080 C 
BRANCH   7   8
ATOM      8  C   UNL d   1      44.870  29.320  57.373  0.00  0.00     0.019 A 
ATOM      9  C   UNL d   1      44.778  30.152  57.441  0.00  0.00     0.022 A 
ATOM     10  C   UNL d   1      44.594  30.600  56.774  0.00  0.00     0.120 A 
ATOM     11  C   UNL d   1      44.873  30.510  58.172  0.00  0.00     0.003 A 
ATOM     12  N   UNL d   1      44.502  31.412  56.829  0.00  0.00    -0.241 NA
ATOM     13  C   UNL d   1      44.499  30.222  56.030  0.00  0.00     0.213 A 
ATOM     14  C   UNL d   1      44.597  31.791  57.573  0.00  0.00     0.099 A 
ATOM     15  C   UNL d   1      44.781  31.343  58.240  0.00  0.00     0.021 A 
ATOM     16  C   UNL d   1      44.591  29.397  55.967  0.00  0.00     0.044 A 
ATOM     17  O   UNL d   1      44.315  30.670  55.363  0.00  0.00    -0.285 OA
ATOM     18  C   UNL d   1      44.775  28.949  56.633  0.00  0.00     0.005 A 
ENDBRANCH   7   8
ENDBRANCH   2   7
BRANCH   1  19
ATOM     19  C   UNL d   1      44.779  25.577  57.983  0.00  0.00     0.064 A 
ATOM     20  C   UNL d   1      44.676  25.076  58.618  0.00  0.00     0.018 A 
ATOM     21  C   UNL d   1      44.441  24.272  58.470  0.00  0.00     0.002 A 
ATOM     22  C   UNL d   1      44.322  24.007  57.723  0.00  0.00     0.000 A 
ATOM     23  C   UNL d   1      44.430  24.526  57.082  0.00  0.00     0.002 A 
ATOM     24  C   UNL d   1      44.657  25.305  57.214  0.00  0.00     0.018 A 
ENDBRANCH   1  19
TORSDOF 3
ENDMDL
