MODEL 1
REMARK VINA RESULT:      40.8      0.000      0.000
REMARK  6 active torsions:
REMARK  status: ('A' for Active; 'I' for Inactive)
REMARK    1  A    between atoms: C_9  and  C_3 
REMARK    2  A    between atoms: C_8  and  C_5 
REMARK    3  A    between atoms: O_19  and  C_9 
REMARK    4  A    between atoms: C_22  and  O_19 
REMARK    5  A    between atoms: O_21  and  C_23 
REMARK    6  A    between atoms: C_23  and  C_22 
ROOT
ATOM      1  N   UNL d   1      14.273  12.994  -1.736  0.00  0.00    -0.254 N 
ATOM      2  C   UNL d   1      14.648  13.396  -1.117  0.00  0.00     0.182 A 
ATOM      3  C   UNL d   1      14.190  14.213  -2.475  0.00  0.00     0.098 A 
ATOM      4  N   UNL d   1      14.791  14.205  -1.182  0.00  0.00    -0.222 NA
ATOM      5  C   UNL d   1      14.043  13.399  -2.416  0.00  0.00     0.081 A 
ATOM      6  C   UNL d   1      14.564  14.618  -1.859  0.00  0.00     0.090 A 
ATOM      7  C   UNL d   1      14.130  12.184  -1.671  0.00  0.00     0.267 A 
ATOM      8  S   UNL d   1      14.878  12.994  -0.439  0.00  0.00    -0.049 SA
ATOM      9  C   UNL d   1      14.360  11.779  -0.990  0.00  0.00     0.068 A 
ATOM     10  O   UNL d   1      13.755  11.780  -2.287  0.00  0.00    -0.267 OA
ATOM     11  C   UNL d   1      14.735  12.184  -0.374  0.00  0.00     0.043 A 
ATOM     12  C   UNL d   1      14.710  15.427  -1.918  0.00  0.00     0.021 C 
ENDROOT
BRANCH   3  13
ATOM     13  C   UNL d   1      13.961  14.620  -3.153  0.00  0.00     0.303 C 
ATOM     14  O   UNL d   1      13.160  14.730  -3.325  0.00  0.00    -0.259 OA
BRANCH  13  15
ATOM     15  O   UNL d   1      14.532  14.923  -3.666  0.00  0.00    -0.269 OA
BRANCH  15  16
ATOM     16  C   UNL d   1      14.407  15.641  -4.059  0.00  0.00     0.152 C 
BRANCH  16  17
ATOM     17  C   UNL d   1      15.005  15.972  -4.525  0.00  0.00     0.143 C 
BRANCH  17  18
ATOM     18  O   UNL d   1      15.334  16.703  -4.315  0.00  0.00    -0.324 OA
ATOM     19  C   UNL d   1      15.299  17.339  -4.839  0.00  0.00     0.182 C 
ENDBRANCH  17  18
ENDBRANCH  16  17
ENDBRANCH  15  16
ENDBRANCH  13  15
ENDBRANCH   3  13
BRANCH   5  20
ATOM     20  C   UNL d   1      13.668  12.995  -3.032  0.00  0.00     0.046 A 
ATOM     21  S   UNL d   1      12.874  12.924  -3.242  0.00  0.00    -0.085 SA
ATOM     22  C   UNL d   1      12.833  12.446  -3.913  0.00  0.00     0.035 A 
ATOM     23  C   UNL d   1      13.600  12.224  -4.115  0.00  0.00     0.007 A 
ATOM     24  C   UNL d   1      14.115  12.561  -3.574  0.00  0.00     0.009 A 
ENDBRANCH   5  20
TORSDOF 6
ENDMDL
MODEL 2
REMARK VINA RESULT:      41.0      1.485      2.756
REMARK  6 active torsions:
REMARK  status: ('A' for Active; 'I' for Inactive)
REMARK    1  A    between atoms: C_9  and  C_3 
REMARK    2  A    between atoms: C_8  and  C_5 
REMARK    3  A    between atoms: O_19  and  C_9 
REMARK    4  A    between atoms: C_22  and  O_19 
REMARK    5  A    between atoms: O_21  and  C_23 
REMARK    6  A    between atoms: C_23  and  C_22 
ROOT
ATOM      1  N   UNL d   1      14.588  13.007  -1.348  0.00  0.00    -0.254 N 
ATOM      2  C   UNL d   1      14.390  12.215  -1.213  0.00  0.00     0.182 A 
ATOM      3  C   UNL d   1      13.814  12.994  -2.548  0.00  0.00     0.098 A 
ATOM      4  N   UNL d   1      13.904  11.817  -1.748  0.00  0.00    -0.222 NA
ATOM      5  C   UNL d   1      14.302  13.400  -2.014  0.00  0.00     0.081 A 
ATOM      6  C   UNL d   1      13.614  12.203  -2.417  0.00  0.00     0.090 A 
ATOM      7  C   UNL d   1      15.073  13.405  -0.812  0.00  0.00     0.267 A 
ATOM      8  S   UNL d   1      14.673  11.822  -0.549  0.00  0.00    -0.049 SA
ATOM      9  C   UNL d   1      15.359  13.012  -0.146  0.00  0.00     0.068 A 
ATOM     10  O   UNL d   1      15.273  14.196  -0.944  0.00  0.00    -0.267 OA
ATOM     11  C   UNL d   1      15.159  12.220  -0.014  0.00  0.00     0.043 A 
ATOM     12  C   UNL d   1      13.130  11.800  -2.948  0.00  0.00     0.021 C 
ENDROOT
BRANCH   3  13
ATOM     13  C   UNL d   1      13.528  13.383  -3.214  0.00  0.00     0.303 C 
ATOM     14  O   UNL d   1      13.128  14.104  -3.139  0.00  0.00    -0.259 OA
BRANCH  13  15
ATOM     15  O   UNL d   1      13.637  13.056  -3.964  0.00  0.00    -0.269 OA
BRANCH  15  16
ATOM     16  C   UNL d   1      13.575  13.527  -4.642  0.00  0.00     0.152 C 
BRANCH  16  17
ATOM     17  C   UNL d   1      13.491  13.177  -5.387  0.00  0.00     0.143 C 
BRANCH  17  18
ATOM     18  O   UNL d   1      13.348  12.362  -5.446  0.00  0.00    -0.324 OA
ATOM     19  C   UNL d   1      13.526  11.961  -6.144  0.00  0.00     0.182 C 
ENDBRANCH  17  18
ENDBRANCH  16  17
ENDBRANCH  15  16
ENDBRANCH  13  15
ENDBRANCH   3  13
BRANCH   5  20
ATOM     20  C   UNL d   1      14.502  14.191  -2.146  0.00  0.00     0.046 A 
ATOM     21  S   UNL d   1      14.603  14.626  -2.840  0.00  0.00    -0.085 SA
ATOM     22  C   UNL d   1      14.803  15.397  -2.626  0.00  0.00     0.035 A 
ATOM     23  C   UNL d   1      14.823  15.436  -1.803  0.00  0.00     0.007 A 
ATOM     24  C   UNL d   1      14.638  14.695  -1.507  0.00  0.00     0.009 A 
ENDBRANCH   5  20
TORSDOF 6
ENDMDL
