MODEL 1
REMARK VINA RESULT:      -0.7      0.000      0.000
REMARK  5 active torsions:
REMARK  status: ('A' for Active; 'I' for Inactive)
REMARK    1  A    between atoms: O_8  and  C_7 
REMARK    2  A    between atoms: C_10  and  O_8 
REMARK    3  A    between atoms: C_9  and  C_10 
REMARK    4  A    between atoms: O_17  and  C_9 
REMARK    5  A    between atoms: C_21  and  O_17 
ROOT
ATOM      1  C   UNL d   1      58.198  -9.818  31.238  0.00  0.00     0.009 A 
ATOM      2  C   UNL d   1      58.925  -9.818  30.861  0.00  0.00     0.046 A 
ATOM      3  C   UNL d   1      57.502  -9.818  30.792  0.00  0.00     0.064 A 
ATOM      4  C   UNL d   1      57.542  -9.818  29.976  0.00  0.00     0.300 A 
ATOM      5  C   UNL d   1      58.965  -9.818  30.045  0.00  0.00     0.105 A 
ATOM      6  O   UNL d   1      58.278  -9.818  29.599  0.00  0.00    -0.273 OA
ATOM      7  C   UNL d   1      59.616  -9.818  31.316  0.00  0.00     0.102 A 
ATOM      8  C   UNL d   1      59.709  -9.818  29.669  0.00  0.00     0.025 A 
ATOM      9  C   UNL d   1      60.352  -9.818  30.931  0.00  0.00     0.025 A 
ATOM     10  O   UNL d   1      56.838  -9.818  29.520  0.00  0.00    -0.259 OA
ATOM     11  C   UNL d   1      60.392  -9.818  30.115  0.00  0.00     0.004 A 
ATOM     12  C   UNL d   1      58.158  -9.818  32.062  0.00  0.00     0.000 A 
ATOM     13  C   UNL d   1      56.770  -9.818  31.169  0.00  0.00     0.005 A 
ATOM     14  C   UNL d   1      61.132  -9.818  29.739  0.00  0.00     0.000 C 
ATOM     15  C   UNL d   1      57.425  -9.818  32.452  0.00  0.00     0.000 A 
ATOM     16  C   UNL d   1      56.729  -9.818  31.993  0.00  0.00     0.000 A 
ENDROOT
BRANCH   7  17
ATOM     17  O   UNL d   1      59.576  -9.818  32.132  0.00  0.00    -0.302 OA
BRANCH  17  18
ATOM     18  C   UNL d   1      60.259  -9.681  32.578  0.00  0.00     0.163 C 
ATOM     19  C   UNL d   1      61.008  -9.786  32.229  0.00  0.00     0.032 C 
BRANCH  18  20
ATOM     20  C   UNL d   1      60.196  -9.443  33.365  0.00  0.00     0.323 C 
ATOM     21  O   UNL d   1      59.670  -9.818  33.865  0.00  0.00    -0.257 OA
BRANCH  20  22
ATOM     22  O   UNL d   1      60.670  -8.823  33.634  0.00  0.00    -0.270 OA
BRANCH  22  23
ATOM     23  C   UNL d   1      60.906  -8.805  34.434  0.00  0.00     0.126 C 
ATOM     24  C   UNL d   1      60.951  -8.096  34.827  0.00  0.00     0.029 C 
ENDBRANCH  22  23
ENDBRANCH  20  22
ENDBRANCH  18  20
ENDBRANCH  17  18
ENDBRANCH   7  17
TORSDOF 5
ENDMDL
MODEL 2
REMARK VINA RESULT:       1.3      9.814     11.150
REMARK  5 active torsions:
REMARK  status: ('A' for Active; 'I' for Inactive)
REMARK    1  A    between atoms: O_8  and  C_7 
REMARK    2  A    between atoms: C_10  and  O_8 
REMARK    3  A    between atoms: C_9  and  C_10 
REMARK    4  A    between atoms: O_17  and  C_9 
REMARK    5  A    between atoms: C_21  and  O_17 
ROOT
ATOM      1  C   UNL d   1      57.531   0.645  34.036  0.00  0.00     0.009 A 
ATOM      2  C   UNL d   1      56.731   0.628  33.860  0.00  0.00     0.046 A 
ATOM      3  C   UNL d   1      57.779   0.664  34.825  0.00  0.00     0.064 A 
ATOM      4  C   UNL d   1      57.225   0.664  35.426  0.00  0.00     0.300 A 
ATOM      5  C   UNL d   1      56.178   0.628  34.461  0.00  0.00     0.105 A 
ATOM      6  O   UNL d   1      56.419   0.645  35.243  0.00  0.00    -0.273 OA
ATOM      7  C   UNL d   1      56.492   0.610  33.069  0.00  0.00     0.102 A 
ATOM      8  C   UNL d   1      55.365   0.609  34.273  0.00  0.00     0.025 A 
ATOM      9  C   UNL d   1      55.681   0.591  32.892  0.00  0.00     0.025 A 
ATOM     10  O   UNL d   1      57.473   0.682  36.227  0.00  0.00    -0.259 OA
ATOM     11  C   UNL d   1      55.127   0.591  33.493  0.00  0.00     0.004 A 
ATOM     12  C   UNL d   1      58.090   0.645  33.430  0.00  0.00     0.000 A 
ATOM     13  C   UNL d   1      58.582   0.682  35.005  0.00  0.00     0.005 A 
ATOM     14  C   UNL d   1      54.318   0.573  33.308  0.00  0.00     0.000 C 
ATOM     15  C   UNL d   1      58.902   0.664  33.600  0.00  0.00     0.000 A 
ATOM     16  C   UNL d   1      59.141   0.682  34.398  0.00  0.00     0.000 A 
ENDROOT
BRANCH   7  17
ATOM     17  O   UNL d   1      57.046   0.610  32.468  0.00  0.00    -0.302 OA
BRANCH  17  18
ATOM     18  C   UNL d   1      56.983   0.065  31.848  0.00  0.00     0.163 C 
ATOM     19  C   UNL d   1      56.675  -0.695  31.997  0.00  0.00     0.032 C 
BRANCH  18  20
ATOM     20  C   UNL d   1      57.224   0.275  31.089  0.00  0.00     0.323 C 
ATOM     21  O   UNL d   1      56.712   0.673  30.592  0.00  0.00    -0.257 OA
BRANCH  20  22
ATOM     22  O   UNL d   1      57.987   0.078  30.843  0.00  0.00    -0.270 OA
BRANCH  22  23
ATOM     23  C   UNL d   1      58.094  -0.312  30.113  0.00  0.00     0.126 C 
ATOM     24  C   UNL d   1      58.797  -0.236  29.713  0.00  0.00     0.029 C 
ENDBRANCH  22  23
ENDBRANCH  20  22
ENDBRANCH  18  20
ENDBRANCH  17  18
ENDBRANCH   7  17
TORSDOF 5
ENDMDL
MODEL 3
REMARK VINA RESULT:       1.5      9.224     10.132
REMARK  5 active torsions:
REMARK  status: ('A' for Active; 'I' for Inactive)
REMARK    1  A    between atoms: O_8  and  C_7 
REMARK    2  A    between atoms: C_10  and  O_8 
REMARK    3  A    between atoms: C_9  and  C_10 
REMARK    4  A    between atoms: O_17  and  C_9 
REMARK    5  A    between atoms: C_21  and  O_17 
ROOT
ATOM      1  C   UNL d   1      56.656  -0.111  32.875  0.00  0.00     0.009 A 
ATOM      2  C   UNL d   1      57.442   0.088  32.759  0.00  0.00     0.046 A 
ATOM      3  C   UNL d   1      56.281   0.087  33.585  0.00  0.00     0.064 A 
ATOM      4  C   UNL d   1      56.696   0.480  34.169  0.00  0.00     0.300 A 
ATOM      5  C   UNL d   1      57.857   0.481  33.343  0.00  0.00     0.105 A 
ATOM      6  O   UNL d   1      57.489   0.679  34.048  0.00  0.00    -0.273 OA
ATOM      7  C   UNL d   1      57.809  -0.113  32.046  0.00  0.00     0.102 A 
ATOM      8  C   UNL d   1      58.657   0.680  33.218  0.00  0.00     0.025 A 
ATOM      9  C   UNL d   1      58.607   0.090  31.931  0.00  0.00     0.025 A 
ATOM     10  O   UNL d   1      56.318   0.681  34.890  0.00  0.00    -0.259 OA
ATOM     11  C   UNL d   1      59.021   0.483  32.515  0.00  0.00     0.004 A 
ATOM     12  C   UNL d   1      56.237  -0.507  32.285  0.00  0.00     0.000 A 
ATOM     13  C   UNL d   1      55.491  -0.112  33.704  0.00  0.00     0.005 A 
ATOM     14  C   UNL d   1      59.818   0.682  32.392  0.00  0.00     0.000 C 
ATOM     15  C   UNL d   1      55.440  -0.712  32.395  0.00  0.00     0.000 A 
ATOM     16  C   UNL d   1      55.072  -0.509  33.114  0.00  0.00     0.000 A 
ENDROOT
BRANCH   7  17
ATOM     17  O   UNL d   1      57.394  -0.506  31.462  0.00  0.00    -0.302 OA
BRANCH  17  18
ATOM     18  C   UNL d   1      57.650  -0.466  30.676  0.00  0.00     0.163 C 
ATOM     19  C   UNL d   1      57.814   0.275  30.333  0.00  0.00     0.032 C 
BRANCH  18  20
ATOM     20  C   UNL d   1      57.742  -1.158  30.238  0.00  0.00     0.323 C 
ATOM     21  O   UNL d   1      57.631  -1.885  30.593  0.00  0.00    -0.257 OA
BRANCH  20  22
ATOM     22  O   UNL d   1      57.947  -1.101  29.440  0.00  0.00    -0.270 OA
BRANCH  22  23
ATOM     23  C   UNL d   1      58.429  -1.689  29.098  0.00  0.00     0.126 C 
ATOM     24  C   UNL d   1      59.226  -1.558  29.011  0.00  0.00     0.029 C 
ENDBRANCH  22  23
ENDBRANCH  20  22
ENDBRANCH  18  20
ENDBRANCH  17  18
ENDBRANCH   7  17
TORSDOF 5
ENDMDL
