MODEL 1
REMARK VINA RESULT:      22.9      0.000      0.000
REMARK  3 active torsions:
REMARK  status: ('A' for Active; 'I' for Inactive)
REMARK    1  A    between atoms: S_8  and  C_2 
REMARK    2  A    between atoms: C_13  and  S_8 
REMARK    3  A    between atoms: C_15  and  C_13 
ROOT
ATOM      1  C   UNL d   1      60.017  49.706  50.685  0.00  0.00     0.104 A 
ATOM      2  C   UNL d   1      58.430  49.707  50.243  0.00  0.00     0.182 A 
ATOM      3  N   UNL d   1      59.020  49.706  49.666  0.00  0.00    -0.251 N 
ATOM      4  C   UNL d   1      59.821  49.706  49.895  0.00  0.00     0.274 A 
ATOM      5  C   UNL d   1      59.427  49.707  51.262  0.00  0.00     0.095 A 
ATOM      6  N   UNL d   1      58.641  49.708  51.049  0.00  0.00    -0.222 NA
ATOM      7  S   UNL d   1      60.745  49.706  51.069  0.00  0.00    -0.081 SA
ATOM      8  C   UNL d   1      59.791  49.708  52.001  0.00  0.00     0.026 A 
ATOM      9  O   UNL d   1      60.410  49.705  49.318  0.00  0.00    -0.266 OA
ATOM     10  C   UNL d   1      60.600  49.707  51.885  0.00  0.00     0.031 A 
ATOM     11  C   UNL d   1      58.815  49.706  48.860  0.00  0.00     0.104 C 
ATOM     12  C   UNL d   1      61.167  49.707  52.484  0.00  0.00     0.007 C 
ENDROOT
BRANCH   2  13
ATOM     13  S   UNL d   1      57.626  49.708  50.024  0.00  0.00    -0.050 SA
BRANCH  13  14
ATOM     14  C   UNL d   1      57.065  49.375  50.531  0.00  0.00     0.032 C 
ATOM     15  C   UNL d   1      57.229  49.302  51.336  0.00  0.00     0.007 C 
BRANCH  14  16
ATOM     16  C   UNL d   1      56.344  49.118  50.231  0.00  0.00     0.007 C 
ATOM     17  C   UNL d   1      56.218  49.107  49.415  0.00  0.00     0.001 C 
ENDBRANCH  14  16
ENDBRANCH  13  14
ENDBRANCH   2  13
TORSDOF 3
ENDMDL
MODEL 2
REMARK VINA RESULT:      24.3      1.353      3.583
REMARK  3 active torsions:
REMARK  status: ('A' for Active; 'I' for Inactive)
REMARK    1  A    between atoms: S_8  and  C_2 
REMARK    2  A    between atoms: C_13  and  S_8 
REMARK    3  A    between atoms: C_15  and  C_13 
ROOT
ATOM      1  C   UNL d   1      57.506  49.693  50.579  0.00  0.00     0.104 A 
ATOM      2  C   UNL d   1      59.130  49.672  50.855  0.00  0.00     0.182 A 
ATOM      3  N   UNL d   1      58.604  49.685  51.490  0.00  0.00    -0.251 N 
ATOM      4  C   UNL d   1      57.784  49.695  51.345  0.00  0.00     0.274 A 
ATOM      5  C   UNL d   1      58.033  49.680  49.944  0.00  0.00     0.095 A 
ATOM      6  N   UNL d   1      58.837  49.670  50.075  0.00  0.00    -0.222 NA
ATOM      7  S   UNL d   1      56.743  49.701  50.273  0.00  0.00    -0.081 SA
ATOM      8  C   UNL d   1      57.594  49.681  49.247  0.00  0.00     0.026 A 
ATOM      9  O   UNL d   1      57.257  49.707  51.980  0.00  0.00    -0.266 OA
ATOM     10  C   UNL d   1      56.802  49.693  49.447  0.00  0.00     0.031 A 
ATOM     11  C   UNL d   1      58.891  49.687  52.270  0.00  0.00     0.104 C 
ATOM     12  C   UNL d   1      56.176  49.698  48.910  0.00  0.00     0.007 C 
ENDROOT
BRANCH   2  13
ATOM     13  S   UNL d   1      59.953  49.661  50.989  0.00  0.00    -0.050 SA
BRANCH  13  14
ATOM     14  C   UNL d   1      60.448  49.268  50.457  0.00  0.00     0.032 C 
ATOM     15  C   UNL d   1      60.680  49.639  49.758  0.00  0.00     0.007 C 
BRANCH  14  16
ATOM     16  C   UNL d   1      60.708  48.507  50.627  0.00  0.00     0.007 C 
ATOM     17  C   UNL d   1      61.215  48.379  51.266  0.00  0.00     0.001 C 
ENDBRANCH  14  16
ENDBRANCH  13  14
ENDBRANCH   2  13
TORSDOF 3
ENDMDL
