MODEL 1
REMARK VINA RESULT:      56.5      0.000      0.000
REMARK  5 active torsions:
REMARK  status: ('A' for Active; 'I' for Inactive)
REMARK    1  A    between atoms: C_7  and  C_1 
REMARK    2  A    between atoms: C_13  and  N_3 
REMARK       I    between atoms: C_6  and  N_10 
REMARK    3  A    between atoms: C_8  and  C_6 
REMARK    4  A    between atoms: C_14  and  C_7 
REMARK    5  A    between atoms: N_10  and  C_14 
ROOT
ATOM      1  C   UNL d   1     -52.051  25.114  33.392  0.00  0.00     0.058 C 
ENDROOT
BRANCH   1   2
ATOM      2  C   UNL d   1     -51.277  25.408  33.375  0.00  0.00     0.149 A 
ATOM      3  N   UNL d   1     -50.591  24.961  33.387  0.00  0.00    -0.227 NA
ATOM      4  C   UNL d   1     -49.949  25.474  33.363  0.00  0.00     0.099 A 
ATOM      5  C   UNL d   1     -49.128  25.330  33.362  0.00  0.00     0.021 A 
ATOM      6  C   UNL d   1     -50.236  26.246  33.336  0.00  0.00     0.083 A 
ATOM      7  C   UNL d   1     -48.605  25.972  33.334  0.00  0.00     0.002 A 
ATOM      8  C   UNL d   1     -48.896  26.741  33.308  0.00  0.00     0.002 A 
ATOM      9  C   UNL d   1     -49.713  26.887  33.308  0.00  0.00     0.019 A 
ATOM     10  N   UNL d   1     -51.065  26.207  33.344  0.00  0.00    -0.289 N 
BRANCH  10  11
ATOM     11  C   UNL d   1     -51.588  26.847  33.324  0.00  0.00     0.082 C 
ATOM     12  C   UNL d   1     -51.294  27.619  33.382  0.00  0.00     0.021 C 
ENDBRANCH  10  11
ENDBRANCH   1   2
BRANCH   1  13
ATOM     13  C   UNL d   1     -52.190  24.343  33.663  0.00  0.00     0.105 C 
BRANCH  13  14
ATOM     14  N   UNL d   1     -52.787  23.889  33.334  0.00  0.00    -0.206 NA
ATOM     15  C   UNL d   1     -53.429  23.650  33.794  0.00  0.00     0.279 C 
ATOM     16  O   UNL d   1     -54.024  23.194  33.455  0.00  0.00    -0.265 OA
BRANCH  15  17
ATOM     17  C   UNL d   1     -53.471  23.868  34.584  0.00  0.00     0.058 A 
ATOM     18  C   UNL d   1     -53.521  24.663  34.785  0.00  0.00     0.007 A 
ATOM     19  C   UNL d   1     -53.563  24.881  35.576  0.00  0.00     0.030 A 
ATOM     20  C   UNL d   1     -53.555  24.312  36.170  0.00  0.00     0.140 A 
ATOM     21  C   UNL d   1     -53.504  23.518  35.963  0.00  0.00     0.030 A 
ATOM     22  F   UNL d   1     -53.597  24.531  36.972  0.00  0.00    -0.204 F 
ATOM     23  C   UNL d   1     -53.463  23.298  35.180  0.00  0.00     0.007 A 
ENDBRANCH  15  17
ENDBRANCH  13  14
ENDBRANCH   1  13
TORSDOF 5
ENDMDL
MODEL 2
REMARK VINA RESULT:      57.0      3.294      5.380
REMARK  5 active torsions:
REMARK  status: ('A' for Active; 'I' for Inactive)
REMARK    1  A    between atoms: C_7  and  C_1 
REMARK    2  A    between atoms: C_13  and  N_3 
REMARK       I    between atoms: C_6  and  N_10 
REMARK    3  A    between atoms: C_8  and  C_6 
REMARK    4  A    between atoms: C_14  and  C_7 
REMARK    5  A    between atoms: N_10  and  C_14 
ROOT
ATOM      1  C   UNL d   1     -49.756  28.000  33.603  0.00  0.00     0.058 C 
ENDROOT
BRANCH   1   2
ATOM      2  C   UNL d   1     -50.040  27.225  33.538  0.00  0.00     0.149 A 
ATOM      3  N   UNL d   1     -49.585  26.547  33.476  0.00  0.00    -0.227 NA
ATOM      4  C   UNL d   1     -50.089  25.901  33.423  0.00  0.00     0.099 A 
ATOM      5  C   UNL d   1     -49.936  25.085  33.351  0.00  0.00     0.021 A 
ATOM      6  C   UNL d   1     -50.866  26.177  33.451  0.00  0.00     0.083 A 
ATOM      7  C   UNL d   1     -50.571  24.555  33.308  0.00  0.00     0.002 A 
ATOM      8  C   UNL d   1     -51.344  24.836  33.337  0.00  0.00     0.002 A 
ATOM      9  C   UNL d   1     -51.500  25.647  33.409  0.00  0.00     0.019 A 
ATOM     10  N   UNL d   1     -50.837  27.003  33.523  0.00  0.00    -0.289 N 
BRANCH  10  11
ATOM     11  C   UNL d   1     -51.484  27.516  33.571  0.00  0.00     0.082 C 
ATOM     12  C   UNL d   1     -52.227  27.264  33.307  0.00  0.00     0.021 C 
ENDBRANCH  10  11
ENDBRANCH   1   2
BRANCH   1  13
ATOM     13  C   UNL d   1     -49.200  28.183  34.190  0.00  0.00     0.105 C 
BRANCH  13  14
ATOM     14  N   UNL d   1     -49.293  27.900  34.953  0.00  0.00    -0.206 NA
ATOM     15  C   UNL d   1     -48.842  28.211  35.570  0.00  0.00     0.279 C 
ATOM     16  O   UNL d   1     -48.942  27.920  36.332  0.00  0.00    -0.265 OA
BRANCH  15  17
ATOM     17  C   UNL d   1     -48.297  28.806  35.419  0.00  0.00     0.058 A 
ATOM     18  C   UNL d   1     -48.521  29.593  35.497  0.00  0.00     0.007 A 
ATOM     19  C   UNL d   1     -47.977  30.188  35.347  0.00  0.00     0.030 A 
ATOM     20  C   UNL d   1     -47.207  30.007  35.118  0.00  0.00     0.140 A 
ATOM     21  C   UNL d   1     -46.988  29.218  35.041  0.00  0.00     0.030 A 
ATOM     22  F   UNL d   1     -46.654  30.609  34.965  0.00  0.00    -0.204 F 
ATOM     23  C   UNL d   1     -47.527  28.625  35.190  0.00  0.00     0.007 A 
ENDBRANCH  15  17
ENDBRANCH  13  14
ENDBRANCH   1  13
TORSDOF 5
ENDMDL
MODEL 3
REMARK VINA RESULT:      57.0      2.416      4.551
REMARK  5 active torsions:
REMARK  status: ('A' for Active; 'I' for Inactive)
REMARK    1  A    between atoms: C_7  and  C_1 
REMARK    2  A    between atoms: C_13  and  N_3 
REMARK       I    between atoms: C_6  and  N_10 
REMARK    3  A    between atoms: C_8  and  C_6 
REMARK    4  A    between atoms: C_14  and  C_7 
REMARK    5  A    between atoms: N_10  and  C_14 
ROOT
ATOM      1  C   UNL d   1     -50.185  25.672  33.380  0.00  0.00     0.058 C 
ENDROOT
BRANCH   1   2
ATOM      2  C   UNL d   1     -50.838  25.163  33.365  0.00  0.00     0.149 A 
ATOM      3  N   UNL d   1     -51.625  25.389  33.369  0.00  0.00    -0.227 NA
ATOM      4  C   UNL d   1     -52.089  24.711  33.350  0.00  0.00     0.099 A 
ATOM      5  C   UNL d   1     -52.916  24.606  33.345  0.00  0.00     0.021 A 
ATOM      6  C   UNL d   1     -51.587  24.056  33.333  0.00  0.00     0.083 A 
ATOM      7  C   UNL d   1     -53.227  23.840  33.323  0.00  0.00     0.002 A 
ATOM      8  C   UNL d   1     -52.722  23.190  33.306  0.00  0.00     0.002 A 
ATOM      9  C   UNL d   1     -51.899  23.290  33.311  0.00  0.00     0.019 A 
ATOM     10  N   UNL d   1     -50.807  24.337  33.342  0.00  0.00    -0.289 N 
BRANCH  10  11
ATOM     11  C   UNL d   1     -50.118  23.878  33.331  0.00  0.00     0.082 C 
ATOM     12  C   UNL d   1     -49.394  24.222  33.536  0.00  0.00     0.021 C 
ENDBRANCH  10  11
ENDBRANCH   1   2
BRANCH   1  13
ATOM     13  C   UNL d   1     -50.240  26.397  33.777  0.00  0.00     0.105 C 
BRANCH  13  14
ATOM     14  N   UNL d   1     -50.695  26.465  34.455  0.00  0.00    -0.206 NA
ATOM     15  C   UNL d   1     -50.477  26.993  35.051  0.00  0.00     0.279 C 
ATOM     16  O   UNL d   1     -50.940  27.055  35.727  0.00  0.00    -0.265 OA
BRANCH  15  17
ATOM     17  C   UNL d   1     -49.802  27.452  34.965  0.00  0.00     0.058 A 
ATOM     18  C   UNL d   1     -49.279  27.529  35.593  0.00  0.00     0.007 A 
ATOM     19  C   UNL d   1     -48.604  27.988  35.507  0.00  0.00     0.030 A 
ATOM     20  C   UNL d   1     -48.444  28.373  34.797  0.00  0.00     0.140 A 
ATOM     21  C   UNL d   1     -48.972  28.293  34.171  0.00  0.00     0.030 A 
ATOM     22  F   UNL d   1     -47.761  28.839  34.707  0.00  0.00    -0.204 F 
ATOM     23  C   UNL d   1     -49.643  27.838  34.254  0.00  0.00     0.007 A 
ENDBRANCH  15  17
ENDBRANCH  13  14
ENDBRANCH   1  13
TORSDOF 5
ENDMDL
