MODEL 1
REMARK VINA RESULT:      -6.5      0.000      0.000
REMARK  6 active torsions:
REMARK  status: ('A' for Active; 'I' for Inactive)
REMARK    1  A    between atoms: N_5  and  C_1 
REMARK       I    between atoms: C_9  and  N_5 
REMARK    2  A    between atoms: C_20  and  C_6 
REMARK    3  A    between atoms: C_17  and  C_9 
REMARK    4  A    between atoms: C_12  and  C_10 
REMARK    5  A    between atoms: C_11  and  S_13 
REMARK    6  A    between atoms: S_13  and  C_17 
ROOT
ATOM      1  N   UNL d   1     -48.744  13.699  22.959  0.00  0.00    -0.148 NA
ATOM      2  N   UNL d   1     -47.993  13.357  22.982  0.00  0.00    -0.141 NA
ATOM      3  C   UNL d   1     -48.824  14.522  22.897  0.00  0.00     0.104 A 
ATOM      4  C   UNL d   1     -47.321  13.824  22.944  0.00  0.00     0.133 A 
ATOM      5  C   UNL d   1     -48.147  14.996  22.859  0.00  0.00     0.023 A 
ATOM      6  C   UNL d   1     -47.400  14.651  22.882  0.00  0.00     0.029 A 
ENDROOT
BRANCH   4   7
ATOM      7  S   UNL d   1     -46.571  13.482  22.967  0.00  0.00    -0.061 SA
BRANCH   7   8
ATOM      8  C   UNL d   1     -46.227  13.189  22.282  0.00  0.00     0.099 C 
BRANCH   8   9
ATOM      9  C   UNL d   1     -45.442  12.930  22.298  0.00  0.00     0.288 C 
ATOM     10  N   UNL d   1     -44.946  13.087  21.660  0.00  0.00    -0.181 NA
ATOM     11  O   UNL d   1     -45.156  12.517  22.948  0.00  0.00    -0.265 OA
BRANCH  10  12
ATOM     12  C   UNL d   1     -44.169  12.833  21.672  0.00  0.00     0.219 A 
ATOM     13  S   UNL d   1     -43.517  13.239  21.361  0.00  0.00    -0.026 SA
ATOM     14  C   UNL d   1     -42.852  12.786  21.493  0.00  0.00     0.135 A 
ATOM     15  N   UNL d   1     -43.083  12.100  21.885  0.00  0.00    -0.139 NA
ATOM     16  N   UNL d   1     -43.892  12.133  21.992  0.00  0.00    -0.121 NA
BRANCH  14  17
ATOM     17  C   UNL d   1     -42.079  12.981  21.273  0.00  0.00     0.028 C 
ATOM     18  C   UNL d   1     -41.915  13.708  20.931  0.00  0.00     0.002 C 
ENDBRANCH  14  17
ENDBRANCH  10  12
ENDBRANCH   8   9
ENDBRANCH   7   8
ENDBRANCH   4   7
BRANCH   3  19
ATOM     19  C   UNL d   1     -49.574  14.864  22.874  0.00  0.00     0.039 A 
ATOM     20  C   UNL d   1     -50.079  14.688  22.261  0.00  0.00     0.101 A 
ATOM     21  N   UNL d   1     -50.824  15.024  22.234  0.00  0.00    -0.242 NA
ATOM     22  C   UNL d   1     -51.064  15.547  22.836  0.00  0.00     0.099 A 
ATOM     23  C   UNL d   1     -50.553  15.721  23.451  0.00  0.00     0.021 A 
ATOM     24  C   UNL d   1     -49.800  15.383  23.482  0.00  0.00     0.005 A 
ENDBRANCH   3  19
TORSDOF 6
ENDMDL
MODEL 2
REMARK VINA RESULT:      -5.8      1.460      1.741
REMARK  6 active torsions:
REMARK  status: ('A' for Active; 'I' for Inactive)
REMARK    1  A    between atoms: N_5  and  C_1 
REMARK       I    between atoms: C_9  and  N_5 
REMARK    2  A    between atoms: C_20  and  C_6 
REMARK    3  A    between atoms: C_17  and  C_9 
REMARK    4  A    between atoms: C_12  and  C_10 
REMARK    5  A    between atoms: C_11  and  S_13 
REMARK    6  A    between atoms: S_13  and  C_17 
ROOT
ATOM      1  N   UNL d   1     -48.429  13.361  22.598  0.00  0.00    -0.148 NA
ATOM      2  N   UNL d   1     -47.626  13.505  22.471  0.00  0.00    -0.141 NA
ATOM      3  C   UNL d   1     -48.668  12.834  23.191  0.00  0.00     0.104 A 
ATOM      4  C   UNL d   1     -47.059  13.130  22.927  0.00  0.00     0.133 A 
ATOM      5  C   UNL d   1     -48.097  12.454  23.653  0.00  0.00     0.023 A 
ATOM      6  C   UNL d   1     -47.297  12.599  23.524  0.00  0.00     0.029 A 
ENDROOT
BRANCH   4   7
ATOM      7  S   UNL d   1     -46.256  13.274  22.801  0.00  0.00    -0.061 SA
BRANCH   7   8
ATOM      8  C   UNL d   1     -45.867  12.924  22.169  0.00  0.00     0.099 C 
BRANCH   8   9
ATOM      9  C   UNL d   1     -45.052  13.035  22.080  0.00  0.00     0.288 C 
ATOM     10  N   UNL d   1     -44.595  12.447  21.729  0.00  0.00    -0.181 NA
ATOM     11  O   UNL d   1     -44.698  13.729  22.341  0.00  0.00    -0.265 OA
BRANCH  10  12
ATOM     12  C   UNL d   1     -43.789  12.553  21.639  0.00  0.00     0.219 A 
ATOM     13  S   UNL d   1     -43.420  13.063  21.100  0.00  0.00    -0.026 SA
ATOM     14  C   UNL d   1     -42.614  12.994  21.199  0.00  0.00     0.135 A 
ATOM     15  N   UNL d   1     -42.476  12.445  21.796  0.00  0.00    -0.139 NA
ATOM     16  N   UNL d   1     -43.200  12.177  22.063  0.00  0.00    -0.121 NA
BRANCH  14  17
ATOM     17  C   UNL d   1     -42.035  13.404  20.774  0.00  0.00     0.028 C 
ATOM     18  C   UNL d   1     -41.548  13.945  21.150  0.00  0.00     0.002 C 
ENDBRANCH  14  17
ENDBRANCH  10  12
ENDBRANCH   8   9
ENDBRANCH   7   8
ENDBRANCH   4   7
BRANCH   3  19
ATOM     19  C   UNL d   1     -49.470  12.690  23.318  0.00  0.00     0.039 A 
ATOM     20  C   UNL d   1     -49.983  13.316  23.406  0.00  0.00     0.101 A 
ATOM     21  N   UNL d   1     -50.780  13.178  23.532  0.00  0.00    -0.242 NA
ATOM     22  C   UNL d   1     -51.063  12.397  23.570  0.00  0.00     0.099 A 
ATOM     23  C   UNL d   1     -50.544  11.771  23.481  0.00  0.00     0.021 A 
ATOM     24  C   UNL d   1     -49.739  11.905  23.354  0.00  0.00     0.005 A 
ENDBRANCH   3  19
TORSDOF 6
ENDMDL
MODEL 3
REMARK VINA RESULT:      -5.2      2.626      7.104
REMARK  6 active torsions:
REMARK  status: ('A' for Active; 'I' for Inactive)
REMARK    1  A    between atoms: N_5  and  C_1 
REMARK       I    between atoms: C_9  and  N_5 
REMARK    2  A    between atoms: C_20  and  C_6 
REMARK    3  A    between atoms: C_17  and  C_9 
REMARK    4  A    between atoms: C_12  and  C_10 
REMARK    5  A    between atoms: C_11  and  S_13 
REMARK    6  A    between atoms: S_13  and  C_17 
ROOT
ATOM      1  N   UNL d   1     -41.325  13.781  19.644  0.00  0.00    -0.148 NA
ATOM      2  N   UNL d   1     -41.888  13.363  20.078  0.00  0.00    -0.141 NA
ATOM      3  C   UNL d   1     -40.851  14.350  20.017  0.00  0.00     0.104 A 
ATOM      4  C   UNL d   1     -41.986  13.503  20.878  0.00  0.00     0.133 A 
ATOM      5  C   UNL d   1     -40.948  14.494  20.826  0.00  0.00     0.023 A 
ATOM      6  C   UNL d   1     -41.510  14.075  21.256  0.00  0.00     0.029 A 
ENDROOT
BRANCH   4   7
ATOM      7  S   UNL d   1     -42.549  13.084  21.312  0.00  0.00    -0.061 SA
BRANCH   7   8
ATOM      8  C   UNL d   1     -43.349  13.187  21.162  0.00  0.00     0.099 C 
BRANCH   8   9
ATOM      9  C   UNL d   1     -43.906  12.862  21.679  0.00  0.00     0.288 C 
ATOM     10  N   UNL d   1     -44.605  13.267  21.835  0.00  0.00    -0.181 NA
ATOM     11  O   UNL d   1     -43.764  12.136  22.037  0.00  0.00    -0.265 OA
BRANCH  10  12
ATOM     12  C   UNL d   1     -45.158  12.949  22.347  0.00  0.00     0.219 A 
ATOM     13  S   UNL d   1     -45.947  13.192  22.425  0.00  0.00    -0.026 SA
ATOM     14  C   UNL d   1     -46.298  12.726  22.995  0.00  0.00     0.135 A 
ATOM     15  N   UNL d   1     -45.735  12.194  23.274  0.00  0.00    -0.139 NA
ATOM     16  N   UNL d   1     -45.038  12.335  22.873  0.00  0.00    -0.121 NA
BRANCH  14  17
ATOM     17  C   UNL d   1     -47.083  12.779  23.251  0.00  0.00     0.028 C 
ATOM     18  C   UNL d   1     -47.490  12.107  23.482  0.00  0.00     0.002 C 
ENDBRANCH  14  17
ENDBRANCH  10  12
ENDBRANCH   8   9
ENDBRANCH   7   8
ENDBRANCH   4   7
BRANCH   3  19
ATOM     19  C   UNL d   1     -40.288  14.769  19.583  0.00  0.00     0.039 A 
ATOM     20  C   UNL d   1     -39.539  14.463  19.494  0.00  0.00     0.101 A 
ATOM     21  N   UNL d   1     -38.977  14.875  19.064  0.00  0.00    -0.242 NA
ATOM     22  C   UNL d   1     -39.175  15.606  18.719  0.00  0.00     0.099 A 
ATOM     23  C   UNL d   1     -39.929  15.909  18.812  0.00  0.00     0.021 A 
ATOM     24  C   UNL d   1     -40.499  15.497  19.244  0.00  0.00     0.005 A 
ENDBRANCH   3  19
TORSDOF 6
ENDMDL
MODEL 4
REMARK VINA RESULT:      -4.3      2.968      7.578
REMARK  6 active torsions:
REMARK  status: ('A' for Active; 'I' for Inactive)
REMARK    1  A    between atoms: N_5  and  C_1 
REMARK       I    between atoms: C_9  and  N_5 
REMARK    2  A    between atoms: C_20  and  C_6 
REMARK    3  A    between atoms: C_17  and  C_9 
REMARK    4  A    between atoms: C_12  and  C_10 
REMARK    5  A    between atoms: C_11  and  S_13 
REMARK    6  A    between atoms: S_13  and  C_17 
ROOT
ATOM      1  N   UNL d   1     -40.673  14.062  18.866  0.00  0.00    -0.148 NA
ATOM      2  N   UNL d   1     -41.103  13.721  19.482  0.00  0.00    -0.141 NA
ATOM      3  C   UNL d   1     -40.365  14.827  18.947  0.00  0.00     0.104 A 
ATOM      4  C   UNL d   1     -41.231  14.133  20.178  0.00  0.00     0.133 A 
ATOM      5  C   UNL d   1     -40.493  15.246  19.649  0.00  0.00     0.023 A 
ATOM      6  C   UNL d   1     -40.923  14.903  20.261  0.00  0.00     0.029 A 
ENDROOT
BRANCH   4   7
ATOM      7  S   UNL d   1     -41.661  13.793  20.794  0.00  0.00    -0.061 SA
BRANCH   7   8
ATOM      8  C   UNL d   1     -42.279  13.277  20.634  0.00  0.00     0.099 C 
BRANCH   8   9
ATOM      9  C   UNL d   1     -42.794  13.055  21.242  0.00  0.00     0.288 C 
ATOM     10  N   UNL d   1     -43.589  12.923  21.077  0.00  0.00    -0.181 NA
ATOM     11  O   UNL d   1     -42.513  12.967  22.009  0.00  0.00    -0.265 OA
BRANCH  10  12
ATOM     12  C   UNL d   1     -44.101  12.703  21.676  0.00  0.00     0.219 A 
ATOM     13  S   UNL d   1     -44.813  13.078  21.872  0.00  0.00    -0.026 SA
ATOM     14  C   UNL d   1     -45.144  12.678  22.501  0.00  0.00     0.135 A 
ATOM     15  N   UNL d   1     -44.644  12.055  22.699  0.00  0.00    -0.139 NA
ATOM     16  N   UNL d   1     -44.006  12.075  22.190  0.00  0.00    -0.121 NA
BRANCH  14  17
ATOM     17  C   UNL d   1     -45.858  12.865  22.875  0.00  0.00     0.028 C 
ATOM     18  C   UNL d   1     -46.298  13.511  22.630  0.00  0.00     0.002 C 
ENDBRANCH  14  17
ENDBRANCH  10  12
ENDBRANCH   8   9
ENDBRANCH   7   8
ENDBRANCH   4   7
BRANCH   3  19
ATOM     19  C   UNL d   1     -39.935  15.168  18.331  0.00  0.00     0.039 A 
ATOM     20  C   UNL d   1     -39.124  15.207  18.379  0.00  0.00     0.101 A 
ATOM     21  N   UNL d   1     -38.693  15.544  17.770  0.00  0.00    -0.242 NA
ATOM     22  C   UNL d   1     -39.087  15.845  17.102  0.00  0.00     0.099 A 
ATOM     23  C   UNL d   1     -39.903  15.804  17.058  0.00  0.00     0.021 A 
ATOM     24  C   UNL d   1     -40.342  15.465  17.670  0.00  0.00     0.005 A 
ENDBRANCH   3  19
TORSDOF 6
ENDMDL
MODEL 5
REMARK VINA RESULT:      -3.9      2.419      3.848
REMARK  6 active torsions:
REMARK  status: ('A' for Active; 'I' for Inactive)
REMARK    1  A    between atoms: N_5  and  C_1 
REMARK       I    between atoms: C_9  and  N_5 
REMARK    2  A    between atoms: C_20  and  C_6 
REMARK    3  A    between atoms: C_17  and  C_9 
REMARK    4  A    between atoms: C_12  and  C_10 
REMARK    5  A    between atoms: C_11  and  S_13 
REMARK    6  A    between atoms: S_13  and  C_17 
ROOT
ATOM      1  N   UNL d   1     -44.975  12.100  22.756  0.00  0.00    -0.148 NA
ATOM      2  N   UNL d   1     -44.242  12.156  22.381  0.00  0.00    -0.141 NA
ATOM      3  C   UNL d   1     -45.577  12.641  22.576  0.00  0.00     0.104 A 
ATOM      4  C   UNL d   1     -44.101  12.744  21.829  0.00  0.00     0.133 A 
ATOM      5  C   UNL d   1     -45.436  13.237  22.019  0.00  0.00     0.023 A 
ATOM      6  C   UNL d   1     -44.704  13.290  21.647  0.00  0.00     0.029 A 
ENDROOT
BRANCH   4   7
ATOM      7  S   UNL d   1     -43.368  12.801  21.454  0.00  0.00    -0.061 SA
BRANCH   7   8
ATOM      8  C   UNL d   1     -43.019  13.534  21.332  0.00  0.00     0.099 C 
BRANCH   8   9
ATOM      9  C   UNL d   1     -42.228  13.575  21.094  0.00  0.00     0.288 C 
ATOM     10  N   UNL d   1     -41.848  14.303  21.062  0.00  0.00    -0.181 NA
ATOM     11  O   UNL d   1     -41.823  12.890  20.888  0.00  0.00    -0.265 OA
BRANCH  10  12
ATOM     12  C   UNL d   1     -41.066  14.348  20.826  0.00  0.00     0.219 A 
ATOM     13  S   UNL d   1     -40.785  14.694  20.128  0.00  0.00    -0.026 SA
ATOM     14  C   UNL d   1     -39.974  14.615  20.116  0.00  0.00     0.135 A 
ATOM     15  N   UNL d   1     -39.745  14.221  20.802  0.00  0.00    -0.139 NA
ATOM     16  N   UNL d   1     -40.418  14.060  21.234  0.00  0.00    -0.121 NA
BRANCH  14  17
ATOM     17  C   UNL d   1     -39.468  14.883  19.519  0.00  0.00     0.028 C 
ATOM     18  C   UNL d   1     -38.655  14.834  19.610  0.00  0.00     0.002 C 
ENDBRANCH  14  17
ENDBRANCH  10  12
ENDBRANCH   8   9
ENDBRANCH   7   8
ENDBRANCH   4   7
BRANCH   3  19
ATOM     19  C   UNL d   1     -46.309  12.585  22.951  0.00  0.00     0.039 A 
ATOM     20  C   UNL d   1     -46.519  11.893  23.324  0.00  0.00     0.101 A 
ATOM     21  N   UNL d   1     -47.245  11.832  23.697  0.00  0.00    -0.242 NA
ATOM     22  C   UNL d   1     -47.767  12.481  23.694  0.00  0.00     0.099 A 
ATOM     23  C   UNL d   1     -47.551  13.174  23.318  0.00  0.00     0.021 A 
ATOM     24  C   UNL d   1     -46.820  13.240  22.940  0.00  0.00     0.005 A 
ENDBRANCH   3  19
TORSDOF 6
ENDMDL
MODEL 6
REMARK VINA RESULT:      -3.6      8.138     10.412
REMARK  6 active torsions:
REMARK  status: ('A' for Active; 'I' for Inactive)
REMARK    1  A    between atoms: N_5  and  C_1 
REMARK       I    between atoms: C_9  and  N_5 
REMARK    2  A    between atoms: C_20  and  C_6 
REMARK    3  A    between atoms: C_17  and  C_9 
REMARK    4  A    between atoms: C_12  and  C_10 
REMARK    5  A    between atoms: C_11  and  S_13 
REMARK    6  A    between atoms: S_13  and  C_17 
ROOT
ATOM      1  N   UNL d   1     -38.060  13.909  16.658  0.00  0.00    -0.148 NA
ATOM      2  N   UNL d   1     -38.136  14.098  17.457  0.00  0.00    -0.141 NA
ATOM      3  C   UNL d   1     -38.166  14.494  16.080  0.00  0.00     0.104 A 
ATOM      4  C   UNL d   1     -38.317  14.863  17.689  0.00  0.00     0.133 A 
ATOM      5  C   UNL d   1     -38.349  15.267  16.312  0.00  0.00     0.023 A 
ATOM      6  C   UNL d   1     -38.424  15.453  17.110  0.00  0.00     0.029 A 
ENDROOT
BRANCH   4   7
ATOM      7  S   UNL d   1     -38.393  15.052  18.488  0.00  0.00    -0.061 SA
BRANCH   7   8
ATOM      8  C   UNL d   1     -38.940  14.660  18.958  0.00  0.00     0.099 C 
BRANCH   8   9
ATOM      9  C   UNL d   1     -38.977  14.826  19.767  0.00  0.00     0.288 C 
ATOM     10  N   UNL d   1     -39.238  14.249  20.292  0.00  0.00    -0.181 NA
ATOM     11  O   UNL d   1     -38.755  15.566  20.047  0.00  0.00    -0.265 OA
BRANCH  10  12
ATOM     12  C   UNL d   1     -39.277  14.410  21.093  0.00  0.00     0.219 A 
ATOM     13  S   UNL d   1     -38.846  14.028  21.689  0.00  0.00    -0.026 SA
ATOM     14  C   UNL d   1     -39.054  14.362  22.403  0.00  0.00     0.135 A 
ATOM     15  N   UNL d   1     -39.612  14.949  22.258  0.00  0.00    -0.139 NA
ATOM     16  N   UNL d   1     -39.745  14.975  21.453  0.00  0.00    -0.121 NA
BRANCH  14  17
ATOM     17  C   UNL d   1     -38.757  14.148  23.145  0.00  0.00     0.028 C 
ATOM     18  C   UNL d   1     -38.357  14.694  23.606  0.00  0.00     0.002 C 
ENDBRANCH  14  17
ENDBRANCH  10  12
ENDBRANCH   8   9
ENDBRANCH   7   8
ENDBRANCH   4   7
BRANCH   3  19
ATOM     19  C   UNL d   1     -38.090  14.305  15.281  0.00  0.00     0.039 A 
ATOM     20  C   UNL d   1     -38.016  14.901  14.731  0.00  0.00     0.101 A 
ATOM     21  N   UNL d   1     -37.940  14.717  13.937  0.00  0.00    -0.242 NA
ATOM     22  C   UNL d   1     -37.940  13.921  13.694  0.00  0.00     0.099 A 
ATOM     23  C   UNL d   1     -38.015  13.326  14.251  0.00  0.00     0.021 A 
ATOM     24  C   UNL d   1     -38.092  13.506  15.053  0.00  0.00     0.005 A 
ENDBRANCH   3  19
TORSDOF 6
ENDMDL
