MODEL 1
REMARK VINA RESULT:       8.5      0.000      0.000
REMARK  3 active torsions:
REMARK  status: ('A' for Active; 'I' for Inactive)
REMARK    1  A    between atoms: N_10  and  C_3 
REMARK    2  A    between atoms: C_11  and  C_5 
REMARK    3  A    between atoms: C_15  and  N_10 
ROOT
ATOM      1  N   UNL d   1     -42.639-121.981 -52.347  0.00  0.00    -0.184 N 
ATOM      2  C   UNL d   1     -42.338-122.464 -51.725  0.00  0.00     0.168 A 
ATOM      3  C   UNL d   1     -42.420-122.139 -53.133  0.00  0.00     0.217 A 
ATOM      4  N   UNL d   1     -43.362-121.204 -51.395  0.00  0.00    -0.162 NA
ATOM      5  C   UNL d   1     -42.551-122.310 -50.958  0.00  0.00     0.055 A 
ATOM      6  N   UNL d   1     -41.828-123.087 -51.910  0.00  0.00    -0.227 NA
ATOM      7  C   UNL d   1     -41.916-122.758 -53.299  0.00  0.00     0.066 A 
ATOM      8  C   UNL d   1     -43.065-121.679 -50.782  0.00  0.00     0.104 A 
ATOM      9  C   UNL d   1     -41.610-123.245 -52.683  0.00  0.00     0.087 A 
ATOM     10  C   UNL d   1     -41.608-123.043 -53.998  0.00  0.00     0.006 A 
ATOM     11  C   UNL d   1     -43.277-121.531 -50.002  0.00  0.00     0.023 C 
ATOM     12  C   UNL d   1     -41.123-123.817 -53.017  0.00  0.00     0.019 A 
ATOM     13  C   UNL d   1     -41.123-123.688 -53.842  0.00  0.00     0.002 A 
ENDROOT
BRANCH   5  14
ATOM     14  C   UNL d   1     -42.256-122.782 -50.349  0.00  0.00     0.004 A 
ATOM     15  C   UNL d   1     -42.744-123.336 -49.980  0.00  0.00     0.000 A 
ATOM     16  C   UNL d   1     -42.455-123.808 -49.374  0.00  0.00     0.000 A 
ATOM     17  C   UNL d   1     -41.667-123.727 -49.130  0.00  0.00     0.000 A 
ATOM     18  C   UNL d   1     -41.178-123.183 -49.489  0.00  0.00     0.000 A 
ATOM     19  C   UNL d   1     -41.476-122.706 -50.105  0.00  0.00     0.000 A 
ENDBRANCH   5  14
BRANCH   3  20
ATOM     20  N   UNL d   1     -42.722-121.654 -53.763  0.00  0.00    -0.383 NA
BRANCH  20  21
ATOM     21  C   UNL d   1     -43.020-121.170 -54.385  0.00  0.00     0.134 C 
ATOM     22  C   UNL d   1     -42.763-120.369 -54.446  0.00  0.00     0.035 C 
ATOM     23  C   UNL d   1     -43.577-121.493 -54.944  0.00  0.00     0.035 C 
ENDBRANCH  20  21
ENDBRANCH   3  20
TORSDOF 3
ENDMDL
MODEL 2
REMARK VINA RESULT:       9.6      1.237      1.481
REMARK  3 active torsions:
REMARK  status: ('A' for Active; 'I' for Inactive)
REMARK    1  A    between atoms: N_10  and  C_3 
REMARK    2  A    between atoms: C_11  and  C_5 
REMARK    3  A    between atoms: C_15  and  N_10 
ROOT
ATOM      1  N   UNL d   1     -41.633-121.503 -53.100  0.00  0.00    -0.184 N 
ATOM      2  C   UNL d   1     -41.711-122.025 -52.443  0.00  0.00     0.168 A 
ATOM      3  C   UNL d   1     -41.798-121.780 -53.866  0.00  0.00     0.217 A 
ATOM      4  N   UNL d   1     -41.231-120.454 -52.221  0.00  0.00    -0.162 NA
ATOM      5  C   UNL d   1     -41.550-121.756 -51.695  0.00  0.00     0.055 A 
ATOM      6  N   UNL d   1     -41.951-122.804 -52.574  0.00  0.00    -0.227 NA
ATOM      7  C   UNL d   1     -42.034-122.552 -53.979  0.00  0.00     0.066 A 
ATOM      8  C   UNL d   1     -41.308-120.968 -51.573  0.00  0.00     0.104 A 
ATOM      9  C   UNL d   1     -42.114-123.080 -53.327  0.00  0.00     0.087 A 
ATOM     10  C   UNL d   1     -42.230-122.974 -54.648  0.00  0.00     0.006 A 
ATOM     11  C   UNL d   1     -41.147-120.703 -50.812  0.00  0.00     0.023 C 
ATOM     12  C   UNL d   1     -42.358-123.813 -53.611  0.00  0.00     0.019 A 
ATOM     13  C   UNL d   1     -42.430-123.743 -54.439  0.00  0.00     0.002 A 
ENDROOT
BRANCH   5  14
ATOM     14  C   UNL d   1     -41.626-122.266 -51.051  0.00  0.00     0.004 A 
ATOM     15  C   UNL d   1     -41.154-122.940 -50.998  0.00  0.00     0.000 A 
ATOM     16  C   UNL d   1     -41.227-123.451 -50.359  0.00  0.00     0.000 A 
ATOM     17  C   UNL d   1     -41.779-123.288 -49.763  0.00  0.00     0.000 A 
ATOM     18  C   UNL d   1     -42.250-122.624 -49.808  0.00  0.00     0.000 A 
ATOM     19  C   UNL d   1     -42.173-122.108 -50.459  0.00  0.00     0.000 A 
ENDBRANCH   5  14
BRANCH   3  20
ATOM     20  N   UNL d   1     -41.720-121.256 -54.532  0.00  0.00    -0.383 NA
BRANCH  20  21
ATOM     21  C   UNL d   1     -41.642-120.741 -55.195  0.00  0.00     0.134 C 
ATOM     22  C   UNL d   1     -41.634-119.907 -55.073  0.00  0.00     0.035 C 
ATOM     23  C   UNL d   1     -41.573-121.068 -55.980  0.00  0.00     0.035 C 
ENDBRANCH  20  21
ENDBRANCH   3  20
TORSDOF 3
ENDMDL
MODEL 3
REMARK VINA RESULT:      10.1      1.549      3.958
REMARK  3 active torsions:
REMARK  status: ('A' for Active; 'I' for Inactive)
REMARK    1  A    between atoms: N_10  and  C_3 
REMARK    2  A    between atoms: C_11  and  C_5 
REMARK    3  A    between atoms: C_15  and  N_10 
ROOT
ATOM      1  N   UNL d   1     -41.710-121.518 -53.050  0.00  0.00    -0.184 N 
ATOM      2  C   UNL d   1     -41.847-122.145 -53.597  0.00  0.00     0.168 A 
ATOM      3  C   UNL d   1     -41.471-121.694 -52.274  0.00  0.00     0.217 A 
ATOM      4  N   UNL d   1     -42.051-120.567 -54.056  0.00  0.00    -0.162 NA
ATOM      5  C   UNL d   1     -42.080-121.975 -54.354  0.00  0.00     0.055 A 
ATOM      6  N   UNL d   1     -41.739-122.926 -53.348  0.00  0.00    -0.227 NA
ATOM      7  C   UNL d   1     -41.370-122.470 -52.044  0.00  0.00     0.066 A 
ATOM      8  C   UNL d   1     -42.185-121.184 -54.595  0.00  0.00     0.104 A 
ATOM      9  C   UNL d   1     -41.504-123.103 -52.585  0.00  0.00     0.087 A 
ATOM     10  C   UNL d   1     -41.145-122.809 -51.338  0.00  0.00     0.006 A 
ATOM     11  C   UNL d   1     -42.422-121.020 -55.364  0.00  0.00     0.023 C 
ATOM     12  C   UNL d   1     -41.358-123.814 -52.198  0.00  0.00     0.019 A 
ATOM     13  C   UNL d   1     -41.133-123.627 -51.417  0.00  0.00     0.002 A 
ENDROOT
BRANCH   5  14
ATOM     14  C   UNL d   1     -42.214-122.588 -54.890  0.00  0.00     0.004 A 
ATOM     15  C   UNL d   1     -41.579-123.021 -55.192  0.00  0.00     0.000 A 
ATOM     16  C   UNL d   1     -41.708-123.632 -55.725  0.00  0.00     0.000 A 
ATOM     17  C   UNL d   1     -42.481-123.816 -55.960  0.00  0.00     0.000 A 
ATOM     18  C   UNL d   1     -43.113-123.394 -55.667  0.00  0.00     0.000 A 
ATOM     19  C   UNL d   1     -42.978-122.774 -55.126  0.00  0.00     0.000 A 
ENDBRANCH   5  14
BRANCH   3  20
ATOM     20  N   UNL d   1     -41.333-121.064 -51.720  0.00  0.00    -0.383 NA
BRANCH  20  21
ATOM     21  C   UNL d   1     -41.196-120.437 -51.174  0.00  0.00     0.134 C 
ATOM     22  C   UNL d   1     -41.131-120.610 -50.351  0.00  0.00     0.035 C 
ATOM     23  C   UNL d   1     -41.123-119.636 -51.458  0.00  0.00     0.035 C 
ENDBRANCH  20  21
ENDBRANCH   3  20
TORSDOF 3
ENDMDL
MODEL 4
REMARK VINA RESULT:      11.2      1.365      2.056
REMARK  3 active torsions:
REMARK  status: ('A' for Active; 'I' for Inactive)
REMARK    1  A    between atoms: N_10  and  C_3 
REMARK    2  A    between atoms: C_11  and  C_5 
REMARK    3  A    between atoms: C_15  and  N_10 
ROOT
ATOM      1  N   UNL d   1     -42.038-122.098 -52.384  0.00  0.00    -0.184 N 
ATOM      2  C   UNL d   1     -41.941-121.932 -51.563  0.00  0.00     0.168 A 
ATOM      3  C   UNL d   1     -41.853-121.515 -52.946  0.00  0.00     0.217 A 
ATOM      4  N   UNL d   1     -42.496-123.410 -52.065  0.00  0.00    -0.162 NA
ATOM      5  C   UNL d   1     -42.121-122.501 -51.014  0.00  0.00     0.055 A 
ATOM      6  N   UNL d   1     -41.662-121.189 -51.334  0.00  0.00    -0.227 NA
ATOM      7  C   UNL d   1     -41.579-120.786 -52.704  0.00  0.00     0.066 A 
ATOM      8  C   UNL d   1     -42.400-123.247 -51.256  0.00  0.00     0.104 A 
ATOM      9  C   UNL d   1     -41.479-120.612 -51.885  0.00  0.00     0.087 A 
ATOM     10  C   UNL d   1     -41.357-120.118 -53.113  0.00  0.00     0.006 A 
ATOM     11  C   UNL d   1     -42.581-123.817 -50.693  0.00  0.00     0.023 C 
ATOM     12  C   UNL d   1     -41.199-119.842 -51.812  0.00  0.00     0.019 A 
ATOM     13  C   UNL d   1     -41.123-119.535 -52.584  0.00  0.00     0.002 A 
ENDROOT
BRANCH   5  14
ATOM     14  C   UNL d   1     -42.025-122.338 -50.211  0.00  0.00     0.004 A 
ATOM     15  C   UNL d   1     -42.662-122.060 -49.766  0.00  0.00     0.000 A 
ATOM     16  C   UNL d   1     -42.571-121.897 -48.966  0.00  0.00     0.000 A 
ATOM     17  C   UNL d   1     -41.835-122.013 -48.603  0.00  0.00     0.000 A 
ATOM     18  C   UNL d   1     -41.201-122.288 -49.036  0.00  0.00     0.000 A 
ATOM     19  C   UNL d   1     -41.297-122.453 -49.848  0.00  0.00     0.000 A 
ENDBRANCH   5  14
BRANCH   3  20
ATOM     20  N   UNL d   1     -41.950-121.679 -53.775  0.00  0.00    -0.383 NA
BRANCH  20  21
ATOM     21  C   UNL d   1     -42.043-121.846 -54.596  0.00  0.00     0.134 C 
ATOM     22  C   UNL d   1     -41.446-122.281 -55.001  0.00  0.00     0.035 C 
ATOM     23  C   UNL d   1     -42.739-121.574 -55.008  0.00  0.00     0.035 C 
ENDBRANCH  20  21
ENDBRANCH   3  20
TORSDOF 3
ENDMDL
