MODEL 1
REMARK VINA RESULT:      42.8      0.000      0.000
REMARK  3 active torsions:
REMARK  status: ('A' for Active; 'I' for Inactive)
REMARK    1  A    between atoms: C_6  and  C_1 
REMARK    2  A    between atoms: N_7  and  C_2 
REMARK    3  A    between atoms: C_9  and  C_5 
REMARK       I    between atoms: N_8  and  C_6 
ROOT
ATOM      1  C   UNL d   1      45.940 -17.720  43.255  0.00  0.00     0.106 A 
ATOM      2  C   UNL d   1      45.743 -16.381  43.686  0.00  0.00     0.180 A 
ATOM      3  N   UNL d   1      45.721 -16.381  42.877  0.00  0.00    -0.222 NA
ATOM      4  S   UNL d   1      45.869 -17.147  43.925  0.00  0.00    -0.044 SA
ATOM      5  C   UNL d   1      45.831 -17.135  42.617  0.00  0.00     0.094 A 
ENDROOT
BRANCH   1   6
ATOM      6  C   UNL d   1      46.069 -18.525  43.391  0.00  0.00     0.272 C 
ATOM      7  N   UNL d   1      45.618 -18.931  43.965  0.00  0.00    -0.272 N 
ATOM      8  C   UNL d   1      45.022 -18.930  44.549  0.00  0.00     0.083 A 
ATOM      9  C   UNL d   1      46.029 -19.624  43.789  0.00  0.00     0.083 A 
ATOM     10  C   UNL d   1      44.840 -19.625  44.955  0.00  0.00     0.019 A 
ATOM     11  C   UNL d   1      45.252 -20.330  44.781  0.00  0.00     0.003 A 
ATOM     12  C   UNL d   1      45.844 -20.328  44.200  0.00  0.00     0.019 A 
ATOM     13  O   UNL d   1      46.643 -18.938  42.964  0.00  0.00    -0.266 OA
ENDBRANCH   1   6
BRANCH   5  14
ATOM     14  C   UNL d   1      45.864 -17.481  41.877  0.00  0.00     0.018 A 
ATOM     15  C   UNL d   1      46.548 -17.501  41.463  0.00  0.00     0.002 A 
ATOM     16  C   UNL d   1      46.577 -17.837  40.747  0.00  0.00     0.000 A 
ATOM     17  C   UNL d   1      45.919 -18.162  40.428  0.00  0.00     0.000 A 
ATOM     18  C   UNL d   1      45.221 -18.151  40.830  0.00  0.00     0.000 A 
ATOM     19  C   UNL d   1      45.203 -17.808  41.555  0.00  0.00     0.002 A 
ENDBRANCH   5  14
BRANCH   2  20
ATOM     20  N   UNL d   1      45.636 -15.644  43.962  0.00  0.00    -0.280 N 
ATOM     21  C   UNL d   1      45.203 -15.518  44.659  0.00  0.00     0.109 A 
ATOM     22  C   UNL d   1      45.093 -14.756  44.944  0.00  0.00     0.142 A 
ATOM     23  O   UNL d   1      45.414 -14.111  44.537  0.00  0.00    -0.300 OA
ATOM     24  C   UNL d   1      45.849 -14.231  43.837  0.00  0.00     0.142 A 
ATOM     25  C   UNL d   1      45.960 -14.997  43.550  0.00  0.00     0.109 A 
ENDBRANCH   2  20
TORSDOF 3
ENDMDL
