MODEL 1
REMARK VINA RESULT:      -1.4      0.000      0.000
REMARK  5 active torsions:
REMARK  status: ('A' for Active; 'I' for Inactive)
REMARK    1  A    between atoms: C_7  and  C_1 
REMARK    2  A    between atoms: N_8  and  C_7 
REMARK    3  A    between atoms: C_9  and  N_8 
REMARK    4  A    between atoms: O_17  and  C_13 
REMARK    5  A    between atoms: O_20  and  C_15 
ROOT
ATOM      1  C   UNL d   1      32.888  18.927 -23.337  0.00  0.00     0.145 A 
ATOM      2  C   UNL d   1      32.928  18.338 -22.760  0.00  0.00     0.305 A 
ATOM      3  C   UNL d   1      32.577  18.756 -24.080  0.00  0.00     0.305 A 
ATOM      4  O   UNL d   1      32.305  17.996 -24.247  0.00  0.00    -0.269 OA
ATOM      5  O   UNL d   1      32.657  17.587 -22.932  0.00  0.00    -0.269 OA
ATOM      6  C   UNL d   1      32.345  17.416 -23.674  0.00  0.00     0.242 A 
ATOM      7  O   UNL d   1      32.536  19.349 -24.667  0.00  0.00    -0.259 OA
ATOM      8  O   UNL d   1      33.239  18.509 -22.017  0.00  0.00    -0.259 OA
ATOM      9  C   UNL d   1      32.143  17.655 -24.436  0.00  0.00     0.035 A 
ATOM     10  C   UNL d   1      32.209  16.627 -23.436  0.00  0.00     0.035 A 
ATOM     11  C   UNL d   1      31.872  16.089 -23.962  0.00  0.00     0.001 A 
ATOM     12  C   UNL d   1      31.806  17.119 -24.963  0.00  0.00     0.001 A 
ATOM     13  C   UNL d   1      31.669  16.331 -24.724  0.00  0.00    -0.000 A 
ENDROOT
BRANCH   1  14
ATOM     14  C   UNL d   1      33.163  19.693 -23.170  0.00  0.00     0.110 C 
BRANCH  14  15
ATOM     15  N   UNL d   1      32.868  20.104 -22.518  0.00  0.00    -0.242 NA
BRANCH  15  16
ATOM     16  C   UNL d   1      32.985  20.918 -22.460  0.00  0.00     0.106 A 
ATOM     17  C   UNL d   1      33.055  21.375 -23.141  0.00  0.00     0.045 A 
ATOM     18  C   UNL d   1      33.171  22.183 -23.087  0.00  0.00     0.096 A 
ATOM     19  C   UNL d   1      33.218  22.548 -22.338  0.00  0.00     0.026 A 
ATOM     20  C   UNL d   1      33.148  22.091 -21.657  0.00  0.00     0.028 A 
ATOM     21  C   UNL d   1      33.031  21.274 -21.717  0.00  0.00     0.112 A 
BRANCH  18  22
ATOM     22  O   UNL d   1      33.241  22.635 -23.768  0.00  0.00    -0.328 OA
ATOM     23  C   UNL d   1      32.941  23.403 -23.791  0.00  0.00     0.181 C 
ENDBRANCH  18  22
BRANCH  21  24
ATOM     24  O   UNL d   1      32.960  20.817 -21.036  0.00  0.00    -0.327 OA
ATOM     25  C   UNL d   1      32.839  21.178 -20.310  0.00  0.00     0.181 C 
ENDBRANCH  21  24
ENDBRANCH  15  16
ENDBRANCH  14  15
ENDBRANCH   1  14
TORSDOF 5
ENDMDL
MODEL 2
REMARK VINA RESULT:      -1.1      0.701      2.076
REMARK  5 active torsions:
REMARK  status: ('A' for Active; 'I' for Inactive)
REMARK    1  A    between atoms: C_7  and  C_1 
REMARK    2  A    between atoms: N_8  and  C_7 
REMARK    3  A    between atoms: C_9  and  N_8 
REMARK    4  A    between atoms: O_17  and  C_13 
REMARK    5  A    between atoms: O_20  and  C_15 
ROOT
ATOM      1  C   UNL d   1      33.006  19.586 -23.351  0.00  0.00     0.145 A 
ATOM      2  C   UNL d   1      33.012  19.645 -24.175  0.00  0.00     0.305 A 
ATOM      3  C   UNL d   1      32.777  18.883 -22.990  0.00  0.00     0.305 A 
ATOM      4  O   UNL d   1      32.555  18.237 -23.450  0.00  0.00    -0.269 OA
ATOM      5  O   UNL d   1      32.790  19.000 -24.626  0.00  0.00    -0.269 OA
ATOM      6  C   UNL d   1      32.562  18.297 -24.264  0.00  0.00     0.242 A 
ATOM      7  O   UNL d   1      32.770  18.820 -22.157  0.00  0.00    -0.259 OA
ATOM      8  O   UNL d   1      33.241  20.348 -24.536  0.00  0.00    -0.259 OA
ATOM      9  C   UNL d   1      32.426  17.857 -23.582  0.00  0.00     0.035 A 
ATOM     10  C   UNL d   1      32.435  17.953 -25.014  0.00  0.00     0.035 A 
ATOM     11  C   UNL d   1      32.174  17.172 -25.071  0.00  0.00     0.001 A 
ATOM     12  C   UNL d   1      32.166  17.077 -23.636  0.00  0.00     0.001 A 
ATOM     13  C   UNL d   1      32.039  16.733 -24.386  0.00  0.00    -0.000 A 
ENDROOT
BRANCH   1  14
ATOM     14  C   UNL d   1      33.230  20.237 -22.886  0.00  0.00     0.110 C 
BRANCH  14  15
ATOM     15  N   UNL d   1      32.815  20.948 -22.943  0.00  0.00    -0.242 NA
BRANCH  15  16
ATOM     16  C   UNL d   1      32.894  21.517 -22.351  0.00  0.00     0.106 A 
ATOM     17  C   UNL d   1      32.937  21.288 -21.561  0.00  0.00     0.045 A 
ATOM     18  C   UNL d   1      33.015  21.850 -20.972  0.00  0.00     0.096 A 
ATOM     19  C   UNL d   1      33.052  22.660 -21.170  0.00  0.00     0.026 A 
ATOM     20  C   UNL d   1      33.010  22.888 -21.960  0.00  0.00     0.028 A 
ATOM     21  C   UNL d   1      32.930  22.316 -22.553  0.00  0.00     0.112 A 
BRANCH  18  22
ATOM     22  O   UNL d   1      33.057  21.618 -20.186  0.00  0.00    -0.328 OA
ATOM     23  C   UNL d   1      33.240  22.168 -19.599  0.00  0.00     0.181 C 
ENDBRANCH  18  22
BRANCH  21  24
ATOM     24  O   UNL d   1      32.888  22.545 -23.342  0.00  0.00    -0.327 OA
ATOM     25  C   UNL d   1      32.958  23.336 -23.546  0.00  0.00     0.181 C 
ENDBRANCH  21  24
ENDBRANCH  15  16
ENDBRANCH  14  15
ENDBRANCH   1  14
TORSDOF 5
ENDMDL
MODEL 3
REMARK VINA RESULT:       0.6      0.932      2.239
REMARK  5 active torsions:
REMARK  status: ('A' for Active; 'I' for Inactive)
REMARK    1  A    between atoms: C_7  and  C_1 
REMARK    2  A    between atoms: N_8  and  C_7 
REMARK    3  A    between atoms: C_9  and  N_8 
REMARK    4  A    between atoms: O_17  and  C_13 
REMARK    5  A    between atoms: O_20  and  C_15 
ROOT
ATOM      1  C   UNL d   1      32.247  18.276 -23.806  0.00  0.00     0.145 A 
ATOM      2  C   UNL d   1      32.009  18.303 -24.595  0.00  0.00     0.305 A 
ATOM      3  C   UNL d   1      31.976  17.675 -23.313  0.00  0.00     0.305 A 
ATOM      4  O   UNL d   1      31.465  17.100 -23.609  0.00  0.00    -0.269 OA
ATOM      5  O   UNL d   1      31.503  17.729 -24.883  0.00  0.00    -0.269 OA
ATOM      6  C   UNL d   1      31.231  17.128 -24.390  0.00  0.00     0.242 A 
ATOM      7  O   UNL d   1      32.215  17.645 -22.513  0.00  0.00    -0.259 OA
ATOM      8  O   UNL d   1      32.281  18.903 -25.088  0.00  0.00    -0.259 OA
ATOM      9  C   UNL d   1      31.210  16.765 -23.651  0.00  0.00     0.035 A 
ATOM     10  C   UNL d   1      30.793  16.807 -25.023  0.00  0.00     0.035 A 
ATOM     11  C   UNL d   1      30.340  16.127 -24.909  0.00  0.00     0.001 A 
ATOM     12  C   UNL d   1      30.759  16.086 -23.535  0.00  0.00     0.001 A 
ATOM     13  C   UNL d   1      30.321  15.765 -24.168  0.00  0.00    -0.000 A 
ENDROOT
BRANCH   1  14
ATOM     14  C   UNL d   1      32.763  18.856 -23.506  0.00  0.00     0.110 C 
BRANCH  14  15
ATOM     15  N   UNL d   1      32.618  19.654 -23.657  0.00  0.00    -0.242 NA
BRANCH  15  16
ATOM     16  C   UNL d   1      32.818  20.220 -23.091  0.00  0.00     0.106 A 
ATOM     17  C   UNL d   1      32.814  20.025 -22.292  0.00  0.00     0.045 A 
ATOM     18  C   UNL d   1      33.012  20.584 -21.729  0.00  0.00     0.096 A 
ATOM     19  C   UNL d   1      33.219  21.357 -21.964  0.00  0.00     0.026 A 
ATOM     20  C   UNL d   1      33.223  21.553 -22.764  0.00  0.00     0.028 A 
ATOM     21  C   UNL d   1      33.022  20.983 -23.330  0.00  0.00     0.112 A 
BRANCH  18  22
ATOM     22  O   UNL d   1      33.006  20.385 -20.933  0.00  0.00    -0.328 OA
ATOM     23  C   UNL d   1      33.190  20.951 -20.361  0.00  0.00     0.181 C 
ENDBRANCH  18  22
BRANCH  21  24
ATOM     24  O   UNL d   1      33.026  21.178 -24.130  0.00  0.00    -0.327 OA
ATOM     25  C   UNL d   1      33.237  21.934 -24.367  0.00  0.00     0.181 C 
ENDBRANCH  21  24
ENDBRANCH  15  16
ENDBRANCH  14  15
ENDBRANCH   1  14
TORSDOF 5
ENDMDL
MODEL 4
REMARK VINA RESULT:       1.4      1.272      5.099
REMARK  5 active torsions:
REMARK  status: ('A' for Active; 'I' for Inactive)
REMARK    1  A    between atoms: C_7  and  C_1 
REMARK    2  A    between atoms: N_8  and  C_7 
REMARK    3  A    between atoms: C_9  and  N_8 
REMARK    4  A    between atoms: O_17  and  C_13 
REMARK    5  A    between atoms: O_20  and  C_15 
ROOT
ATOM      1  C   UNL d   1      33.113  21.426 -21.614  0.00  0.00     0.145 A 
ATOM      2  C   UNL d   1      33.112  22.215 -21.857  0.00  0.00     0.305 A 
ATOM      3  C   UNL d   1      32.989  21.239 -20.822  0.00  0.00     0.305 A 
ATOM      4  O   UNL d   1      32.863  21.839 -20.272  0.00  0.00    -0.269 OA
ATOM      5  O   UNL d   1      32.986  22.806 -21.307  0.00  0.00    -0.269 OA
ATOM      6  C   UNL d   1      32.862  22.618 -20.515  0.00  0.00     0.242 A 
ATOM      7  O   UNL d   1      32.990  20.441 -20.572  0.00  0.00    -0.259 OA
ATOM      8  O   UNL d   1      33.236  22.403 -22.649  0.00  0.00    -0.259 OA
ATOM      9  C   UNL d   1      32.791  22.057 -19.917  0.00  0.00     0.035 A 
ATOM     10  C   UNL d   1      32.787  23.430 -20.334  0.00  0.00     0.035 A 
ATOM     11  C   UNL d   1      32.642  23.669 -19.558  0.00  0.00     0.001 A 
ATOM     12  C   UNL d   1      32.646  22.292 -19.142  0.00  0.00     0.001 A 
ATOM     13  C   UNL d   1      32.571  23.104 -18.961  0.00  0.00    -0.000 A 
ENDROOT
BRANCH   1  14
ATOM     14  C   UNL d   1      33.241  20.820 -22.168  0.00  0.00     0.110 C 
BRANCH  14  15
ATOM     15  N   UNL d   1      32.669  20.657 -22.741  0.00  0.00    -0.242 NA
BRANCH  15  16
ATOM     16  C   UNL d   1      32.738  19.981 -23.207  0.00  0.00     0.106 A 
ATOM     17  C   UNL d   1      32.930  19.259 -22.862  0.00  0.00     0.045 A 
ATOM     18  C   UNL d   1      32.999  18.586 -23.322  0.00  0.00     0.096 A 
ATOM     19  C   UNL d   1      32.874  18.629 -24.146  0.00  0.00     0.026 A 
ATOM     20  C   UNL d   1      32.682  19.351 -24.491  0.00  0.00     0.028 A 
ATOM     21  C   UNL d   1      32.613  20.030 -24.021  0.00  0.00     0.112 A 
BRANCH  18  22
ATOM     22  O   UNL d   1      33.191  17.868 -22.974  0.00  0.00    -0.328 OA
ATOM     23  C   UNL d   1      33.097  17.163 -23.393  0.00  0.00     0.181 C 
ENDBRANCH  18  22
BRANCH  21  24
ATOM     24  O   UNL d   1      32.421  20.752 -24.367  0.00  0.00    -0.327 OA
ATOM     25  C   UNL d   1      32.050  20.772 -25.097  0.00  0.00     0.181 C 
ENDBRANCH  21  24
ENDBRANCH  15  16
ENDBRANCH  14  15
ENDBRANCH   1  14
TORSDOF 5
ENDMDL
