MODEL 1
REMARK VINA RESULT:      -3.1      0.000      0.000
REMARK  5 active torsions:
REMARK  status: ('A' for Active; 'I' for Inactive)
REMARK    1  A    between atoms: C_7  and  N_1 
REMARK    2  A    between atoms: C_12  and  C_3 
REMARK    3  A    between atoms: C_8  and  S_15 
REMARK    4  A    between atoms: C_16  and  C_12 
REMARK    5  A    between atoms: S_15  and  C_16 
ROOT
ATOM      1  N   UNL d   1      56.301  -0.435  32.819  0.00  0.00    -0.304 N 
ATOM      2  C   UNL d   1      56.823  -0.093  32.282  0.00  0.00     0.067 A 
ATOM      3  C   UNL d   1      57.015  -0.661  31.714  0.00  0.00     0.057 A 
ATOM      4  C   UNL d   1      56.167  -1.207  32.588  0.00  0.00     0.064 A 
ATOM      5  C   UNL d   1      56.603  -1.357  31.907  0.00  0.00     0.022 A 
ATOM      6  C   UNL d   1      57.102   0.682  32.315  0.00  0.00     0.019 C 
ATOM      7  C   UNL d   1      55.844  -1.963  32.627  0.00  0.00     0.019 C 
ENDROOT
BRANCH   3   8
ATOM      8  C   UNL d   1      57.392  -0.962  31.032  0.00  0.00     0.204 C 
ATOM      9  O   UNL d   1      57.448  -0.490  30.347  0.00  0.00    -0.286 OA
BRANCH   8  10
ATOM     10  C   UNL d   1      57.790  -1.578  30.652  0.00  0.00     0.080 C 
BRANCH  10  11
ATOM     11  S   UNL d   1      58.151  -1.443  29.918  0.00  0.00    -0.043 SA
BRANCH  11  12
ATOM     12  C   UNL d   1      58.639  -2.017  29.584  0.00  0.00     0.233 A 
ATOM     13  N   UNL d   1      59.462  -1.995  29.559  0.00  0.00    -0.029 NA
ATOM     14  C   UNL d   1      59.719  -2.677  29.177  0.00  0.00     0.788 A 
ATOM     15  N   UNL d   1      60.505  -2.884  29.029  0.00  0.00     0.064 N 
ATOM     16  N   UNL d   1      59.054  -3.115  28.969  0.00  0.00     0.050 NA
ATOM     17  N   UNL d   1      58.375  -2.708  29.221  0.00  0.00    -0.105 NA
ENDBRANCH  11  12
ENDBRANCH  10  11
ENDBRANCH   8  10
ENDBRANCH   3   8
BRANCH   1  18
ATOM     18  C   UNL d   1      55.967  -0.059  33.480  0.00  0.00     0.094 A 
ATOM     19  C   UNL d   1      56.397   0.005  34.143  0.00  0.00     0.050 A 
ATOM     20  C   UNL d   1      56.057   0.384  34.805  0.00  0.00     0.142 A 
ATOM     21  F   UNL d   1      56.496   0.457  35.507  0.00  0.00    -0.204 F 
ATOM     22  C   UNL d   1      55.292   0.682  34.764  0.00  0.00     0.032 A 
ATOM     23  C   UNL d   1      54.857   0.611  34.077  0.00  0.00     0.034 A 
ATOM     24  C   UNL d   1      55.195   0.236  33.423  0.00  0.00     0.156 A 
ATOM     25  F   UNL d   1      54.492   0.364  32.982  0.00  0.00    -0.203 F 
ENDBRANCH   1  18
TORSDOF 5
ENDMDL
MODEL 2
REMARK VINA RESULT:      -3.0      0.550      1.176
REMARK  5 active torsions:
REMARK  status: ('A' for Active; 'I' for Inactive)
REMARK    1  A    between atoms: C_7  and  N_1 
REMARK    2  A    between atoms: C_12  and  C_3 
REMARK    3  A    between atoms: C_8  and  S_15 
REMARK    4  A    between atoms: C_16  and  C_12 
REMARK    5  A    between atoms: S_15  and  C_16 
ROOT
ATOM      1  N   UNL d   1      56.453  -0.403  32.684  0.00  0.00    -0.304 N 
ATOM      2  C   UNL d   1      56.995  -0.071  32.162  0.00  0.00     0.067 A 
ATOM      3  C   UNL d   1      57.149  -0.623  31.567  0.00  0.00     0.057 A 
ATOM      4  C   UNL d   1      56.269  -1.153  32.419  0.00  0.00     0.064 A 
ATOM      5  C   UNL d   1      56.694  -1.300  31.729  0.00  0.00     0.022 A 
ATOM      6  C   UNL d   1      57.323   0.682  32.229  0.00  0.00     0.019 C 
ATOM      7  C   UNL d   1      55.898  -1.889  32.425  0.00  0.00     0.019 C 
ENDROOT
BRANCH   3   8
ATOM      8  C   UNL d   1      57.506  -0.916  30.871  0.00  0.00     0.204 C 
ATOM      9  O   UNL d   1      57.565  -0.427  30.198  0.00  0.00    -0.286 OA
BRANCH   8  10
ATOM     10  C   UNL d   1      57.877  -1.533  30.466  0.00  0.00     0.080 C 
BRANCH  10  11
ATOM     11  S   UNL d   1      58.405  -1.362  29.851  0.00  0.00    -0.043 SA
BRANCH  11  12
ATOM     12  C   UNL d   1      58.799  -1.972  29.460  0.00  0.00     0.233 A 
ATOM     13  N   UNL d   1      58.475  -2.701  29.255  0.00  0.00    -0.029 NA
ATOM     14  C   UNL d   1      59.060  -3.137  28.876  0.00  0.00     0.788 A 
ATOM     15  N   UNL d   1      58.979  -3.902  28.575  0.00  0.00     0.064 N 
ATOM     16  N   UNL d   1      59.741  -2.675  28.849  0.00  0.00     0.050 NA
ATOM     17  N   UNL d   1      59.584  -1.945  29.213  0.00  0.00    -0.105 NA
ENDBRANCH  11  12
ENDBRANCH  10  11
ENDBRANCH   8  10
ENDBRANCH   3   8
BRANCH   1  18
ATOM     18  C   UNL d   1      56.145  -0.038  33.363  0.00  0.00     0.094 A 
ATOM     19  C   UNL d   1      55.360   0.053  33.429  0.00  0.00     0.050 A 
ATOM     20  C   UNL d   1      55.056   0.422  34.114  0.00  0.00     0.142 A 
ATOM     21  F   UNL d   1      54.235   0.523  34.195  0.00  0.00    -0.204 F 
ATOM     22  C   UNL d   1      55.564   0.682  34.705  0.00  0.00     0.032 A 
ATOM     23  C   UNL d   1      56.371   0.584  34.629  0.00  0.00     0.034 A 
ATOM     24  C   UNL d   1      56.670   0.220  33.950  0.00  0.00     0.156 A 
ATOM     25  F   UNL d   1      57.452   0.309  34.243  0.00  0.00    -0.203 F 
ENDBRANCH   1  18
TORSDOF 5
ENDMDL
MODEL 3
REMARK VINA RESULT:      -1.2      2.660      5.664
REMARK  5 active torsions:
REMARK  status: ('A' for Active; 'I' for Inactive)
REMARK    1  A    between atoms: C_7  and  N_1 
REMARK    2  A    between atoms: C_12  and  C_3 
REMARK    3  A    between atoms: C_8  and  S_15 
REMARK    4  A    between atoms: C_16  and  C_12 
REMARK    5  A    between atoms: S_15  and  C_16 
ROOT
ATOM      1  N   UNL d   1      58.926  -1.377  29.390  0.00  0.00    -0.304 N 
ATOM      2  C   UNL d   1      58.322  -1.313  29.946  0.00  0.00     0.067 A 
ATOM      3  C   UNL d   1      58.203  -0.511  30.104  0.00  0.00     0.057 A 
ATOM      4  C   UNL d   1      59.181  -0.625  29.203  0.00  0.00     0.064 A 
ATOM      5  C   UNL d   1      58.740  -0.082  29.638  0.00  0.00     0.022 A 
ATOM      6  C   UNL d   1      57.914  -1.945  30.282  0.00  0.00     0.019 C 
ATOM      7  C   UNL d   1      59.634  -0.051  28.822  0.00  0.00     0.019 C 
ENDROOT
BRANCH   3   8
ATOM      8  C   UNL d   1      57.847   0.151  30.469  0.00  0.00     0.204 C 
ATOM      9  O   UNL d   1      57.382   0.674  30.017  0.00  0.00    -0.286 OA
BRANCH   8  10
ATOM     10  C   UNL d   1      57.711   0.602  31.147  0.00  0.00     0.080 C 
BRANCH  10  11
ATOM     11  S   UNL d   1      56.998   0.520  31.560  0.00  0.00    -0.043 SA
BRANCH  11  12
ATOM     12  C   UNL d   1      56.988   0.550  32.383  0.00  0.00     0.233 A 
ATOM     13  N   UNL d   1      56.315   0.609  32.856  0.00  0.00    -0.029 NA
ATOM     14  C   UNL d   1      56.561   0.622  33.640  0.00  0.00     0.788 A 
ATOM     15  N   UNL d   1      56.071   0.675  34.303  0.00  0.00     0.064 N 
ATOM     16  N   UNL d   1      57.383   0.571  33.648  0.00  0.00     0.050 NA
ATOM     17  N   UNL d   1      57.656   0.527  32.864  0.00  0.00    -0.105 NA
ENDBRANCH  11  12
ENDBRANCH  10  11
ENDBRANCH   8  10
ENDBRANCH   3   8
BRANCH   1  18
ATOM     18  C   UNL d   1      59.224  -2.085  29.075  0.00  0.00     0.094 A 
ATOM     19  C   UNL d   1      58.729  -2.694  28.961  0.00  0.00     0.050 A 
ATOM     20  C   UNL d   1      59.034  -3.404  28.643  0.00  0.00     0.142 A 
ATOM     21  F   UNL d   1      58.526  -4.049  28.519  0.00  0.00    -0.204 F 
ATOM     22  C   UNL d   1      59.831  -3.464  28.455  0.00  0.00     0.032 A 
ATOM     23  C   UNL d   1      60.334  -2.832  28.576  0.00  0.00     0.034 A 
ATOM     24  C   UNL d   1      60.030  -2.131  28.890  0.00  0.00     0.156 A 
ATOM     25  F   UNL d   1      60.793  -1.781  28.855  0.00  0.00    -0.203 F 
ENDBRANCH   1  18
TORSDOF 5
ENDMDL
MODEL 4
REMARK VINA RESULT:      -0.9      2.628      5.500
REMARK  5 active torsions:
REMARK  status: ('A' for Active; 'I' for Inactive)
REMARK    1  A    between atoms: C_7  and  N_1 
REMARK    2  A    between atoms: C_12  and  C_3 
REMARK    3  A    between atoms: C_8  and  S_15 
REMARK    4  A    between atoms: C_16  and  C_12 
REMARK    5  A    between atoms: S_15  and  C_16 
ROOT
ATOM      1  N   UNL d   1      58.440  -0.386  30.585  0.00  0.00    -0.304 N 
ATOM      2  C   UNL d   1      57.693  -0.400  30.931  0.00  0.00     0.067 A 
ATOM      3  C   UNL d   1      57.718   0.061  31.616  0.00  0.00     0.057 A 
ATOM      4  C   UNL d   1      58.926   0.078  31.048  0.00  0.00     0.064 A 
ATOM      5  C   UNL d   1      58.490   0.360  31.688  0.00  0.00     0.022 A 
ATOM      6  C   UNL d   1      57.039  -0.807  30.637  0.00  0.00     0.019 C 
ATOM      7  C   UNL d   1      59.624   0.454  31.274  0.00  0.00     0.019 C 
ENDROOT
BRANCH   3   8
ATOM      8  C   UNL d   1      57.415   0.420  32.306  0.00  0.00     0.204 C 
ATOM      9  O   UNL d   1      57.937   0.674  32.905  0.00  0.00    -0.286 OA
BRANCH   8  10
ATOM     10  C   UNL d   1      56.768   0.681  32.747  0.00  0.00     0.080 C 
BRANCH  10  11
ATOM     11  S   UNL d   1      56.723   0.509  33.556  0.00  0.00    -0.043 SA
BRANCH  11  12
ATOM     12  C   UNL d   1      55.998   0.533  33.947  0.00  0.00     0.233 A 
ATOM     13  N   UNL d   1      55.889   0.493  34.762  0.00  0.00    -0.029 NA
ATOM     14  C   UNL d   1      55.081   0.536  34.909  0.00  0.00     0.788 A 
ATOM     15  N   UNL d   1      54.719   0.517  35.651  0.00  0.00     0.064 N 
ATOM     16  N   UNL d   1      54.696   0.603  34.183  0.00  0.00     0.050 NA
ATOM     17  N   UNL d   1      55.265   0.601  33.578  0.00  0.00    -0.105 NA
ENDBRANCH  11  12
ENDBRANCH  10  11
ENDBRANCH   8  10
ENDBRANCH   3   8
BRANCH   1  18
ATOM     18  C   UNL d   1      58.661  -0.777  29.887  0.00  0.00     0.094 A 
ATOM     19  C   UNL d   1      58.740  -1.566  29.896  0.00  0.00     0.050 A 
ATOM     20  C   UNL d   1      58.962  -1.954  29.190  0.00  0.00     0.142 A 
ATOM     21  F   UNL d   1      59.049  -2.780  29.186  0.00  0.00    -0.204 F 
ATOM     22  C   UNL d   1      59.094  -1.521  28.504  0.00  0.00     0.032 A 
ATOM     23  C   UNL d   1      59.010  -0.709  28.504  0.00  0.00     0.034 A 
ATOM     24  C   UNL d   1      58.790  -0.328  29.203  0.00  0.00     0.156 A 
ATOM     25  F   UNL d   1      58.815   0.414  28.809  0.00  0.00    -0.203 F 
ENDBRANCH   1  18
TORSDOF 5
ENDMDL
