MODEL 1
REMARK VINA RESULT:      -2.6      0.000      0.000
REMARK  4 active torsions:
REMARK  status: ('A' for Active; 'I' for Inactive)
REMARK    1  A    between atoms: S_11  and  C_2 
REMARK    2  A    between atoms: C_7  and  C_3 
REMARK    3  A    between atoms: C_17  and  S_11 
REMARK    4  A    between atoms: C_13  and  C_17 
ROOT
ATOM      1  C   UNL d   1      31.675  17.280 -24.014  0.00  0.00     0.092 A 
ATOM      2  C   UNL d   1      31.418  16.542 -23.795  0.00  0.00     0.124 A 
ATOM      3  C   UNL d   1      32.458  17.513 -23.844  0.00  0.00     0.017 A 
ATOM      4  N   UNL d   1      31.938  16.022 -23.401  0.00  0.00    -0.201 NA
ATOM      5  C   UNL d   1      32.711  16.256 -23.235  0.00  0.00     0.280 A 
ATOM      6  C   UNL d   1      31.160  17.799 -24.406  0.00  0.00     0.103 C 
ATOM      7  N   UNL d   1      30.638  18.313 -24.798  0.00  0.00    -0.191 NA
ATOM      8  C   UNL d   1      32.969  16.995 -23.455  0.00  0.00     0.063 A 
ATOM      9  O   UNL d   1      33.227  15.737 -22.844  0.00  0.00    -0.265 OA
ENDROOT
BRANCH   2  10
ATOM     10  S   UNL d   1      30.640  16.308 -23.963  0.00  0.00    -0.067 SA
BRANCH  10  11
ATOM     11  C   UNL d   1      30.247  15.766 -23.466  0.00  0.00     0.037 C 
BRANCH  11  12
ATOM     12  C   UNL d   1      29.392  15.458 -23.609  0.00  0.00     0.007 C 
ATOM     13  C   UNL d   1      28.633  15.460 -22.945  0.00  0.00     0.001 C 
ENDBRANCH  11  12
ENDBRANCH  10  11
ENDBRANCH   2  10
BRANCH   3  14
ATOM     14  C   UNL d   1      32.719  18.260 -24.066  0.00  0.00     0.011 A 
ATOM     15  C   UNL d   1      32.858  18.824 -23.499  0.00  0.00     0.058 A 
ATOM     16 CL   UNL d   1      32.764  18.776 -22.504  0.00  0.00    -0.082 Cl
ATOM     17  C   UNL d   1      33.123  19.581 -23.741  0.00  0.00     0.011 A 
ATOM     18  C   UNL d   1      33.240  19.747 -24.540  0.00  0.00     0.001 A 
ATOM     19  C   UNL d   1      33.097  19.172 -25.092  0.00  0.00     0.000 A 
ATOM     20  C   UNL d   1      32.833  18.418 -24.857  0.00  0.00     0.001 A 
ENDBRANCH   3  14
TORSDOF 4
ENDMDL
MODEL 2
REMARK VINA RESULT:      -1.7      4.183      5.494
REMARK  4 active torsions:
REMARK  status: ('A' for Active; 'I' for Inactive)
REMARK    1  A    between atoms: S_11  and  C_2 
REMARK    2  A    between atoms: C_7  and  C_3 
REMARK    3  A    between atoms: C_17  and  S_11 
REMARK    4  A    between atoms: C_13  and  C_17 
ROOT
ATOM      1  C   UNL d   1      32.982  21.445 -21.654  0.00  0.00     0.092 A 
ATOM      2  C   UNL d   1      33.140  20.988 -22.307  0.00  0.00     0.124 A 
ATOM      3  C   UNL d   1      32.908  22.271 -21.735  0.00  0.00     0.017 A 
ATOM      4  N   UNL d   1      33.227  21.350 -23.054  0.00  0.00    -0.201 NA
ATOM      5  C   UNL d   1      33.153  22.168 -23.129  0.00  0.00     0.280 A 
ATOM      6  C   UNL d   1      32.895  21.087 -20.910  0.00  0.00     0.103 C 
ATOM      7  N   UNL d   1      32.808  20.722 -20.169  0.00  0.00    -0.191 NA
ATOM      8  C   UNL d   1      32.995  22.625 -22.476  0.00  0.00     0.063 A 
ATOM      9  O   UNL d   1      33.240  22.526 -23.872  0.00  0.00    -0.265 OA
ENDROOT
BRANCH   2  10
ATOM     10  S   UNL d   1      33.213  20.166 -22.229  0.00  0.00    -0.067 SA
BRANCH  10  11
ATOM     11  C   UNL d   1      32.995  19.662 -22.857  0.00  0.00     0.037 C 
BRANCH  11  12
ATOM     12  C   UNL d   1      33.108  18.749 -22.852  0.00  0.00     0.007 C 
ATOM     13  C   UNL d   1      32.493  18.065 -23.267  0.00  0.00     0.001 C 
ENDBRANCH  11  12
ENDBRANCH  10  11
ENDBRANCH   2  10
BRANCH   3  14
ATOM     14  C   UNL d   1      32.748  22.733 -21.074  0.00  0.00     0.011 A 
ATOM     15  C   UNL d   1      32.107  23.232 -21.075  0.00  0.00     0.058 A 
ATOM     16 CL   UNL d   1      31.423  23.403 -21.785  0.00  0.00    -0.082 Cl
ATOM     17  C   UNL d   1      31.957  23.696 -20.395  0.00  0.00     0.011 A 
ATOM     18  C   UNL d   1      32.453  23.646 -19.737  0.00  0.00     0.001 A 
ATOM     19  C   UNL d   1      33.088  23.143 -19.754  0.00  0.00     0.000 A 
ATOM     20  C   UNL d   1      33.241  22.679 -20.428  0.00  0.00     0.001 A 
ENDBRANCH   3  14
TORSDOF 4
ENDMDL
MODEL 3
REMARK VINA RESULT:       0.1      2.314      4.705
REMARK  4 active torsions:
REMARK  status: ('A' for Active; 'I' for Inactive)
REMARK    1  A    between atoms: S_11  and  C_2 
REMARK    2  A    between atoms: C_7  and  C_3 
REMARK    3  A    between atoms: C_17  and  S_11 
REMARK    4  A    between atoms: C_13  and  C_17 
ROOT
ATOM      1  C   UNL d   1      29.750  16.939 -24.167  0.00  0.00     0.092 A 
ATOM      2  C   UNL d   1      30.215  17.476 -24.558  0.00  0.00     0.124 A 
ATOM      3  C   UNL d   1      28.933  17.083 -24.081  0.00  0.00     0.017 A 
ATOM      4  N   UNL d   1      29.874  18.170 -24.871  0.00  0.00    -0.201 NA
ATOM      5  C   UNL d   1      29.065  18.309 -24.784  0.00  0.00     0.280 A 
ATOM      6  C   UNL d   1      30.087  16.248 -23.854  0.00  0.00     0.103 C 
ATOM      7  N   UNL d   1      30.433  15.559 -23.543  0.00  0.00    -0.191 NA
ATOM      8  C   UNL d   1      28.599  17.771 -24.393  0.00  0.00     0.063 A 
ATOM      9  O   UNL d   1      28.727  18.999 -25.097  0.00  0.00    -0.265 OA
ENDROOT
BRANCH   2  10
ATOM     10  S   UNL d   1      31.028  17.335 -24.644  0.00  0.00    -0.067 SA
BRANCH  10  11
ATOM     11  C   UNL d   1      31.543  17.954 -24.860  0.00  0.00     0.037 C 
BRANCH  11  12
ATOM     12  C   UNL d   1      32.459  17.878 -24.897  0.00  0.00     0.007 C 
ATOM     13  C   UNL d   1      33.132  18.554 -24.570  0.00  0.00     0.001 C 
ENDBRANCH  11  12
ENDBRANCH  10  11
ENDBRANCH   2  10
BRANCH   3  14
ATOM     14  C   UNL d   1      28.461  16.539 -23.685  0.00  0.00     0.011 A 
ATOM     15  C   UNL d   1      28.024  16.001 -24.107  0.00  0.00     0.058 A 
ATOM     16 CL   UNL d   1      27.945  15.866 -25.096  0.00  0.00    -0.082 Cl
ATOM     17  C   UNL d   1      27.548  15.453 -23.690  0.00  0.00     0.011 A 
ATOM     18  C   UNL d   1      27.526  15.461 -22.865  0.00  0.00     0.001 A 
ATOM     19  C   UNL d   1      27.969  16.005 -22.460  0.00  0.00     0.000 A 
ATOM     20  C   UNL d   1      28.444  16.553 -22.871  0.00  0.00     0.001 A 
ENDBRANCH   3  14
TORSDOF 4
ENDMDL
