MODEL 1
REMARK VINA RESULT:      -4.9      0.000      0.000
REMARK  3 active torsions:
REMARK  status: ('A' for Active; 'I' for Inactive)
REMARK    1  A    between atoms: S_3  and  N_1 
REMARK    2  A    between atoms: C_7  and  C_4 
REMARK    3  A    between atoms: C_11  and  C_5 
ROOT
ATOM      1  N   UNL d   1      58.361  -0.931  29.740  0.00  0.00    -0.155 N 
ATOM      2  N   UNL d   1      57.712  -1.030  30.231  0.00  0.00    -0.156 NA
ATOM      3  C   UNL d   1      58.794  -0.264  29.999  0.00  0.00     0.102 A 
ATOM      4  C   UNL d   1      57.736  -0.420  30.805  0.00  0.00     0.104 A 
ATOM      5  C   UNL d   1      58.401   0.039  30.652  0.00  0.00     0.041 A 
ENDROOT
BRANCH   4   6
ATOM      6  C   UNL d   1      57.188  -0.299  31.421  0.00  0.00     0.019 A 
ATOM      7  C   UNL d   1      56.834  -0.957  31.794  0.00  0.00     0.002 A 
ATOM      8  C   UNL d   1      56.284  -0.838  32.411  0.00  0.00     0.000 A 
ATOM      9  C   UNL d   1      56.089  -0.069  32.652  0.00  0.00     0.000 A 
ATOM     10  C   UNL d   1      56.449   0.566  32.270  0.00  0.00     0.000 A 
ATOM     11  C   UNL d   1      55.564   0.039  33.240  0.00  0.00     0.000 C 
ATOM     12  C   UNL d   1      56.993   0.470  31.661  0.00  0.00     0.002 A 
ENDBRANCH   4   6
BRANCH   1  13
ATOM     13  S   UNL d   1      58.547  -1.431  29.081  0.00  0.00     0.266 S 
ATOM     14  O   UNL d   1      58.746  -1.949  28.455  0.00  0.00    -0.203 OA
ATOM     15  O   UNL d   1      58.211  -0.892  28.565  0.00  0.00    -0.203 OA
ATOM     16  C   UNL d   1      58.897  -1.988  29.638  0.00  0.00     0.165 C 
ENDBRANCH   1  13
BRANCH   3  17
ATOM     17  C   UNL d   1      59.497   0.025  29.645  0.00  0.00     0.048 A 
ATOM     18  S   UNL d   1      59.527   0.561  29.006  0.00  0.00    -0.085 SA
ATOM     19  C   UNL d   1      60.332   0.682  28.853  0.00  0.00     0.035 A 
ATOM     20  C   UNL d   1      60.785   0.252  29.360  0.00  0.00     0.007 A 
ATOM     21  C   UNL d   1      60.272  -0.158  29.856  0.00  0.00     0.009 A 
ENDBRANCH   3  17
TORSDOF 3
ENDMDL
MODEL 2
REMARK VINA RESULT:      -3.1      2.594      4.560
REMARK  3 active torsions:
REMARK  status: ('A' for Active; 'I' for Inactive)
REMARK    1  A    between atoms: S_3  and  N_1 
REMARK    2  A    between atoms: C_7  and  C_4 
REMARK    3  A    between atoms: C_11  and  C_5 
ROOT
ATOM      1  N   UNL d   1      56.268  -0.863  32.596  0.00  0.00    -0.155 N 
ATOM      2  N   UNL d   1      56.751  -0.921  31.936  0.00  0.00    -0.156 NA
ATOM      3  C   UNL d   1      56.218  -0.060  32.823  0.00  0.00     0.102 A 
ATOM      4  C   UNL d   1      57.009  -0.146  31.745  0.00  0.00     0.104 A 
ATOM      5  C   UNL d   1      56.676   0.368  32.293  0.00  0.00     0.041 A 
ENDROOT
BRANCH   4   6
ATOM      6  C   UNL d   1      57.510   0.065  31.114  0.00  0.00     0.019 A 
ATOM      7  C   UNL d   1      58.320  -0.137  31.144  0.00  0.00     0.002 A 
ATOM      8  C   UNL d   1      58.824   0.075  30.512  0.00  0.00     0.000 A 
ATOM      9  C   UNL d   1      58.521   0.483  29.858  0.00  0.00     0.000 A 
ATOM     10  C   UNL d   1      57.720   0.673  29.847  0.00  0.00     0.000 A 
ATOM     11  C   UNL d   1      59.006   0.682  29.258  0.00  0.00     0.000 C 
ATOM     12  C   UNL d   1      57.208   0.474  30.459  0.00  0.00     0.002 A 
ENDBRANCH   4   6
BRANCH   1  13
ATOM     13  S   UNL d   1      55.889  -1.521  32.974  0.00  0.00     0.266 S 
ATOM     14  O   UNL d   1      55.486  -2.165  33.324  0.00  0.00    -0.203 OA
ATOM     15  O   UNL d   1      56.534  -1.619  33.469  0.00  0.00    -0.203 OA
ATOM     16  C   UNL d   1      55.219  -1.403  32.446  0.00  0.00     0.165 C 
ENDBRANCH   1  13
BRANCH   3  17
ATOM     17  C   UNL d   1      55.778   0.235  33.471  0.00  0.00     0.048 A 
ATOM     18  S   UNL d   1      56.092   0.409  34.224  0.00  0.00    -0.085 SA
ATOM     19  C   UNL d   1      55.453   0.682  34.676  0.00  0.00     0.035 A 
ATOM     20  C   UNL d   1      54.777   0.681  34.240  0.00  0.00     0.007 A 
ATOM     21  C   UNL d   1      54.971   0.404  33.490  0.00  0.00     0.009 A 
ENDBRANCH   3  17
TORSDOF 3
ENDMDL
