MODEL 1
REMARK VINA RESULT:      -5.3      0.000      0.000
REMARK  1 active torsions:
REMARK  status: ('A' for Active; 'I' for Inactive)
REMARK    1  A    between atoms: C_4  and  C_1 
ROOT
ATOM      1  C   UNL d   1      57.086   0.172  31.704  0.00  0.00     0.112 A 
ATOM      2  N   UNL d   1      57.011   0.107  30.878  0.00  0.00    -0.238 NA
ATOM      3  S   UNL d   1      57.871   0.390  31.878  0.00  0.00    -0.066 SA
ATOM      4  C   UNL d   1      57.749   0.285  30.542  0.00  0.00     0.088 A 
ATOM      5  C   UNL d   1      58.279   0.459  31.158  0.00  0.00     0.049 A 
ATOM      6  C   UNL d   1      58.004   0.309  29.758  0.00  0.00     0.020 A 
ATOM      7  C   UNL d   1      59.062   0.657  30.987  0.00  0.00     0.008 A 
ATOM      8  C   UNL d   1      59.316   0.682  30.202  0.00  0.00     0.001 A 
ATOM      9  C   UNL d   1      58.786   0.508  29.586  0.00  0.00     0.002 A 
ENDROOT
BRANCH   1  10
ATOM     10  C   UNL d   1      56.487   0.044  32.260  0.00  0.00     0.043 A 
ATOM     11  C   UNL d   1      56.261  -0.731  32.448  0.00  0.00     0.105 A 
ATOM     12  N   UNL d   1      56.632  -1.370  32.079  0.00  0.00    -0.148 N 
ATOM     13  C   UNL d   1      55.663  -0.859  33.004  0.00  0.00     0.021 A 
ATOM     14  C   UNL d   1      55.292  -0.221  33.372  0.00  0.00     0.002 A 
ATOM     15  C   UNL d   1      55.528   0.552  33.176  0.00  0.00     0.000 A 
ATOM     16  C   UNL d   1      56.116   0.682  32.629  0.00  0.00     0.004 A 
ENDBRANCH   1  10
TORSDOF 1
ENDMDL
MODEL 2
REMARK VINA RESULT:      -4.8      1.184      1.727
REMARK  1 active torsions:
REMARK  status: ('A' for Active; 'I' for Inactive)
REMARK    1  A    between atoms: C_4  and  C_1 
ROOT
ATOM      1  C   UNL d   1      56.382   0.118  32.639  0.00  0.00     0.112 A 
ATOM      2  N   UNL d   1      56.622  -0.634  32.379  0.00  0.00    -0.238 NA
ATOM      3  S   UNL d   1      56.644   0.682  32.083  0.00  0.00    -0.066 SA
ATOM      4  C   UNL d   1      57.032  -0.536  31.663  0.00  0.00     0.088 A 
ATOM      5  C   UNL d   1      57.045   0.275  31.481  0.00  0.00     0.049 A 
ATOM      6  C   UNL d   1      57.392  -1.079  31.157  0.00  0.00     0.020 A 
ATOM      7  C   UNL d   1      57.419   0.538  30.794  0.00  0.00     0.008 A 
ATOM      8  C   UNL d   1      57.779  -0.005  30.288  0.00  0.00     0.001 A 
ATOM      9  C   UNL d   1      57.766  -0.816  30.471  0.00  0.00     0.002 A 
ENDROOT
BRANCH   1  10
ATOM     10  C   UNL d   1      55.957   0.284  33.328  0.00  0.00     0.043 A 
ATOM     11  C   UNL d   1      56.361   0.516  34.014  0.00  0.00     0.105 A 
ATOM     12  N   UNL d   1      57.184   0.580  34.005  0.00  0.00    -0.148 N 
ATOM     13  C   UNL d   1      55.937   0.682  34.703  0.00  0.00     0.021 A 
ATOM     14  C   UNL d   1      55.114   0.618  34.711  0.00  0.00     0.002 A 
ATOM     15  C   UNL d   1      54.719   0.384  34.018  0.00  0.00     0.000 A 
ATOM     16  C   UNL d   1      55.134   0.220  33.337  0.00  0.00     0.004 A 
ENDBRANCH   1  10
TORSDOF 1
ENDMDL
