MODEL 1
REMARK VINA RESULT:      -1.4      0.000      0.000
REMARK  4 active torsions:
REMARK  status: ('A' for Active; 'I' for Inactive)
REMARK    1  A    between atoms: C_11  and  C_3 
REMARK    2  A    between atoms: C_10  and  N_5 
REMARK    3  A    between atoms: O_17  and  C_11 
REMARK    4  A    between atoms: C_22  and  O_17 
ROOT
ATOM      1  C   UNL d   1      59.506  -0.021  30.836  0.00  0.00     0.086 A 
ATOM      2  C   UNL d   1      59.452  -0.452  30.135  0.00  0.00     0.038 A 
ATOM      3  C   UNL d   1      58.733  -0.776  29.887  0.00  0.00     0.165 A 
ATOM      4  C   UNL d   1      58.826   0.083  31.292  0.00  0.00     0.282 A 
ATOM      5  N   UNL d   1      58.115  -0.231  31.058  0.00  0.00    -0.194 N 
ATOM      6  N   UNL d   1      58.069  -0.661  30.355  0.00  0.00    -0.157 NA
ATOM      7  C   UNL d   1      60.290   0.226  30.927  0.00  0.00     0.137 A 
ATOM      8  C   UNL d   1      60.207  -0.471  29.789  0.00  0.00     0.039 A 
ATOM      9  S   UNL d   1      60.720  -0.052  30.281  0.00  0.00    -0.066 SA
ATOM     10  O   UNL d   1      58.872   0.513  31.995  0.00  0.00    -0.265 OA
ATOM     11  N   UNL d   1      60.582   0.669  31.551  0.00  0.00    -0.141 N 
ENDROOT
BRANCH   5  12
ATOM     12  C   UNL d   1      57.434  -0.123  31.521  0.00  0.00     0.087 A 
ATOM     13  C   UNL d   1      57.199  -0.708  32.039  0.00  0.00     0.031 A 
ATOM     14  C   UNL d   1      56.532  -0.617  32.502  0.00  0.00     0.059 A 
ATOM     15 CL   UNL d   1      56.293  -1.209  33.025  0.00  0.00    -0.082 Cl
ATOM     16  C   UNL d   1      56.086   0.086  32.443  0.00  0.00     0.011 A 
ATOM     17  C   UNL d   1      56.325   0.677  31.920  0.00  0.00     0.002 A 
ATOM     18  C   UNL d   1      56.998   0.573  31.459  0.00  0.00     0.019 A 
ENDBRANCH   5  12
BRANCH   3  19
ATOM     19  C   UNL d   1      58.686  -1.206  29.184  0.00  0.00     0.320 C 
ATOM     20  O   UNL d   1      58.708  -0.815  28.460  0.00  0.00    -0.257 OA
BRANCH  19  21
ATOM     21  O   UNL d   1      58.617  -2.032  29.210  0.00  0.00    -0.270 OA
BRANCH  21  22
ATOM     22  C   UNL d   1      58.627  -2.471  28.513  0.00  0.00     0.126 C 
ATOM     23  C   UNL d   1      58.708  -3.293  28.542  0.00  0.00     0.029 C 
ENDBRANCH  21  22
ENDBRANCH  19  21
ENDBRANCH   3  19
TORSDOF 4
ENDMDL
MODEL 2
REMARK VINA RESULT:      -0.2      1.249      1.618
REMARK  4 active torsions:
REMARK  status: ('A' for Active; 'I' for Inactive)
REMARK    1  A    between atoms: C_11  and  C_3 
REMARK    2  A    between atoms: C_10  and  N_5 
REMARK    3  A    between atoms: O_17  and  C_11 
REMARK    4  A    between atoms: C_22  and  O_17 
ROOT
ATOM      1  C   UNL d   1      58.636   0.410  32.111  0.00  0.00     0.086 A 
ATOM      2  C   UNL d   1      58.649   0.350  31.289  0.00  0.00     0.038 A 
ATOM      3  C   UNL d   1      57.961   0.185  30.861  0.00  0.00     0.165 A 
ATOM      4  C   UNL d   1      57.919   0.300  32.506  0.00  0.00     0.282 A 
ATOM      5  N   UNL d   1      57.239   0.137  32.095  0.00  0.00    -0.194 N 
ATOM      6  N   UNL d   1      57.259   0.080  31.273  0.00  0.00    -0.157 NA
ATOM      7  C   UNL d   1      59.403   0.578  32.370  0.00  0.00     0.137 A 
ATOM      8  C   UNL d   1      59.429   0.483  31.036  0.00  0.00     0.039 A 
ATOM      9  S   UNL d   1      59.890   0.623  31.706  0.00  0.00    -0.066 SA
ATOM     10  O   UNL d   1      57.899   0.358  33.329  0.00  0.00    -0.265 OA
ATOM     11  N   UNL d   1      59.633   0.681  33.149  0.00  0.00    -0.141 N 
ENDROOT
BRANCH   5  12
ATOM     12  C   UNL d   1      56.521   0.028  32.499  0.00  0.00     0.087 A 
ATOM     13  C   UNL d   1      56.353  -0.693  32.841  0.00  0.00     0.031 A 
ATOM     14  C   UNL d   1      55.652  -0.817  33.241  0.00  0.00     0.059 A 
ATOM     15 CL   UNL d   1      55.482  -1.546  33.587  0.00  0.00    -0.082 Cl
ATOM     16  C   UNL d   1      55.100  -0.194  33.300  0.00  0.00     0.011 A 
ATOM     17  C   UNL d   1      55.269   0.535  32.955  0.00  0.00     0.002 A 
ATOM     18  C   UNL d   1      55.979   0.647  32.554  0.00  0.00     0.019 A 
ENDBRANCH   5  12
BRANCH   3  19
ATOM     19  C   UNL d   1      57.982   0.127  30.038  0.00  0.00     0.320 C 
ATOM     20  O   UNL d   1      57.536   0.644  29.577  0.00  0.00    -0.257 OA
BRANCH  19  21
ATOM     21  O   UNL d   1      58.452  -0.453  29.677  0.00  0.00    -0.270 OA
BRANCH  21  22
ATOM     22  C   UNL d   1      58.471  -0.521  28.857  0.00  0.00     0.126 C 
ATOM     23  C   UNL d   1      58.805  -1.189  28.503  0.00  0.00     0.029 C 
ENDBRANCH  21  22
ENDBRANCH  19  21
ENDBRANCH   3  19
TORSDOF 4
ENDMDL
MODEL 3
REMARK VINA RESULT:       1.0      1.986      3.571
REMARK  4 active torsions:
REMARK  status: ('A' for Active; 'I' for Inactive)
REMARK    1  A    between atoms: C_11  and  C_3 
REMARK    2  A    between atoms: C_10  and  N_5 
REMARK    3  A    between atoms: O_17  and  C_11 
REMARK    4  A    between atoms: C_22  and  O_17 
ROOT
ATOM      1  C   UNL d   1      58.423   0.389  32.242  0.00  0.00     0.086 A 
ATOM      2  C   UNL d   1      57.659   0.294  32.537  0.00  0.00     0.038 A 
ATOM      3  C   UNL d   1      57.023   0.126  32.035  0.00  0.00     0.165 A 
ATOM      4  C   UNL d   1      58.546   0.315  31.429  0.00  0.00     0.282 A 
ATOM      5  N   UNL d   1      57.929   0.151  30.927  0.00  0.00    -0.194 N 
ATOM      6  N   UNL d   1      57.167   0.057  31.231  0.00  0.00    -0.157 NA
ATOM      7  C   UNL d   1      58.927   0.550  32.877  0.00  0.00     0.137 A 
ATOM      8  C   UNL d   1      57.690   0.395  33.361  0.00  0.00     0.039 A 
ATOM      9  S   UNL d   1      58.474   0.553  33.566  0.00  0.00    -0.066 SA
ATOM     10  O   UNL d   1      59.307   0.409  31.125  0.00  0.00    -0.265 OA
ATOM     11  N   UNL d   1      59.734   0.681  32.825  0.00  0.00    -0.141 N 
ENDROOT
BRANCH   5  12
ATOM     12  C   UNL d   1      58.060   0.078  30.110  0.00  0.00     0.087 A 
ATOM     13  C   UNL d   1      58.416  -0.595  29.815  0.00  0.00     0.031 A 
ATOM     14  C   UNL d   1      58.552  -0.683  29.015  0.00  0.00     0.059 A 
ATOM     15 CL   UNL d   1      58.912  -1.363  28.716  0.00  0.00    -0.082 Cl
ATOM     16  C   UNL d   1      58.322  -0.074  28.492  0.00  0.00     0.011 A 
ATOM     17  C   UNL d   1      57.963   0.605  28.790  0.00  0.00     0.002 A 
ATOM     18  C   UNL d   1      57.831   0.682  29.599  0.00  0.00     0.019 A 
ENDBRANCH   5  12
BRANCH   3  19
ATOM     19  C   UNL d   1      56.262   0.032  32.339  0.00  0.00     0.320 C 
ATOM     20  O   UNL d   1      55.758   0.681  32.396  0.00  0.00    -0.257 OA
BRANCH  19  21
ATOM     21  O   UNL d   1      56.006  -0.718  32.585  0.00  0.00    -0.270 OA
BRANCH  21  22
ATOM     22  C   UNL d   1      55.312  -0.797  33.021  0.00  0.00     0.126 C 
ATOM     23  C   UNL d   1      55.077  -1.540  33.296  0.00  0.00     0.029 C 
ENDBRANCH  21  22
ENDBRANCH  19  21
ENDBRANCH   3  19
TORSDOF 4
ENDMDL
MODEL 4
REMARK VINA RESULT:       1.3      1.401      2.446
REMARK  4 active torsions:
REMARK  status: ('A' for Active; 'I' for Inactive)
REMARK    1  A    between atoms: C_11  and  C_3 
REMARK    2  A    between atoms: C_10  and  N_5 
REMARK    3  A    between atoms: O_17  and  C_11 
REMARK    4  A    between atoms: C_22  and  O_17 
ROOT
ATOM      1  C   UNL d   1      58.601  -1.466  29.717  0.00  0.00     0.086 A 
ATOM      2  C   UNL d   1      59.271  -1.049  29.480  0.00  0.00     0.038 A 
ATOM      3  C   UNL d   1      59.425  -0.288  29.766  0.00  0.00     0.165 A 
ATOM      4  C   UNL d   1      58.079  -1.111  30.250  0.00  0.00     0.282 A 
ATOM      5  N   UNL d   1      58.221  -0.365  30.536  0.00  0.00    -0.194 N 
ATOM      6  N   UNL d   1      58.894   0.047  30.294  0.00  0.00    -0.157 NA
ATOM      7  C   UNL d   1      58.607  -2.201  29.337  0.00  0.00     0.137 A 
ATOM      8  C   UNL d   1      59.695  -1.527  28.949  0.00  0.00     0.039 A 
ATOM      9  S   UNL d   1      59.281  -2.236  28.865  0.00  0.00    -0.066 SA
ATOM     10  O   UNL d   1      57.407  -1.523  30.492  0.00  0.00    -0.265 OA
ATOM     11  N   UNL d   1      58.039  -2.786  29.420  0.00  0.00    -0.141 N 
ENDROOT
BRANCH   5  12
ATOM     12  C   UNL d   1      57.693  -0.013  31.072  0.00  0.00     0.087 A 
ATOM     13  C   UNL d   1      57.873   0.003  31.867  0.00  0.00     0.031 A 
ATOM     14  C   UNL d   1      57.364   0.345  32.407  0.00  0.00     0.059 A 
ATOM     15 CL   UNL d   1      57.546   0.362  33.212  0.00  0.00    -0.082 Cl
ATOM     16  C   UNL d   1      56.649   0.682  32.138  0.00  0.00     0.011 A 
ATOM     17  C   UNL d   1      56.467   0.665  31.335  0.00  0.00     0.002 A 
ATOM     18  C   UNL d   1      56.988   0.318  30.801  0.00  0.00     0.019 A 
ENDBRANCH   5  12
BRANCH   3  19
ATOM     19  C   UNL d   1      60.098   0.124  29.523  0.00  0.00     0.320 C 
ATOM     20  O   UNL d   1      60.075   0.587  28.843  0.00  0.00    -0.257 OA
BRANCH  19  21
ATOM     21  O   UNL d   1      60.796   0.069  29.968  0.00  0.00    -0.270 OA
BRANCH  21  22
ATOM     22  C   UNL d   1      61.014   0.682  30.473  0.00  0.00     0.126 C 
ATOM     23  C   UNL d   1      61.133   0.534  31.278  0.00  0.00     0.029 C 
ENDBRANCH  21  22
ENDBRANCH  19  21
ENDBRANCH   3  19
TORSDOF 4
ENDMDL
