MODEL 1
REMARK VINA RESULT:      86.8      0.000      0.000
REMARK  6 active torsions:
REMARK  status: ('A' for Active; 'I' for Inactive)
REMARK    1  A    between atoms: C_6  and  C_1 
REMARK    2  A    between atoms: C_8  and  N_2 
REMARK    3  A    between atoms: C_12  and  C_5 
REMARK    4  A    between atoms: C_7  and  C_6 
REMARK    5  A    between atoms: C_18  and  C_8 
REMARK    6  A    between atoms: N_10  and  C_18 
ROOT
ATOM      1  C   UNL d   1     -48.426  31.150  34.444  0.00  0.00     0.099 A 
ATOM      2  N   UNL d   1     -48.998  29.965  34.191  0.00  0.00    -0.269 N 
ATOM      3  C   UNL d   1     -49.062  31.299  33.943  0.00  0.00     0.256 A 
ATOM      4  C   UNL d   1     -49.411  30.573  33.789  0.00  0.00     0.304 A 
ATOM      5  C   UNL d   1     -48.387  30.348  34.593  0.00  0.00     0.073 A 
ATOM      6  O   UNL d   1     -50.067  30.453  33.312  0.00  0.00    -0.263 OA
ATOM      7  O   UNL d   1     -49.297  32.038  33.655  0.00  0.00    -0.281 OA
ENDROOT
BRANCH   2   8
ATOM      8  C   UNL d   1     -49.158  29.148  34.193  0.00  0.00     0.102 C 
BRANCH   8   9
ATOM      9  C   UNL d   1     -49.527  28.809  33.546  0.00  0.00     0.100 C 
BRANCH   9  10
ATOM     10  N   UNL d   1     -49.811  28.039  33.581  0.00  0.00    -0.298 N 
ATOM     11  C   UNL d   1     -50.600  27.890  33.313  0.00  0.00     0.107 A 
ATOM     12  C   UNL d   1     -50.901  27.108  33.344  0.00  0.00     0.142 A 
ATOM     13  O   UNL d   1     -50.415  26.497  33.639  0.00  0.00    -0.300 OA
ATOM     14  C   UNL d   1     -49.650  26.644  33.899  0.00  0.00     0.142 A 
ATOM     15  C   UNL d   1     -49.348  27.432  33.867  0.00  0.00     0.107 A 
ENDBRANCH   9  10
ENDBRANCH   8   9
ENDBRANCH   2   8
BRANCH   5  16
ATOM     16  C   UNL d   1     -47.833  29.959  35.069  0.00  0.00     0.016 A 
ATOM     17  C   UNL d   1     -47.939  29.929  35.886  0.00  0.00     0.001 A 
ATOM     18  C   UNL d   1     -47.393  29.545  36.358  0.00  0.00     0.000 A 
ATOM     19  C   UNL d   1     -46.728  29.184  36.015  0.00  0.00     0.000 A 
ATOM     20  C   UNL d   1     -46.630  29.219  35.199  0.00  0.00     0.000 A 
ATOM     21  C   UNL d   1     -47.188  29.610  34.725  0.00  0.00     0.001 A 
ENDBRANCH   5  16
BRANCH   1  22
ATOM     22  C   UNL d   1     -47.918  31.729  34.740  0.00  0.00     0.206 C 
ATOM     23  O   UNL d   1     -47.712  31.719  35.523  0.00  0.00    -0.286 OA
BRANCH  22  24
ATOM     24  C   UNL d   1     -47.614  32.330  34.230  0.00  0.00     0.069 A 
ATOM     25  S   UNL d   1     -47.961  33.068  34.083  0.00  0.00    -0.083 SA
ATOM     26  C   UNL d   1     -47.476  33.473  33.553  0.00  0.00     0.035 A 
ATOM     27  C   UNL d   1     -46.832  33.001  33.368  0.00  0.00     0.008 A 
ATOM     28  C   UNL d   1     -46.918  32.289  33.789  0.00  0.00     0.010 A 
ENDBRANCH  22  24
ENDBRANCH   1  22
TORSDOF 6
ENDMDL
