MODEL 1
REMARK VINA RESULT:      23.0      0.000      0.000
REMARK  6 active torsions:
REMARK  status: ('A' for Active; 'I' for Inactive)
REMARK    1  A    between atoms: N_2  and  C_1 
REMARK    2  A    between atoms: C_8  and  C_5 
REMARK    3  A    between atoms: C_6  and  C_9 
REMARK       I    between atoms: N_13  and  C_6 
REMARK    4  A    between atoms: C_9  and  C_8 
REMARK    5  A    between atoms: C_14  and  C_11 
REMARK    6  A    between atoms: C_16  and  N_13 
ROOT
ATOM      1  C   UNL d   1      13.561  12.127  -2.612  0.00  0.00     0.279 C 
ATOM      2  N   UNL d   1      12.983  12.481  -3.070  0.00  0.00    -0.208 NA
ATOM      3  O   UNL d   1      14.264  11.877  -2.982  0.00  0.00    -0.265 OA
ENDROOT
BRANCH   1   4
ATOM      4  C   UNL d   1      13.452  12.022  -1.816  0.00  0.00     0.063 C 
BRANCH   4   5
ATOM      5  C   UNL d   1      14.091  11.780  -1.340  0.00  0.00     0.011 C 
BRANCH   5   6
ATOM      6  C   UNL d   1      14.529  12.350  -0.895  0.00  0.00     0.031 A 
ATOM      7  S   UNL d   1      14.505  13.175  -0.873  0.00  0.00    -0.064 SA
ATOM      8  C   UNL d   1      15.058  13.417  -0.335  0.00  0.00     0.156 A 
ATOM      9  C   UNL d   1      15.430  12.757  -0.016  0.00  0.00     0.031 A 
ATOM     10  C   UNL d   1      15.093  12.087  -0.373  0.00  0.00     0.009 A 
BRANCH   8  11
ATOM     11  N   UNL d   1      15.238  14.214  -0.122  0.00  0.00    -0.107 N 
ATOM     12  O   UNL d   1      16.035  14.439  -0.016  0.00  0.00    -0.531 OA
ATOM     13  O   UNL d   1      14.638  14.771  -0.016  0.00  0.00    -0.531 OA
ENDBRANCH   8  11
ENDBRANCH   5   6
ENDBRANCH   4   5
ENDBRANCH   1   4
BRANCH   2  14
ATOM     14  C   UNL d   1      13.081  12.593  -3.878  0.00  0.00     0.085 A 
ATOM     15  C   UNL d   1      13.191  13.330  -4.186  0.00  0.00     0.022 A 
ATOM     16  C   UNL d   1      13.290  13.441  -5.007  0.00  0.00     0.041 A 
ATOM     17  C   UNL d   1      13.275  12.790  -5.511  0.00  0.00     0.003 A 
ATOM     18  C   UNL d   1      13.160  12.035  -5.183  0.00  0.00     0.002 A 
ATOM     19  C   UNL d   1      13.064  11.936  -4.378  0.00  0.00     0.019 A 
BRANCH  16  20
ATOM     20  C   UNL d   1      13.403  14.194  -5.323  0.00  0.00     0.196 C 
ATOM     21  O   UNL d   1      13.209  14.848  -4.883  0.00  0.00    -0.287 OA
ATOM     22  C   UNL d   1      13.717  14.301  -6.094  0.00  0.00     0.045 C 
ENDBRANCH  16  20
ENDBRANCH   2  14
TORSDOF 6
ENDMDL
