MODEL 1
REMARK VINA RESULT:      32.4      0.000      0.000
REMARK  4 active torsions:
REMARK  status: ('A' for Active; 'I' for Inactive)
REMARK    1  A    between atoms: N_8  and  C_2 
REMARK    2  A    between atoms: C_9  and  C_3 
REMARK       I    between atoms: C_6  and  N_7 
REMARK    3  A    between atoms: C_10  and  C_6 
REMARK    4  A    between atoms: N_7  and  N_8 
ROOT
ATOM      1  C   UNL d   1      15.358  13.556  -0.516  0.00  0.00     0.297 C 
ATOM      2  N   UNL d   1      14.850  13.061  -0.973  0.00  0.00    -0.104 NA
ATOM      3  O   UNL d   1      15.911  13.223  -0.018  0.00  0.00    -0.264 OA
ENDROOT
BRANCH   2   4
ATOM      4  N   UNL d   1      14.303  13.396  -1.466  0.00  0.00    -0.119 NA
BRANCH   4   5
ATOM      5  C   UNL d   1      14.056  12.995  -2.109  0.00  0.00     0.214 A 
ATOM      6  N   UNL d   1      13.814  13.252  -2.863  0.00  0.00    -0.224 NA
ATOM      7  C   UNL d   1      13.614  12.559  -3.309  0.00  0.00     0.067 A 
ATOM      8  C   UNL d   1      13.740  11.921  -2.820  0.00  0.00     0.053 A 
ATOM      9  S   UNL d   1      14.006  12.180  -2.096  0.00  0.00    -0.045 SA
BRANCH   7  10
ATOM     10  C   UNL d   1      13.341  12.524  -4.098  0.00  0.00     0.036 C 
ATOM     11  C   UNL d   1      13.076  12.476  -4.885  0.00  0.00     0.006 C 
ATOM     12  C   UNL d   1      13.712  11.787  -4.180  0.00  0.00     0.006 C 
ATOM     13  C   UNL d   1      12.975  13.268  -3.994  0.00  0.00     0.006 C 
ENDBRANCH   7  10
ENDBRANCH   4   5
ENDBRANCH   2   4
BRANCH   1  14
ATOM     14  C   UNL d   1      15.293  14.399  -0.578  0.00  0.00     0.059 A 
ATOM     15  C   UNL d   1      14.813  14.812  -0.037  0.00  0.00     0.005 A 
ATOM     16  C   UNL d   1      14.761  15.604  -0.107  0.00  0.00     0.007 A 
ATOM     17  C   UNL d   1      15.162  16.027  -0.692  0.00  0.00     0.035 A 
ATOM     18  C   UNL d   1      15.635  15.622  -1.226  0.00  0.00     0.007 A 
ATOM     19 BR   UNL d   1      15.090  16.839  -0.741  0.00  0.00    -0.049 Br
ATOM     20  C   UNL d   1      15.696  14.809  -1.164  0.00  0.00     0.005 A 
ENDBRANCH   1  14
TORSDOF 4
ENDMDL
MODEL 2
REMARK VINA RESULT:      35.2      2.103      2.641
REMARK  4 active torsions:
REMARK  status: ('A' for Active; 'I' for Inactive)
REMARK    1  A    between atoms: N_8  and  C_2 
REMARK    2  A    between atoms: C_9  and  C_3 
REMARK       I    between atoms: C_6  and  N_7 
REMARK    3  A    between atoms: C_10  and  C_6 
REMARK    4  A    between atoms: N_7  and  N_8 
ROOT
ATOM      1  C   UNL d   1      15.216  13.000  -1.937  0.00  0.00     0.297 C 
ATOM      2  N   UNL d   1      15.019  13.435  -2.633  0.00  0.00    -0.104 NA
ATOM      3  O   UNL d   1      15.998  12.877  -1.743  0.00  0.00    -0.264 OA
ENDROOT
BRANCH   2   4
ATOM      4  N   UNL d   1      14.241  13.555  -2.822  0.00  0.00    -0.119 NA
BRANCH   4   5
ATOM      5  C   UNL d   1      13.982  13.376  -3.554  0.00  0.00     0.214 A 
ATOM      6  N   UNL d   1      14.064  12.690  -4.019  0.00  0.00    -0.224 NA
ATOM      7  C   UNL d   1      13.665  12.837  -4.752  0.00  0.00     0.067 A 
ATOM      8  C   UNL d   1      13.362  13.590  -4.707  0.00  0.00     0.053 A 
ATOM      9  S   UNL d   1      13.551  13.919  -3.986  0.00  0.00    -0.045 SA
BRANCH   7  10
ATOM     10  C   UNL d   1      13.590  12.318  -5.403  0.00  0.00     0.036 C 
ATOM     11  C   UNL d   1      13.504  11.794  -6.043  0.00  0.00     0.006 C 
ATOM     12  C   UNL d   1      12.960  11.945  -5.015  0.00  0.00     0.006 C 
ATOM     13  C   UNL d   1      14.227  12.708  -5.776  0.00  0.00     0.006 C 
ENDBRANCH   7  10
ENDBRANCH   4   5
ENDBRANCH   2   4
BRANCH   1  14
ATOM     14  C   UNL d   1      14.600  12.692  -1.443  0.00  0.00     0.059 A 
ATOM     15  C   UNL d   1      14.111  12.083  -1.732  0.00  0.00     0.005 A 
ATOM     16  C   UNL d   1      13.536  11.803  -1.257  0.00  0.00     0.007 A 
ATOM     17  C   UNL d   1      13.408  12.093  -0.495  0.00  0.00     0.035 A 
ATOM     18  C   UNL d   1      13.888  12.693  -0.208  0.00  0.00     0.007 A 
ATOM     19 BR   UNL d   1      12.811  11.788  -0.028  0.00  0.00    -0.049 Br
ATOM     20  C   UNL d   1      14.482  12.988  -0.687  0.00  0.00     0.005 A 
ENDBRANCH   1  14
TORSDOF 4
ENDMDL
