MODEL 1
REMARK VINA RESULT:      -4.0      0.000      0.000
REMARK  3 active torsions:
REMARK  status: ('A' for Active; 'I' for Inactive)
REMARK    1  A    between atoms: C_10  and  C_4 
REMARK    2  A    between atoms: C_13  and  C_10 
REMARK    3  A    between atoms: C_11  and  C_13 
ROOT
ATOM      1  C   UNL d   1      57.266  -0.473  31.411  0.00  0.00     0.752 A 
ATOM      2  N   UNL d   1      57.519   0.077  31.969  0.00  0.00    -0.056 N 
ATOM      3  N   UNL d   1      56.636  -0.971  31.592  0.00  0.00    -0.059 NA
ATOM      4  C   UNL d   1      56.517  -0.368  32.881  0.00  0.00     0.037 A 
ATOM      5  C   UNL d   1      57.147   0.134  32.707  0.00  0.00     0.102 A 
ATOM      6  N   UNL d   1      57.734  -0.397  30.747  0.00  0.00    -0.035 NA
ATOM      7  C   UNL d   1      56.261  -0.921  32.324  0.00  0.00     0.101 A 
ATOM      8  N   UNL d   1      58.149   0.494  31.642  0.00  0.00    -0.127 NA
ATOM      9  C   UNL d   1      58.288   0.202  30.880  0.00  0.00     0.239 A 
ATOM     10  C   UNL d   1      57.403   0.682  33.257  0.00  0.00     0.021 C 
ATOM     11  C   UNL d   1      55.630  -1.423  32.498  0.00  0.00     0.021 C 
ENDROOT
BRANCH   4  12
ATOM     12  C   UNL d   1      56.141  -0.323  33.606  0.00  0.00     0.009 C 
BRANCH  12  13
ATOM     13  C   UNL d   1      55.572   0.258  33.744  0.00  0.00     0.070 C 
BRANCH  13  14
ATOM     14  C   UNL d   1      55.197   0.302  34.477  0.00  0.00     0.211 C 
ATOM     15  O   UNL d   1      54.461   0.666  34.547  0.00  0.00    -0.644 OA
ATOM     16  O   UNL d   1      55.560  -0.021  35.144  0.00  0.00    -0.644 OA
ENDBRANCH  13  14
ENDBRANCH  12  13
ENDBRANCH   4  12
TORSDOF 3
ENDMDL
MODEL 2
REMARK VINA RESULT:      -2.9      0.799      1.530
REMARK  3 active torsions:
REMARK  status: ('A' for Active; 'I' for Inactive)
REMARK    1  A    between atoms: C_10  and  C_4 
REMARK    2  A    between atoms: C_13  and  C_10 
REMARK    3  A    between atoms: C_11  and  C_13 
ROOT
ATOM      1  C   UNL d   1      58.069   0.446  31.407  0.00  0.00     0.752 A 
ATOM      2  N   UNL d   1      57.418  -0.007  31.184  0.00  0.00    -0.056 N 
ATOM      3  N   UNL d   1      58.152   0.671  32.194  0.00  0.00    -0.059 NA
ATOM      4  C   UNL d   1      56.941  -0.007  32.528  0.00  0.00     0.037 A 
ATOM      5  C   UNL d   1      56.850  -0.237  31.741  0.00  0.00     0.102 A 
ATOM      6  N   UNL d   1      58.524   0.582  30.743  0.00  0.00    -0.035 NA
ATOM      7  C   UNL d   1      57.592   0.447  32.755  0.00  0.00     0.101 A 
ATOM      8  N   UNL d   1      57.478  -0.149  30.375  0.00  0.00    -0.127 NA
ATOM      9  C   UNL d   1      58.165   0.217  30.095  0.00  0.00     0.239 A 
ATOM     10  C   UNL d   1      56.206  -0.686  31.513  0.00  0.00     0.021 C 
ATOM     11  C   UNL d   1      57.683   0.677  33.541  0.00  0.00     0.021 C 
ENDROOT
BRANCH   4  12
ATOM     12  C   UNL d   1      56.387  -0.227  33.088  0.00  0.00     0.009 C 
BRANCH  12  13
ATOM     13  C   UNL d   1      55.638   0.117  33.090  0.00  0.00     0.070 C 
BRANCH  13  14
ATOM     14  C   UNL d   1      55.110  -0.049  33.701  0.00  0.00     0.211 C 
ATOM     15  O   UNL d   1      54.554   0.513  33.934  0.00  0.00    -0.644 OA
ATOM     16  O   UNL d   1      55.139  -0.780  34.082  0.00  0.00    -0.644 OA
ENDBRANCH  13  14
ENDBRANCH  12  13
ENDBRANCH   4  12
TORSDOF 3
ENDMDL
MODEL 3
REMARK VINA RESULT:      -2.7      3.980      5.090
REMARK  3 active torsions:
REMARK  status: ('A' for Active; 'I' for Inactive)
REMARK    1  A    between atoms: C_10  and  C_4 
REMARK    2  A    between atoms: C_13  and  C_10 
REMARK    3  A    between atoms: C_11  and  C_13 
ROOT
ATOM      1  C   UNL d   1      60.643  -2.343  29.173  0.00  0.00     0.752 A 
ATOM      2  N   UNL d   1      59.861  -2.599  29.148  0.00  0.00    -0.056 N 
ATOM      3  N   UNL d   1      60.804  -1.536  29.169  0.00  0.00    -0.059 NA
ATOM      4  C   UNL d   1      59.406  -1.247  29.116  0.00  0.00     0.037 A 
ATOM      5  C   UNL d   1      59.237  -2.055  29.119  0.00  0.00     0.102 A 
ATOM      6  N   UNL d   1      61.126  -3.000  29.198  0.00  0.00    -0.035 NA
ATOM      7  C   UNL d   1      60.189  -0.987  29.140  0.00  0.00     0.101 A 
ATOM      8  N   UNL d   1      59.867  -3.422  29.158  0.00  0.00    -0.127 NA
ATOM      9  C   UNL d   1      60.653  -3.678  29.189  0.00  0.00     0.239 A 
ATOM     10  C   UNL d   1      58.463  -2.314  29.094  0.00  0.00     0.021 C 
ATOM     11  C   UNL d   1      60.358  -0.180  29.137  0.00  0.00     0.021 C 
ENDROOT
BRANCH   4  12
ATOM     12  C   UNL d   1      58.800  -0.699  29.087  0.00  0.00     0.009 C 
BRANCH  12  13
ATOM     13  C   UNL d   1      58.507  -0.367  29.783  0.00  0.00     0.070 C 
BRANCH  13  14
ATOM     14  C   UNL d   1      57.868   0.152  29.753  0.00  0.00     0.211 C 
ATOM     15  O   UNL d   1      57.739   0.614  29.082  0.00  0.00    -0.644 OA
ATOM     16  O   UNL d   1      57.354   0.212  30.396  0.00  0.00    -0.644 OA
ENDBRANCH  13  14
ENDBRANCH  12  13
ENDBRANCH   4  12
TORSDOF 3
ENDMDL
MODEL 4
REMARK VINA RESULT:      -1.5      2.392      3.437
REMARK  3 active torsions:
REMARK  status: ('A' for Active; 'I' for Inactive)
REMARK    1  A    between atoms: C_10  and  C_4 
REMARK    2  A    between atoms: C_13  and  C_10 
REMARK    3  A    between atoms: C_11  and  C_13 
ROOT
ATOM      1  C   UNL d   1      59.011  -1.415  29.183  0.00  0.00     0.752 A 
ATOM      2  N   UNL d   1      58.460  -1.772  29.681  0.00  0.00    -0.056 N 
ATOM      3  N   UNL d   1      59.098  -0.597  29.199  0.00  0.00    -0.059 NA
ATOM      4  C   UNL d   1      58.088  -0.498  30.203  0.00  0.00     0.037 A 
ATOM      5  C   UNL d   1      57.995  -1.317  30.194  0.00  0.00     0.102 A 
ATOM      6  N   UNL d   1      59.379  -2.000  28.750  0.00  0.00    -0.035 NA
ATOM      7  C   UNL d   1      58.639  -0.137  29.706  0.00  0.00     0.101 A 
ATOM      8  N   UNL d   1      58.492  -2.584  29.549  0.00  0.00    -0.127 NA
ATOM      9  C   UNL d   1      59.064  -2.732  28.969  0.00  0.00     0.239 A 
ATOM     10  C   UNL d   1      57.449  -1.677  30.685  0.00  0.00     0.021 C 
ATOM     11  C   UNL d   1      58.732   0.682  29.716  0.00  0.00     0.021 C 
ENDROOT
BRANCH   4  12
ATOM     12  C   UNL d   1      57.635  -0.037  30.705  0.00  0.00     0.009 C 
BRANCH  12  13
ATOM     13  C   UNL d   1      57.967   0.284  31.388  0.00  0.00     0.070 C 
BRANCH  13  14
ATOM     14  C   UNL d   1      57.479   0.531  32.005  0.00  0.00     0.211 C 
ATOM     15  O   UNL d   1      56.673   0.647  31.876  0.00  0.00    -0.644 OA
ATOM     16  O   UNL d   1      57.798   0.663  32.754  0.00  0.00    -0.644 OA
ENDBRANCH  13  14
ENDBRANCH  12  13
ENDBRANCH   4  12
TORSDOF 3
ENDMDL
MODEL 5
REMARK VINA RESULT:      -1.4      2.970      4.248
REMARK  3 active torsions:
REMARK  status: ('A' for Active; 'I' for Inactive)
REMARK    1  A    between atoms: C_10  and  C_4 
REMARK    2  A    between atoms: C_13  and  C_10 
REMARK    3  A    between atoms: C_11  and  C_13 
ROOT
ATOM      1  C   UNL d   1      57.560   0.656  32.346  0.00  0.00     0.752 A 
ATOM      2  N   UNL d   1      57.102   0.609  31.662  0.00  0.00    -0.056 N 
ATOM      3  N   UNL d   1      58.380   0.680  32.281  0.00  0.00    -0.059 NA
ATOM      4  C   UNL d   1      58.281   0.611  30.859  0.00  0.00     0.037 A 
ATOM      5  C   UNL d   1      57.458   0.587  30.915  0.00  0.00     0.102 A 
ATOM      6  N   UNL d   1      57.057   0.669  32.988  0.00  0.00    -0.035 NA
ATOM      7  C   UNL d   1      58.742   0.658  31.541  0.00  0.00     0.101 A 
ATOM      8  N   UNL d   1      56.312   0.594  31.891  0.00  0.00    -0.127 NA
ATOM      9  C   UNL d   1      56.277   0.631  32.717  0.00  0.00     0.239 A 
ATOM     10  C   UNL d   1      57.000   0.540  30.240  0.00  0.00     0.021 C 
ATOM     11  C   UNL d   1      59.564   0.682  31.486  0.00  0.00     0.021 C 
ENDROOT
BRANCH   4  12
ATOM     12  C   UNL d   1      58.645   0.589  30.127  0.00  0.00     0.009 C 
BRANCH  12  13
ATOM     13  C   UNL d   1      58.982  -0.111  29.850  0.00  0.00     0.070 C 
BRANCH  13  14
ATOM     14  C   UNL d   1      59.304  -0.141  29.092  0.00  0.00     0.211 C 
ATOM     15  O   UNL d   1      59.545  -0.861  28.771  0.00  0.00    -0.644 OA
ATOM     16  O   UNL d   1      59.387   0.551  28.653  0.00  0.00    -0.644 OA
ENDBRANCH  13  14
ENDBRANCH  12  13
ENDBRANCH   4  12
TORSDOF 3
ENDMDL
MODEL 6
REMARK VINA RESULT:      -1.2      2.508      3.602
REMARK  3 active torsions:
REMARK  status: ('A' for Active; 'I' for Inactive)
REMARK    1  A    between atoms: C_10  and  C_4 
REMARK    2  A    between atoms: C_13  and  C_10 
REMARK    3  A    between atoms: C_11  and  C_13 
ROOT
ATOM      1  C   UNL d   1      56.123   0.679  34.731  0.00  0.00     0.752 A 
ATOM      2  N   UNL d   1      55.550   0.677  34.140  0.00  0.00    -0.056 N 
ATOM      3  N   UNL d   1      56.919   0.679  34.521  0.00  0.00    -0.059 NA
ATOM      4  C   UNL d   1      56.565   0.673  33.138  0.00  0.00     0.037 A 
ATOM      5  C   UNL d   1      55.765   0.674  33.340  0.00  0.00     0.102 A 
ATOM      6  N   UNL d   1      55.744   0.682  35.454  0.00  0.00    -0.035 NA
ATOM      7  C   UNL d   1      57.142   0.676  33.728  0.00  0.00     0.101 A 
ATOM      8  N   UNL d   1      54.813   0.678  34.506  0.00  0.00    -0.127 NA
ATOM      9  C   UNL d   1      54.928   0.681  35.326  0.00  0.00     0.239 A 
ATOM     10  C   UNL d   1      55.192   0.671  32.758  0.00  0.00     0.021 C 
ATOM     11  C   UNL d   1      57.941   0.675  33.525  0.00  0.00     0.021 C 
ENDROOT
BRANCH   4  12
ATOM     12  C   UNL d   1      56.791   0.670  32.352  0.00  0.00     0.009 C 
BRANCH  12  13
ATOM     13  C   UNL d   1      57.112  -0.010  32.014  0.00  0.00     0.070 C 
BRANCH  13  14
ATOM     14  C   UNL d   1      57.290  -0.025  31.210  0.00  0.00     0.211 C 
ATOM     15  O   UNL d   1      57.379  -0.745  30.817  0.00  0.00    -0.644 OA
ATOM     16  O   UNL d   1      57.380   0.682  30.795  0.00  0.00    -0.644 OA
ENDBRANCH  13  14
ENDBRANCH  12  13
ENDBRANCH   4  12
TORSDOF 3
ENDMDL
