MODEL 1
REMARK VINA RESULT:      -2.7      0.000      0.000
REMARK  4 active torsions:
REMARK  status: ('A' for Active; 'I' for Inactive)
REMARK    1  A    between atoms: C_5  and  N_1 
REMARK    2  A    between atoms: C_7  and  C_5 
REMARK    3  A    between atoms: O_14  and  C_10 
REMARK    4  A    between atoms: C_17  and  O_14 
ROOT
ATOM      1  N   UNL d   1      57.803  -0.578  30.137  0.00  0.00    -0.251 N 
ATOM      2  C   UNL d   1      57.603   0.100  29.706  0.00  0.00     0.378 A 
ATOM      3  C   UNL d   1      58.362  -1.006  29.701  0.00  0.00     0.092 A 
ATOM      4  O   UNL d   1      58.039   0.091  29.003  0.00  0.00    -0.258 OA
ATOM      5  C   UNL d   1      58.507  -0.592  29.001  0.00  0.00     0.121 A 
ATOM      6  O   UNL d   1      57.067   0.682  29.933  0.00  0.00    -0.237 OA
ATOM      7  C   UNL d   1      58.749  -1.712  29.858  0.00  0.00     0.020 A 
ATOM      8  C   UNL d   1      59.050  -0.898  28.455  0.00  0.00     0.026 A 
ATOM      9  C   UNL d   1      59.286  -2.012  29.315  0.00  0.00     0.002 A 
ATOM     10  C   UNL d   1      59.437  -1.605  28.613  0.00  0.00     0.002 A 
ATOM     11  C   UNL d   1      59.675  -2.721  29.470  0.00  0.00     0.000 C 
ENDROOT
BRANCH   1  12
ATOM     12  C   UNL d   1      57.520  -0.821  30.873  0.00  0.00     0.087 C 
BRANCH  12  13
ATOM     13  C   UNL d   1      57.602  -0.332  31.534  0.00  0.00     0.041 A 
ATOM     14  C   UNL d   1      57.064  -0.372  32.142  0.00  0.00     0.102 A 
ATOM     15  C   UNL d   1      57.147   0.113  32.795  0.00  0.00     0.025 A 
ATOM     16  C   UNL d   1      57.775   0.642  32.840  0.00  0.00     0.002 A 
ATOM     17  C   UNL d   1      58.321   0.682  32.222  0.00  0.00     0.000 A 
ATOM     18  C   UNL d   1      58.232   0.191  31.566  0.00  0.00     0.004 A 
BRANCH  14  19
ATOM     19  O   UNL d   1      56.430  -0.902  32.103  0.00  0.00    -0.305 OA
BRANCH  19  20
ATOM     20  C   UNL d   1      55.928  -0.995  32.752  0.00  0.00     0.123 C 
ATOM     21  C   UNL d   1      55.507  -1.700  32.853  0.00  0.00     0.029 C 
ENDBRANCH  19  20
ENDBRANCH  14  19
ENDBRANCH  12  13
ENDBRANCH   1  12
TORSDOF 4
ENDMDL
MODEL 2
REMARK VINA RESULT:      -2.7      1.567      2.874
REMARK  4 active torsions:
REMARK  status: ('A' for Active; 'I' for Inactive)
REMARK    1  A    between atoms: C_5  and  N_1 
REMARK    2  A    between atoms: C_7  and  C_5 
REMARK    3  A    between atoms: O_14  and  C_10 
REMARK    4  A    between atoms: C_17  and  O_14 
ROOT
ATOM      1  N   UNL d   1      59.560  -1.932  29.566  0.00  0.00    -0.251 N 
ATOM      2  C   UNL d   1      60.368  -1.752  29.592  0.00  0.00     0.378 A 
ATOM      3  C   UNL d   1      59.471  -2.670  29.202  0.00  0.00     0.092 A 
ATOM      4  O   UNL d   1      60.778  -2.380  29.242  0.00  0.00    -0.258 OA
ATOM      5  C   UNL d   1      60.224  -2.945  29.002  0.00  0.00     0.121 A 
ATOM      6  O   UNL d   1      60.706  -1.072  29.907  0.00  0.00    -0.237 OA
ATOM      7  C   UNL d   1      58.804  -3.115  29.031  0.00  0.00     0.020 A 
ATOM      8  C   UNL d   1      60.299  -3.680  28.625  0.00  0.00     0.026 A 
ATOM      9  C   UNL d   1      58.881  -3.842  28.659  0.00  0.00     0.002 A 
ATOM     10  C   UNL d   1      59.630  -4.125  28.455  0.00  0.00     0.002 A 
ATOM     11  C   UNL d   1      58.212  -4.291  28.487  0.00  0.00     0.000 C 
ENDROOT
BRANCH   1  12
ATOM     12  C   UNL d   1      58.925  -1.485  29.844  0.00  0.00     0.087 C 
BRANCH  12  13
ATOM     13  C   UNL d   1      58.743  -0.758  29.494  0.00  0.00     0.041 A 
ATOM     14  C   UNL d   1      58.182  -0.273  29.826  0.00  0.00     0.102 A 
ATOM     15  C   UNL d   1      58.003   0.445  29.479  0.00  0.00     0.025 A 
ATOM     16  C   UNL d   1      58.389   0.680  28.793  0.00  0.00     0.002 A 
ATOM     17  C   UNL d   1      58.959   0.187  28.455  0.00  0.00     0.000 A 
ATOM     18  C   UNL d   1      59.135  -0.536  28.810  0.00  0.00     0.004 A 
BRANCH  14  19
ATOM     19  O   UNL d   1      57.789  -0.504  30.518  0.00  0.00    -0.305 OA
BRANCH  19  20
ATOM     20  C   UNL d   1      57.477   0.067  31.026  0.00  0.00     0.123 C 
ATOM     21  C   UNL d   1      57.419  -0.086  31.837  0.00  0.00     0.029 C 
ENDBRANCH  19  20
ENDBRANCH  14  19
ENDBRANCH  12  13
ENDBRANCH   1  12
TORSDOF 4
ENDMDL
MODEL 3
REMARK VINA RESULT:      -1.9      1.717      2.376
REMARK  4 active torsions:
REMARK  status: ('A' for Active; 'I' for Inactive)
REMARK    1  A    between atoms: C_5  and  N_1 
REMARK    2  A    between atoms: C_7  and  C_5 
REMARK    3  A    between atoms: O_14  and  C_10 
REMARK    4  A    between atoms: C_17  and  O_14 
ROOT
ATOM      1  N   UNL d   1      57.632   0.617  31.446  0.00  0.00    -0.251 N 
ATOM      2  C   UNL d   1      57.203   0.649  30.738  0.00  0.00     0.378 A 
ATOM      3  C   UNL d   1      58.438   0.623  31.260  0.00  0.00     0.092 A 
ATOM      4  O   UNL d   1      57.746   0.674  30.114  0.00  0.00    -0.258 OA
ATOM      5  C   UNL d   1      58.508   0.658  30.438  0.00  0.00     0.121 A 
ATOM      6  O   UNL d   1      56.384   0.655  30.664  0.00  0.00    -0.237 OA
ATOM      7  C   UNL d   1      59.106   0.601  31.736  0.00  0.00     0.020 A 
ATOM      8  C   UNL d   1      59.263   0.671  30.096  0.00  0.00     0.026 A 
ATOM      9  C   UNL d   1      59.852   0.613  31.395  0.00  0.00     0.002 A 
ATOM     10  C   UNL d   1      59.930   0.648  30.573  0.00  0.00     0.002 A 
ATOM     11  C   UNL d   1      60.524   0.591  31.871  0.00  0.00     0.000 C 
ENDROOT
BRANCH   1  12
ATOM     12  C   UNL d   1      57.345   0.585  32.219  0.00  0.00     0.087 C 
BRANCH  12  13
ATOM     13  C   UNL d   1      56.862  -0.042  32.459  0.00  0.00     0.041 A 
ATOM     14  C   UNL d   1      56.450   0.004  33.157  0.00  0.00     0.102 A 
ATOM     15  C   UNL d   1      55.972  -0.617  33.393  0.00  0.00     0.025 A 
ATOM     16  C   UNL d   1      55.908  -1.290  32.924  0.00  0.00     0.002 A 
ATOM     17  C   UNL d   1      56.328  -1.336  32.215  0.00  0.00     0.000 A 
ATOM     18  C   UNL d   1      56.807  -0.706  31.982  0.00  0.00     0.004 A 
BRANCH  14  19
ATOM     19  O   UNL d   1      56.510   0.678  33.633  0.00  0.00    -0.305 OA
BRANCH  19  20
ATOM     20  C   UNL d   1      56.368   0.625  34.445  0.00  0.00     0.123 C 
ATOM     21  C   UNL d   1      57.001   0.629  34.978  0.00  0.00     0.029 C 
ENDBRANCH  19  20
ENDBRANCH  14  19
ENDBRANCH  12  13
ENDBRANCH   1  12
TORSDOF 4
ENDMDL
MODEL 4
REMARK VINA RESULT:      -1.8      1.895      3.245
REMARK  4 active torsions:
REMARK  status: ('A' for Active; 'I' for Inactive)
REMARK    1  A    between atoms: C_5  and  N_1 
REMARK    2  A    between atoms: C_7  and  C_5 
REMARK    3  A    between atoms: O_14  and  C_10 
REMARK    4  A    between atoms: C_17  and  O_14 
ROOT
ATOM      1  N   UNL d   1      56.613  -0.963  32.658  0.00  0.00    -0.251 N 
ATOM      2  C   UNL d   1      56.229  -1.670  32.462  0.00  0.00     0.378 A 
ATOM      3  C   UNL d   1      57.061  -0.723  32.005  0.00  0.00     0.092 A 
ATOM      4  O   UNL d   1      56.440  -1.867  31.687  0.00  0.00    -0.258 OA
ATOM      5  C   UNL d   1      56.953  -1.282  31.406  0.00  0.00     0.121 A 
ATOM      6  O   UNL d   1      55.726  -2.103  32.949  0.00  0.00    -0.237 OA
ATOM      7  C   UNL d   1      57.545  -0.072  31.888  0.00  0.00     0.020 A 
ATOM      8  C   UNL d   1      57.342  -1.177  30.682  0.00  0.00     0.026 A 
ATOM      9  C   UNL d   1      57.929   0.028  31.170  0.00  0.00     0.002 A 
ATOM     10  C   UNL d   1      57.827  -0.525  30.566  0.00  0.00     0.002 A 
ATOM     11  C   UNL d   1      58.416   0.682  31.051  0.00  0.00     0.000 C 
ENDROOT
BRANCH   1  12
ATOM     12  C   UNL d   1      56.581  -0.541  33.366  0.00  0.00     0.087 C 
BRANCH  12  13
ATOM     13  C   UNL d   1      55.895  -0.131  33.577  0.00  0.00     0.041 A 
ATOM     14  C   UNL d   1      55.846   0.241  34.297  0.00  0.00     0.102 A 
ATOM     15  C   UNL d   1      55.167   0.647  34.505  0.00  0.00     0.025 A 
ATOM     16  C   UNL d   1      54.530   0.680  33.985  0.00  0.00     0.002 A 
ATOM     17  C   UNL d   1      54.581   0.302  33.253  0.00  0.00     0.000 A 
ATOM     18  C   UNL d   1      55.268  -0.106  33.050  0.00  0.00     0.004 A 
BRANCH  14  19
ATOM     19  O   UNL d   1      56.483   0.212  34.826  0.00  0.00    -0.305 OA
BRANCH  19  20
ATOM     20  C   UNL d   1      56.441   0.612  35.547  0.00  0.00     0.123 C 
ATOM     21  C   UNL d   1      57.114   0.682  36.023  0.00  0.00     0.029 C 
ENDBRANCH  19  20
ENDBRANCH  14  19
ENDBRANCH  12  13
ENDBRANCH   1  12
TORSDOF 4
ENDMDL
MODEL 5
REMARK VINA RESULT:      -0.7      1.214      3.863
REMARK  4 active torsions:
REMARK  status: ('A' for Active; 'I' for Inactive)
REMARK    1  A    between atoms: C_5  and  N_1 
REMARK    2  A    between atoms: C_7  and  C_5 
REMARK    3  A    between atoms: O_14  and  C_10 
REMARK    4  A    between atoms: C_17  and  O_14 
ROOT
ATOM      1  N   UNL d   1      57.617   0.167  30.940  0.00  0.00    -0.251 N 
ATOM      2  C   UNL d   1      57.141   0.514  30.358  0.00  0.00     0.378 A 
ATOM      3  C   UNL d   1      57.177   0.120  31.640  0.00  0.00     0.092 A 
ATOM      4  O   UNL d   1      56.406   0.682  30.699  0.00  0.00    -0.258 OA
ATOM      5  C   UNL d   1      56.429   0.438  31.490  0.00  0.00     0.121 A 
ATOM      6  O   UNL d   1      57.357   0.667  29.579  0.00  0.00    -0.237 OA
ATOM      7  C   UNL d   1      57.367  -0.171  32.383  0.00  0.00     0.020 A 
ATOM      8  C   UNL d   1      55.870   0.461  32.100  0.00  0.00     0.026 A 
ATOM      9  C   UNL d   1      56.810  -0.147  32.985  0.00  0.00     0.002 A 
ATOM     10  C   UNL d   1      56.061   0.170  32.844  0.00  0.00     0.002 A 
ATOM     11  C   UNL d   1      56.999  -0.439  33.732  0.00  0.00     0.000 C 
ENDROOT
BRANCH   1  12
ATOM     12  C   UNL d   1      58.395  -0.099  30.876  0.00  0.00     0.087 C 
BRANCH  12  13
ATOM     13  C   UNL d   1      58.596  -0.672  30.314  0.00  0.00     0.041 A 
ATOM     14  C   UNL d   1      59.294  -0.616  29.904  0.00  0.00     0.102 A 
ATOM     15  C   UNL d   1      59.491  -1.183  29.349  0.00  0.00     0.025 A 
ATOM     16  C   UNL d   1      58.982  -1.813  29.204  0.00  0.00     0.002 A 
ATOM     17  C   UNL d   1      58.272  -1.870  29.622  0.00  0.00     0.000 A 
ATOM     18  C   UNL d   1      58.080  -1.294  30.180  0.00  0.00     0.004 A 
BRANCH  14  19
ATOM     19  O   UNL d   1      59.811   0.016  30.045  0.00  0.00    -0.305 OA
BRANCH  19  20
ATOM     20  C   UNL d   1      60.582  -0.007  29.751  0.00  0.00     0.123 C 
ATOM     21  C   UNL d   1      61.040   0.682  29.732  0.00  0.00     0.029 C 
ENDBRANCH  19  20
ENDBRANCH  14  19
ENDBRANCH  12  13
ENDBRANCH   1  12
TORSDOF 4
ENDMDL
