MODEL 1
REMARK VINA RESULT:      -0.0      0.000      0.000
REMARK  8 active torsions:
REMARK  status: ('A' for Active; 'I' for Inactive)
REMARK    1  A    between atoms: C_21  and  C_3 
REMARK    2  A    between atoms: S_17  and  C_5 
REMARK    3  A    between atoms: C_11  and  C_16 
REMARK       I    between atoms: N_14  and  C_11 
REMARK    4  A    between atoms: C_19  and  N_14 
REMARK    5  A    between atoms: C_16  and  C_20 
REMARK    6  A    between atoms: C_20  and  S_17 
REMARK    7  A    between atoms: O_27  and  C_22 
REMARK    8  A    between atoms: C_30  and  O_27 
ROOT
ATOM      1  C   UNL d   1      56.815   0.671  33.620  0.00  0.00     0.092 A 
ATOM      2  C   UNL d   1      55.576   0.675  34.333  0.00  0.00     0.057 A 
ATOM      3  C   UNL d   1      56.400   0.674  34.335  0.00  0.00     0.016 A 
ATOM      4  N   UNL d   1      55.577   0.669  32.905  0.00  0.00    -0.239 NA
ATOM      5  C   UNL d   1      56.404   0.668  32.905  0.00  0.00     0.120 A 
ATOM      6  C   UNL d   1      55.164   0.672  33.618  0.00  0.00     0.081 A 
ATOM      7  C   UNL d   1      55.165   0.679  35.046  0.00  0.00     0.193 A 
ATOM      8  C   UNL d   1      57.651   0.670  33.629  0.00  0.00     0.103 C 
ATOM      9  N   UNL d   1      58.490   0.669  33.633  0.00  0.00    -0.191 NA
ATOM     10  C   UNL d   1      53.929   0.677  34.329  0.00  0.00     0.042 A 
ATOM     11  C   UNL d   1      54.341   0.679  35.044  0.00  0.00     0.019 A 
ATOM     12  C   UNL d   1      54.342   0.673  33.616  0.00  0.00    -0.003 A 
ATOM     13  O   UNL d   1      55.576   0.681  35.761  0.00  0.00    -0.287 OA
ATOM     14  C   UNL d   1      53.294   0.675  33.800  0.00  0.00     0.009 C 
ATOM     15  C   UNL d   1      53.507   0.680  35.048  0.00  0.00     0.009 C 
ENDROOT
BRANCH   3  16
ATOM     16  C   UNL d   1      56.811   0.677  35.051  0.00  0.00     0.001 C 
ATOM     17  C   UNL d   1      56.998  -0.034  35.421  0.00  0.00     0.000 C 
ENDBRANCH   3  16
BRANCH   5  18
ATOM     18  S   UNL d   1      56.822   0.665  32.189  0.00  0.00    -0.067 SA
BRANCH  18  19
ATOM     19  C   UNL d   1      56.934  -0.048  31.782  0.00  0.00     0.042 C 
BRANCH  19  20
ATOM     20  C   UNL d   1      57.078  -0.043  30.963  0.00  0.00     0.070 C 
BRANCH  20  21
ATOM     21  C   UNL d   1      57.569  -0.616  30.625  0.00  0.00     0.280 C 
ATOM     22  N   UNL d   1      58.050  -0.422  29.975  0.00  0.00    -0.208 NA
ATOM     23  O   UNL d   1      57.583  -1.385  30.935  0.00  0.00    -0.265 OA
BRANCH  22  24
ATOM     24  C   UNL d   1      58.542  -0.996  29.636  0.00  0.00     0.085 A 
ATOM     25  C   UNL d   1      59.333  -1.059  29.877  0.00  0.00     0.021 A 
ATOM     26  C   UNL d   1      59.816  -1.631  29.537  0.00  0.00     0.026 A 
ATOM     27  C   UNL d   1      59.522  -2.152  28.952  0.00  0.00     0.100 A 
ATOM     28  C   UNL d   1      58.734  -2.084  28.717  0.00  0.00     0.026 A 
ATOM     29  C   UNL d   1      58.242  -1.511  29.055  0.00  0.00     0.021 A 
BRANCH  27  30
ATOM     30  O   UNL d   1      60.019  -2.736  28.607  0.00  0.00    -0.305 OA
BRANCH  30  31
ATOM     31  C   UNL d   1      60.156  -3.446  29.007  0.00  0.00     0.123 C 
ATOM     32  C   UNL d   1      60.630  -4.017  28.664  0.00  0.00     0.029 C 
ENDBRANCH  30  31
ENDBRANCH  27  30
ENDBRANCH  22  24
ENDBRANCH  20  21
ENDBRANCH  19  20
ENDBRANCH  18  19
ENDBRANCH   5  18
TORSDOF 8
ENDMDL
