MODEL 1
REMARK VINA RESULT:      -1.7      0.000      0.000
REMARK  5 active torsions:
REMARK  status: ('A' for Active; 'I' for Inactive)
REMARK    1  A    between atoms: C_3  and  S_1 
REMARK    2  A    between atoms: C_7  and  S_1 
REMARK    3  A    between atoms: C_2  and  C_3 
REMARK    4  A    between atoms: C_9  and  C_3 
REMARK    5  A    between atoms: N_8  and  C_4 
ROOT
ATOM      1  C   UNL d   1      58.114  -0.520  30.541  0.00  0.00     0.128 A 
ATOM      2  C   UNL d   1      58.610   0.026  30.894  0.00  0.00     0.166 A 
ATOM      3  N   UNL d   1      57.383  -0.708  30.883  0.00  0.00    -0.240 NA
ATOM      4  N   UNL d   1      58.379   0.396  31.602  0.00  0.00    -0.225 NA
ATOM      5  C   UNL d   1      57.160  -0.339  31.583  0.00  0.00     0.099 A 
ATOM      6  C   UNL d   1      57.654   0.208  31.939  0.00  0.00     0.101 A 
ATOM      7  C   UNL d   1      57.418   0.574  32.645  0.00  0.00     0.021 A 
ATOM      8  C   UNL d   1      56.435  -0.527  31.920  0.00  0.00     0.021 A 
ATOM      9  C   UNL d   1      56.697   0.391  32.985  0.00  0.00     0.002 A 
ATOM     10  C   UNL d   1      56.207  -0.160  32.620  0.00  0.00     0.002 A 
ENDROOT
BRANCH   1  11
ATOM     11  C   UNL d   1      58.336  -0.889  29.841  0.00  0.00     0.129 C 
BRANCH  11  12
ATOM     12  S   UNL d   1      58.390  -1.785  29.831  0.00  0.00     0.213 S 
ATOM     13  O   UNL d   1      57.728  -2.236  30.208  0.00  0.00    -0.217 OA
ATOM     14  O   UNL d   1      57.677  -1.600  30.222  0.00  0.00    -0.217 OA
BRANCH  12  15
ATOM     15  C   UNL d   1      58.957  -2.308  29.528  0.00  0.00     0.088 A 
ATOM     16  C   UNL d   1      58.785  -2.740  28.837  0.00  0.00     0.011 A 
ATOM     17  C   UNL d   1      59.348  -3.266  28.527  0.00  0.00     0.001 A 
ATOM     18  C   UNL d   1      58.060  -2.647  28.461  0.00  0.00     0.001 C 
ATOM     19  C   UNL d   1      60.079  -3.356  28.911  0.00  0.00     0.000 A 
ATOM     20  C   UNL d   1      60.244  -2.922  29.601  0.00  0.00     0.001 A 
ATOM     21  C   UNL d   1      59.681  -2.401  29.904  0.00  0.00     0.011 A 
ATOM     22  C   UNL d   1      60.969  -3.015  29.977  0.00  0.00     0.000 C 
ENDBRANCH  12  15
ENDBRANCH  11  12
BRANCH  11  23
ATOM     23  C   UNL d   1      58.537  -0.546  29.075  0.00  0.00     0.135 C 
ATOM     24  N   UNL d   1      57.980  -0.221  28.456  0.00  0.00    -0.146 N 
ENDBRANCH  11  23
ENDBRANCH   1  11
BRANCH   2  25
ATOM     25  N   UNL d   1      59.344   0.212  30.548  0.00  0.00    -0.284 N 
ATOM     26  C   UNL d   1      60.037   0.210  31.012  0.00  0.00     0.108 A 
ATOM     27  C   UNL d   1      60.764   0.397  30.662  0.00  0.00     0.142 A 
ATOM     28  O   UNL d   1      60.812   0.585  29.857  0.00  0.00    -0.300 OA
ATOM     29  C   UNL d   1      60.119   0.587  29.392  0.00  0.00     0.142 A 
ATOM     30  C   UNL d   1      59.377   0.401  29.734  0.00  0.00     0.108 A 
ENDBRANCH   2  25
TORSDOF 5
ENDMDL
MODEL 2
REMARK VINA RESULT:      -1.2      1.073      3.563
REMARK  5 active torsions:
REMARK  status: ('A' for Active; 'I' for Inactive)
REMARK    1  A    between atoms: C_3  and  S_1 
REMARK    2  A    between atoms: C_7  and  S_1 
REMARK    3  A    between atoms: C_2  and  C_3 
REMARK    4  A    between atoms: C_9  and  C_3 
REMARK    5  A    between atoms: N_8  and  C_4 
ROOT
ATOM      1  C   UNL d   1      59.027  -1.427  29.420  0.00  0.00     0.128 A 
ATOM      2  C   UNL d   1      59.839  -1.418  29.323  0.00  0.00     0.166 A 
ATOM      3  N   UNL d   1      58.595  -2.122  29.287  0.00  0.00    -0.240 NA
ATOM      4  N   UNL d   1      60.236  -2.111  29.089  0.00  0.00    -0.225 NA
ATOM      5  C   UNL d   1      58.992  -2.803  29.056  0.00  0.00     0.099 A 
ATOM      6  C   UNL d   1      59.804  -2.798  28.958  0.00  0.00     0.101 A 
ATOM      7  C   UNL d   1      60.193  -3.492  28.725  0.00  0.00     0.021 A 
ATOM      8  C   UNL d   1      58.561  -3.490  28.924  0.00  0.00     0.021 A 
ATOM      9  C   UNL d   1      59.770  -4.179  28.593  0.00  0.00     0.002 A 
ATOM     10  C   UNL d   1      58.954  -4.175  28.693  0.00  0.00     0.002 A 
ENDROOT
BRANCH   1  11
ATOM     11  C   UNL d   1      58.630  -0.745  29.651  0.00  0.00     0.129 C 
BRANCH  11  12
ATOM     12  S   UNL d   1      57.938  -0.826  30.217  0.00  0.00     0.213 S 
ATOM     13  O   UNL d   1      57.222  -1.257  29.923  0.00  0.00    -0.217 OA
ATOM     14  O   UNL d   1      57.707  -1.206  29.511  0.00  0.00    -0.217 OA
BRANCH  12  15
ATOM     15  C   UNL d   1      57.820  -0.571  30.996  0.00  0.00     0.088 A 
ATOM     16  C   UNL d   1      57.144  -0.827  31.410  0.00  0.00     0.011 A 
ATOM     17  C   UNL d   1      57.018  -0.575  32.192  0.00  0.00     0.001 A 
ATOM     18  C   UNL d   1      56.602  -1.327  31.048  0.00  0.00     0.001 C 
ATOM     19  C   UNL d   1      57.570  -0.070  32.553  0.00  0.00     0.000 A 
ATOM     20  C   UNL d   1      58.243   0.181  32.134  0.00  0.00     0.001 A 
ATOM     21  C   UNL d   1      58.362  -0.072  31.358  0.00  0.00     0.011 A 
ATOM     22  C   UNL d   1      58.785   0.681  32.496  0.00  0.00     0.000 C 
ENDBRANCH  12  15
ENDBRANCH  11  12
BRANCH  11  23
ATOM     23  C   UNL d   1      58.771   0.078  29.432  0.00  0.00     0.135 C 
ATOM     24  N   UNL d   1      58.267   0.602  28.910  0.00  0.00    -0.146 N 
ENDBRANCH  11  23
ENDBRANCH   1  11
BRANCH   2  25
ATOM     25  N   UNL d   1      60.271  -0.718  29.458  0.00  0.00    -0.284 N 
ATOM     26  C   UNL d   1      60.347  -0.151  28.851  0.00  0.00     0.108 A 
ATOM     27  C   UNL d   1      60.777   0.542  28.991  0.00  0.00     0.142 A 
ATOM     28  O   UNL d   1      61.133   0.680  29.727  0.00  0.00    -0.300 OA
ATOM     29  C   UNL d   1      61.057   0.113  30.334  0.00  0.00     0.142 A 
ATOM     30  C   UNL d   1      60.625  -0.592  30.206  0.00  0.00     0.108 A 
ENDBRANCH   2  25
TORSDOF 5
ENDMDL
