MODEL 1
REMARK VINA RESULT:      66.6      0.000      0.000
REMARK  5 active torsions:
REMARK  status: ('A' for Active; 'I' for Inactive)
REMARK    1  A    between atoms: O_4  and  C_1 
REMARK    2  A    between atoms: C_10  and  C_2 
REMARK    3  A    between atoms: C_5  and  O_4 
REMARK    4  A    between atoms: C_7  and  C_5 
REMARK    5  A    between atoms: N_12  and  C_10 
ROOT
ATOM      1  C   UNL d   1     -52.016  24.668  33.423  0.00  0.00     0.122 A 
ATOM      2  C   UNL d   1     -51.203  24.529  33.354  0.00  0.00     0.043 A 
ATOM      3  C   UNL d   1     -52.298  25.444  33.452  0.00  0.00     0.105 A 
ATOM      4  C   UNL d   1     -51.772  26.078  33.413  0.00  0.00     0.030 A 
ATOM      5  C   UNL d   1     -50.967  25.932  33.344  0.00  0.00     0.059 A 
ATOM      6  C   UNL d   1     -50.676  25.163  33.315  0.00  0.00     0.015 A 
ATOM      7  N   UNL d   1     -53.106  25.579  33.521  0.00  0.00    -0.242 NA
ATOM      8 CL   UNL d   1     -50.453  26.592  33.306  0.00  0.00    -0.082 Cl
ATOM      9  C   UNL d   1     -52.057  26.843  33.442  0.00  0.00     0.004 A 
ATOM     10  C   UNL d   1     -53.388  26.355  33.550  0.00  0.00     0.099 A 
ATOM     11  C   UNL d   1     -52.862  26.989  33.511  0.00  0.00     0.021 A 
ENDROOT
BRANCH   1  12
ATOM     12  O   UNL d   1     -52.501  24.100  33.459  0.00  0.00    -0.271 OA
BRANCH  12  13
ATOM     13  C   UNL d   1     -53.318  23.839  33.904  0.00  0.00     0.306 C 
ATOM     14  O   UNL d   1     -54.128  23.832  33.306  0.00  0.00    -0.258 OA
BRANCH  13  15
ATOM     15  C   UNL d   1     -53.328  23.643  34.706  0.00  0.00     0.093 A 
ATOM     16  S   UNL d   1     -52.721  23.277  35.114  0.00  0.00    -0.081 SA
ATOM     17  C   UNL d   1     -52.981  23.190  35.920  0.00  0.00     0.036 A 
ATOM     18  C   UNL d   1     -53.737  23.506  35.974  0.00  0.00     0.008 A 
ATOM     19  C   UNL d   1     -53.946  23.788  35.205  0.00  0.00     0.012 A 
ENDBRANCH  13  15
ENDBRANCH  12  13
ENDBRANCH   1  12
BRANCH   2  20
ATOM     20  C   UNL d   1     -50.713  23.762  33.307  0.00  0.00     0.082 C 
BRANCH  20  21
ATOM     21  N   UNL d   1     -49.947  23.752  33.608  0.00  0.00    -0.299 N 
ATOM     22  C   UNL d   1     -49.385  24.272  33.327  0.00  0.00     0.107 A 
ATOM     23  C   UNL d   1     -48.621  24.264  33.625  0.00  0.00     0.142 A 
ATOM     24  O   UNL d   1     -48.421  23.719  34.219  0.00  0.00    -0.300 OA
ATOM     25  C   UNL d   1     -48.979  23.195  34.505  0.00  0.00     0.142 A 
ATOM     26  C   UNL d   1     -49.747  23.216  34.193  0.00  0.00     0.107 A 
ENDBRANCH  20  21
ENDBRANCH   2  20
TORSDOF 5
ENDMDL
MODEL 2
REMARK VINA RESULT:      69.2      2.073      4.504
REMARK  5 active torsions:
REMARK  status: ('A' for Active; 'I' for Inactive)
REMARK    1  A    between atoms: O_4  and  C_1 
REMARK    2  A    between atoms: C_10  and  C_2 
REMARK    3  A    between atoms: C_5  and  O_4 
REMARK    4  A    between atoms: C_7  and  C_5 
REMARK    5  A    between atoms: N_12  and  C_10 
ROOT
ATOM      1  C   UNL d   1     -50.699  25.426  33.653  0.00  0.00     0.122 A 
ATOM      2  C   UNL d   1     -51.524  25.363  33.680  0.00  0.00     0.043 A 
ATOM      3  C   UNL d   1     -50.240  24.748  33.537  0.00  0.00     0.105 A 
ATOM      4  C   UNL d   1     -50.602  24.012  33.449  0.00  0.00     0.030 A 
ATOM      5  C   UNL d   1     -51.421  23.959  33.477  0.00  0.00     0.059 A 
ATOM      6  C   UNL d   1     -51.886  24.627  33.591  0.00  0.00     0.015 A 
ATOM      7  N   UNL d   1     -49.421  24.814  33.511  0.00  0.00    -0.242 NA
ATOM      8 CL   UNL d   1     -51.765  23.201  33.384  0.00  0.00    -0.082 Cl
ATOM      9  C   UNL d   1     -50.143  23.347  33.335  0.00  0.00     0.004 A 
ATOM     10  C   UNL d   1     -48.962  24.137  33.395  0.00  0.00     0.099 A 
ATOM     11  C   UNL d   1     -49.324  23.401  33.307  0.00  0.00     0.021 A 
ENDROOT
BRANCH   1  12
ATOM     12  O   UNL d   1     -50.361  26.088  33.732  0.00  0.00    -0.271 OA
BRANCH  12  13
ATOM     13  C   UNL d   1     -50.192  26.770  34.396  0.00  0.00     0.306 C 
ATOM     14  O   UNL d   1     -50.527  26.538  35.317  0.00  0.00    -0.258 OA
BRANCH  13  15
ATOM     15  C   UNL d   1     -49.806  27.473  34.202  0.00  0.00     0.093 A 
ATOM     16  S   UNL d   1     -49.439  27.976  34.732  0.00  0.00    -0.081 SA
ATOM     17  C   UNL d   1     -49.121  28.624  34.280  0.00  0.00     0.036 A 
ATOM     18  C   UNL d   1     -49.306  28.491  33.491  0.00  0.00     0.008 A 
ATOM     19  C   UNL d   1     -49.737  27.765  33.453  0.00  0.00     0.012 A 
ENDBRANCH  13  15
ENDBRANCH  12  13
ENDBRANCH   1  12
BRANCH   2  20
ATOM     20  C   UNL d   1     -52.183  25.982  33.796  0.00  0.00     0.082 C 
BRANCH  20  21
ATOM     21  N   UNL d   1     -52.967  25.765  33.673  0.00  0.00    -0.299 N 
ATOM     22  C   UNL d   1     -53.207  24.995  33.787  0.00  0.00     0.107 A 
ATOM     23  C   UNL d   1     -53.988  24.776  33.665  0.00  0.00     0.142 A 
ATOM     24  O   UNL d   1     -54.538  25.349  33.423  0.00  0.00    -0.300 OA
ATOM     25  C   UNL d   1     -54.305  26.124  33.307  0.00  0.00     0.142 A 
ATOM     26  C   UNL d   1     -53.511  26.327  33.435  0.00  0.00     0.107 A 
ENDBRANCH  20  21
ENDBRANCH   2  20
TORSDOF 5
ENDMDL
