MODEL 1
REMARK VINA RESULT:       9.7      0.000      0.000
REMARK  5 active torsions:
REMARK  status: ('A' for Active; 'I' for Inactive)
REMARK    1  A    between atoms: O_4  and  C_1 
REMARK    2  A    between atoms: C_10  and  C_2 
REMARK    3  A    between atoms: C_5  and  O_4 
REMARK    4  A    between atoms: C_7  and  C_5 
REMARK    5  A    between atoms: N_12  and  C_10 
ROOT
ATOM      1  C   UNL d   1     -42.125-122.337 -51.912  0.00  0.00     0.122 A 
ATOM      2  C   UNL d   1     -41.600-121.724 -51.728  0.00  0.00     0.043 A 
ATOM      3  C   UNL d   1     -42.478-122.771 -51.303  0.00  0.00     0.105 A 
ATOM      4  C   UNL d   1     -42.309-122.594 -50.516  0.00  0.00     0.030 A 
ATOM      5  C   UNL d   1     -41.787-121.984 -50.342  0.00  0.00     0.059 A 
ATOM      6  C   UNL d   1     -41.430-121.547 -50.940  0.00  0.00     0.015 A 
ATOM      7  N   UNL d   1     -42.999-123.379 -51.489  0.00  0.00    -0.242 NA
ATOM      8 CL   UNL d   1     -41.631-121.823 -49.535  0.00  0.00    -0.082 Cl
ATOM      9  C   UNL d   1     -42.661-123.025 -49.920  0.00  0.00     0.004 A 
ATOM     10  C   UNL d   1     -43.353-123.812 -50.881  0.00  0.00     0.099 A 
ATOM     11  C   UNL d   1     -43.183-123.635 -50.093  0.00  0.00     0.021 A 
ENDROOT
BRANCH   1  12
ATOM     12  O   UNL d   1     -42.285-122.506 -52.623  0.00  0.00    -0.271 OA
BRANCH  12  13
ATOM     13  C   UNL d   1     -41.855-122.772 -53.446  0.00  0.00     0.306 C 
ATOM     14  O   UNL d   1     -41.127-123.457 -53.326  0.00  0.00    -0.258 OA
BRANCH  13  15
ATOM     15  C   UNL d   1     -42.081-122.451 -54.172  0.00  0.00     0.093 A 
ATOM     16  S   UNL d   1     -41.575-122.259 -54.785  0.00  0.00    -0.081 SA
ATOM     17  C   UNL d   1     -42.056-121.949 -55.416  0.00  0.00     0.036 A 
ATOM     18  C   UNL d   1     -42.837-121.964 -55.164  0.00  0.00     0.008 A 
ATOM     19  C   UNL d   1     -42.842-122.282 -54.380  0.00  0.00     0.012 A 
ENDBRANCH  13  15
ENDBRANCH  12  13
ENDBRANCH   1  12
BRANCH   2  20
ATOM     20  C   UNL d   1     -41.122-121.148 -52.249  0.00  0.00     0.082 C 
BRANCH  20  21
ATOM     21  N   UNL d   1     -41.123-120.345 -52.068  0.00  0.00    -0.299 N 
ATOM     22  C   UNL d   1     -41.123-119.787 -52.663  0.00  0.00     0.107 A 
ATOM     23  C   UNL d   1     -41.123-118.986 -52.487  0.00  0.00     0.142 A 
ATOM     24  O   UNL d   1     -41.123-118.745 -51.692  0.00  0.00    -0.300 OA
ATOM     25  C   UNL d   1     -41.123-119.298 -51.091  0.00  0.00     0.142 A 
ATOM     26  C   UNL d   1     -41.123-120.104 -51.287  0.00  0.00     0.107 A 
ENDBRANCH  20  21
ENDBRANCH   2  20
TORSDOF 5
ENDMDL
MODEL 2
REMARK VINA RESULT:      11.8      1.663      3.279
REMARK  5 active torsions:
REMARK  status: ('A' for Active; 'I' for Inactive)
REMARK    1  A    between atoms: O_4  and  C_1 
REMARK    2  A    between atoms: C_10  and  C_2 
REMARK    3  A    between atoms: C_5  and  O_4 
REMARK    4  A    between atoms: C_7  and  C_5 
REMARK    5  A    between atoms: N_12  and  C_10 
ROOT
ATOM      1  C   UNL d   1     -41.645-122.219 -52.164  0.00  0.00     0.122 A 
ATOM      2  C   UNL d   1     -41.383-121.435 -52.205  0.00  0.00     0.043 A 
ATOM      3  C   UNL d   1     -41.824-122.629 -52.859  0.00  0.00     0.105 A 
ATOM      4  C   UNL d   1     -41.743-122.257 -53.591  0.00  0.00     0.030 A 
ATOM      5  C   UNL d   1     -41.483-121.479 -53.623  0.00  0.00     0.059 A 
ATOM      6  C   UNL d   1     -41.302-121.064 -52.937  0.00  0.00     0.015 A 
ATOM      7  N   UNL d   1     -42.083-123.407 -52.815  0.00  0.00    -0.242 NA
ATOM      8 CL   UNL d   1     -41.409-121.124 -54.378  0.00  0.00    -0.082 Cl
ATOM      9  C   UNL d   1     -41.922-122.667 -54.274  0.00  0.00     0.004 A 
ATOM     10  C   UNL d   1     -42.263-123.817 -53.510  0.00  0.00     0.099 A 
ATOM     11  C   UNL d   1     -42.182-123.445 -54.242  0.00  0.00     0.021 A 
ENDROOT
BRANCH   1  12
ATOM     12  O   UNL d   1     -41.721-122.565 -51.505  0.00  0.00    -0.271 OA
BRANCH  12  13
ATOM     13  C   UNL d   1     -42.122-122.440 -50.635  0.00  0.00     0.306 C 
ATOM     14  O   UNL d   1     -42.698-121.617 -50.562  0.00  0.00    -0.258 OA
BRANCH  13  15
ATOM     15  C   UNL d   1     -41.989-122.974 -50.019  0.00  0.00     0.093 A 
ATOM     16  S   UNL d   1     -41.258-123.248 -49.776  0.00  0.00    -0.081 SA
ATOM     17  C   UNL d   1     -41.397-123.784 -49.129  0.00  0.00     0.036 A 
ATOM     18  C   UNL d   1     -42.207-123.817 -49.002  0.00  0.00     0.008 A 
ATOM     19  C   UNL d   1     -42.571-123.304 -49.567  0.00  0.00     0.012 A 
ENDBRANCH  13  15
ENDBRANCH  12  13
ENDBRANCH   1  12
BRANCH   2  20
ATOM     20  C   UNL d   1     -41.142-120.834 -51.563  0.00  0.00     0.082 C 
BRANCH  20  21
ATOM     21  N   UNL d   1     -41.136-120.031 -51.743  0.00  0.00    -0.299 N 
ATOM     22  C   UNL d   1     -41.135-119.781 -52.519  0.00  0.00     0.107 A 
ATOM     23  C   UNL d   1     -41.129-118.981 -52.702  0.00  0.00     0.142 A 
ATOM     24  O   UNL d   1     -41.123-118.423 -52.086  0.00  0.00    -0.300 OA
ATOM     25  C   UNL d   1     -41.124-118.667 -51.306  0.00  0.00     0.142 A 
ATOM     26  C   UNL d   1     -41.130-119.479 -51.140  0.00  0.00     0.107 A 
ENDBRANCH  20  21
ENDBRANCH   2  20
TORSDOF 5
ENDMDL
