MODEL 1
REMARK VINA RESULT:     -10.2      0.000      0.000
REMARK  2 active torsions:
REMARK  status: ('A' for Active; 'I' for Inactive)
REMARK    1  A    between atoms: C_3  and  C_1 
REMARK       I    between atoms: N_6  and  C_3 
REMARK    2  A    between atoms: C_16  and  N_7 
ROOT
ATOM      1  C   UNL d   1      53.280  33.148  53.335  0.00  0.00     0.270 C 
ATOM      2  N   UNL d   1      52.542  33.478  53.163  0.00  0.00    -0.269 N 
ATOM      3  N   UNL d   1      51.068  34.124  52.823  0.00  0.00    -0.301 N 
ATOM      4  O   UNL d   1      53.964  33.602  53.242  0.00  0.00    -0.266 OA
ATOM      5  C   UNL d   1      51.862  33.021  53.257  0.00  0.00     0.102 A 
ATOM      6  C   UNL d   1      52.486  34.250  52.901  0.00  0.00     0.102 A 
ATOM      7  C   UNL d   1      51.747  34.576  52.729  0.00  0.00     0.100 A 
ATOM      8  C   UNL d   1      51.124  33.342  53.088  0.00  0.00     0.100 A 
ENDROOT
BRANCH   1   9
ATOM      9  C   UNL d   1      53.332  32.368  53.600  0.00  0.00     0.120 A 
ATOM     10  C   UNL d   1      53.589  32.204  54.365  0.00  0.00     0.305 A 
ATOM     11  O   UNL d   1      53.642  31.414  54.633  0.00  0.00    -0.273 OA
ATOM     12  O   UNL d   1      53.795  32.825  54.869  0.00  0.00    -0.259 OA
ATOM     13  C   UNL d   1      53.434  30.793  54.125  0.00  0.00     0.103 A 
ATOM     14  C   UNL d   1      53.177  30.952  53.358  0.00  0.00     0.023 A 
ATOM     15  C   UNL d   1      53.486  30.013  54.389  0.00  0.00     0.025 A 
ATOM     16  C   UNL d   1      53.123  31.740  53.088  0.00  0.00     0.012 A 
ATOM     17  C   UNL d   1      52.971  30.331  52.854  0.00  0.00     0.002 A 
ATOM     18  C   UNL d   1      53.023  29.555  53.120  0.00  0.00     0.000 A 
ATOM     19  C   UNL d   1      53.281  29.396  53.886  0.00  0.00     0.002 A 
ENDBRANCH   1   9
BRANCH   3  20
ATOM     20  C   UNL d   1      50.328  34.443  52.654  0.00  0.00     0.064 A 
ATOM     21  C   UNL d   1      49.906  34.854  53.233  0.00  0.00     0.018 A 
ATOM     22  C   UNL d   1      49.165  35.172  53.060  0.00  0.00     0.002 A 
ATOM     23  C   UNL d   1      48.847  35.078  52.305  0.00  0.00     0.000 A 
ATOM     24  C   UNL d   1      49.268  34.666  51.723  0.00  0.00     0.002 A 
ATOM     25  C   UNL d   1      50.008  34.351  51.901  0.00  0.00     0.018 A 
ENDBRANCH   3  20
TORSDOF 2
ENDMDL
MODEL 2
REMARK VINA RESULT:      -8.6      1.173      4.647
REMARK  2 active torsions:
REMARK  status: ('A' for Active; 'I' for Inactive)
REMARK    1  A    between atoms: C_3  and  C_1 
REMARK       I    between atoms: N_6  and  C_3 
REMARK    2  A    between atoms: C_16  and  N_7 
ROOT
ATOM      1  C   UNL d   1      52.274  34.178  52.859  0.00  0.00     0.270 C 
ATOM      2  N   UNL d   1      52.467  33.385  52.990  0.00  0.00    -0.269 N 
ATOM      3  N   UNL d   1      52.842  31.805  53.252  0.00  0.00    -0.301 N 
ATOM      4  O   UNL d   1      52.874  34.740  52.786  0.00  0.00    -0.266 OA
ATOM      5  C   UNL d   1      51.865  32.828  53.062  0.00  0.00     0.102 A 
ATOM      6  C   UNL d   1      53.250  33.156  53.048  0.00  0.00     0.102 A 
ATOM      7  C   UNL d   1      53.440  32.364  53.179  0.00  0.00     0.100 A 
ATOM      8  C   UNL d   1      52.050  32.037  53.193  0.00  0.00     0.100 A 
ENDROOT
BRANCH   1   9
ATOM      9  C   UNL d   1      51.482  34.406  52.801  0.00  0.00     0.120 A 
ATOM     10  C   UNL d   1      51.125  34.828  53.411  0.00  0.00     0.305 A 
ATOM     11  O   UNL d   1      50.324  35.059  53.353  0.00  0.00    -0.273 OA
ATOM     12  O   UNL d   1      51.562  35.024  54.083  0.00  0.00    -0.259 OA
ATOM     13  C   UNL d   1      49.888  34.860  52.676  0.00  0.00     0.103 A 
ATOM     14  C   UNL d   1      50.241  34.438  52.063  0.00  0.00     0.023 A 
ATOM     15  C   UNL d   1      49.096  35.088  52.618  0.00  0.00     0.025 A 
ATOM     16  C   UNL d   1      51.041  34.206  52.119  0.00  0.00     0.012 A 
ATOM     17  C   UNL d   1      49.803  34.242  51.391  0.00  0.00     0.002 A 
ATOM     18  C   UNL d   1      49.015  34.469  51.335  0.00  0.00     0.000 A 
ATOM     19  C   UNL d   1      48.662  34.892  51.948  0.00  0.00     0.002 A 
ENDBRANCH   1   9
BRANCH   3  20
ATOM     20  C   UNL d   1      53.024  31.013  53.383  0.00  0.00     0.064 A 
ATOM     21  C   UNL d   1      53.492  30.791  54.026  0.00  0.00     0.018 A 
ATOM     22  C   UNL d   1      53.672  29.996  54.154  0.00  0.00     0.002 A 
ATOM     23  C   UNL d   1      53.383  29.424  53.636  0.00  0.00     0.000 A 
ATOM     24  C   UNL d   1      52.914  29.644  52.990  0.00  0.00     0.002 A 
ATOM     25  C   UNL d   1      52.737  30.439  52.867  0.00  0.00     0.018 A 
ENDBRANCH   3  20
TORSDOF 2
ENDMDL
MODEL 3
REMARK VINA RESULT:      -8.3      1.351      2.380
REMARK  2 active torsions:
REMARK  status: ('A' for Active; 'I' for Inactive)
REMARK    1  A    between atoms: C_3  and  C_1 
REMARK       I    between atoms: N_6  and  C_3 
REMARK    2  A    between atoms: C_16  and  N_7 
ROOT
ATOM      1  C   UNL d   1      52.520  32.259  53.502  0.00  0.00     0.270 C 
ATOM      2  N   UNL d   1      51.902  32.768  53.296  0.00  0.00    -0.269 N 
ATOM      3  N   UNL d   1      50.679  33.788  52.887  0.00  0.00    -0.301 N 
ATOM      4  O   UNL d   1      52.397  31.442  53.499  0.00  0.00    -0.266 OA
ATOM      5  C   UNL d   1      52.029  33.582  53.300  0.00  0.00     0.102 A 
ATOM      6  C   UNL d   1      51.170  32.465  53.089  0.00  0.00     0.102 A 
ATOM      7  C   UNL d   1      50.555  32.977  52.884  0.00  0.00     0.100 A 
ATOM      8  C   UNL d   1      51.418  34.095  53.096  0.00  0.00     0.100 A 
ENDROOT
BRANCH   1   9
ATOM      9  C   UNL d   1      53.257  32.568  53.710  0.00  0.00     0.120 A 
ATOM     10  C   UNL d   1      53.894  32.509  53.191  0.00  0.00     0.305 A 
ATOM     11  O   UNL d   1      54.640  32.821  53.401  0.00  0.00    -0.273 OA
ATOM     12  O   UNL d   1      53.794  32.138  52.460  0.00  0.00    -0.259 OA
ATOM     13  C   UNL d   1      54.738  33.192  54.136  0.00  0.00     0.103 A 
ATOM     14  C   UNL d   1      54.103  33.254  54.658  0.00  0.00     0.023 A 
ATOM     15  C   UNL d   1      55.475  33.501  54.344  0.00  0.00     0.025 A 
ATOM     16  C   UNL d   1      53.357  32.943  54.450  0.00  0.00     0.012 A 
ATOM     17  C   UNL d   1      54.204  33.624  55.389  0.00  0.00     0.002 A 
ATOM     18  C   UNL d   1      54.938  33.931  55.594  0.00  0.00     0.000 A 
ATOM     19  C   UNL d   1      55.573  33.869  55.072  0.00  0.00     0.002 A 
ENDBRANCH   1   9
BRANCH   3  20
ATOM     20  C   UNL d   1      50.069  34.304  52.684  0.00  0.00     0.064 A 
ATOM     21  C   UNL d   1      49.748  34.817  53.246  0.00  0.00     0.018 A 
ATOM     22  C   UNL d   1      49.138  35.332  53.038  0.00  0.00     0.002 A 
ATOM     23  C   UNL d   1      48.850  35.332  52.265  0.00  0.00     0.000 A 
ATOM     24  C   UNL d   1      49.170  34.818  51.701  0.00  0.00     0.002 A 
ATOM     25  C   UNL d   1      49.780  34.306  51.913  0.00  0.00     0.018 A 
ENDBRANCH   3  20
TORSDOF 2
ENDMDL
MODEL 4
REMARK VINA RESULT:      -8.3      2.063      3.185
REMARK  2 active torsions:
REMARK  status: ('A' for Active; 'I' for Inactive)
REMARK    1  A    between atoms: C_3  and  C_1 
REMARK       I    between atoms: N_6  and  C_3 
REMARK    2  A    between atoms: C_16  and  N_7 
ROOT
ATOM      1  C   UNL d   1      51.039  34.044  52.245  0.00  0.00     0.270 C 
ATOM      2  N   UNL d   1      50.327  34.444  52.373  0.00  0.00    -0.269 N 
ATOM      3  N   UNL d   1      48.914  35.243  52.637  0.00  0.00    -0.301 N 
ATOM      4  O   UNL d   1      51.206  33.733  51.498  0.00  0.00    -0.266 OA
ATOM      5  C   UNL d   1      50.165  34.753  53.119  0.00  0.00     0.102 A 
ATOM      6  C   UNL d   1      49.789  34.534  51.763  0.00  0.00     0.102 A 
ATOM      7  C   UNL d   1      49.080  34.934  51.894  0.00  0.00     0.100 A 
ATOM      8  C   UNL d   1      49.458  35.153  53.254  0.00  0.00     0.100 A 
ENDROOT
BRANCH   1   9
ATOM      9  C   UNL d   1      51.580  33.955  52.863  0.00  0.00     0.120 A 
ATOM     10  C   UNL d   1      51.671  33.226  53.235  0.00  0.00     0.305 A 
ATOM     11  O   UNL d   1      52.218  33.136  53.859  0.00  0.00    -0.273 OA
ATOM     12  O   UNL d   1      51.219  32.581  52.987  0.00  0.00    -0.259 OA
ATOM     13  C   UNL d   1      52.671  33.786  54.105  0.00  0.00     0.103 A 
ATOM     14  C   UNL d   1      52.582  34.517  53.736  0.00  0.00     0.023 A 
ATOM     15  C   UNL d   1      53.212  33.698  54.723  0.00  0.00     0.025 A 
ATOM     16  C   UNL d   1      52.037  34.610  53.112  0.00  0.00     0.012 A 
ATOM     17  C   UNL d   1      53.035  35.162  53.984  0.00  0.00     0.002 A 
ATOM     18  C   UNL d   1      53.573  35.072  54.599  0.00  0.00     0.000 A 
ATOM     19  C   UNL d   1      53.661  34.341  54.968  0.00  0.00     0.002 A 
ENDBRANCH   1   9
BRANCH   3  20
ATOM     20  C   UNL d   1      48.208  35.644  52.775  0.00  0.00     0.064 A 
ATOM     21  C   UNL d   1      48.066  36.006  53.503  0.00  0.00     0.018 A 
ATOM     22  C   UNL d   1      47.358  36.407  53.637  0.00  0.00     0.002 A 
ATOM     23  C   UNL d   1      46.791  36.444  53.040  0.00  0.00     0.000 A 
ATOM     24  C   UNL d   1      46.931  36.082  52.309  0.00  0.00     0.002 A 
ATOM     25  C   UNL d   1      47.640  35.683  52.180  0.00  0.00     0.018 A 
ENDBRANCH   3  20
TORSDOF 2
ENDMDL
