MODEL 1
REMARK VINA RESULT:      14.1      0.000      0.000
REMARK  4 active torsions:
REMARK  status: ('A' for Active; 'I' for Inactive)
REMARK    1  A    between atoms: N_2  and  S_1 
REMARK    2  A    between atoms: C_3  and  S_1 
REMARK       I    between atoms: C_5  and  N_4 
REMARK    3  A    between atoms: O_17  and  C_5 
REMARK    4  A    between atoms: C_18  and  O_17 
ROOT
ATOM      1  N   UNL d   1      45.858 -16.315  44.332  0.00  0.00    -0.226 N 
ATOM      2  N   UNL d   1      46.178 -17.926  44.035  0.00  0.00    -0.248 N 
ATOM      3  C   UNL d   1      46.338 -18.724  43.902  0.00  0.00     0.378 C 
ATOM      4  C   UNL d   1      46.042 -16.833  44.955  0.00  0.00     0.111 A 
ATOM      5  C   UNL d   1      45.836 -16.615  43.555  0.00  0.00     0.111 A 
ATOM      6  C   UNL d   1      45.994 -17.411  43.407  0.00  0.00     0.105 A 
ATOM      7  C   UNL d   1      46.200 -17.629  44.808  0.00  0.00     0.105 A 
ATOM      8  O   UNL d   1      46.519 -19.225  44.533  0.00  0.00    -0.237 OA
ENDROOT
BRANCH   1   9
ATOM      9  S   UNL d   1      45.700 -15.519  44.479  0.00  0.00     0.277 S 
ATOM     10  O   UNL d   1      45.061 -15.734  44.955  0.00  0.00    -0.199 OA
ATOM     11  O   UNL d   1      46.351 -15.300  43.995  0.00  0.00    -0.199 OA
BRANCH   9  12
ATOM     12  C   UNL d   1      45.539 -14.735  44.628  0.00  0.00     0.133 A 
ATOM     13  S   UNL d   1      44.814 -14.445  44.748  0.00  0.00    -0.074 SA
ATOM     14  C   UNL d   1      44.879 -13.625  44.881  0.00  0.00     0.036 A 
ATOM     15  C   UNL d   1      45.691 -13.427  44.837  0.00  0.00     0.008 A 
ATOM     16  C   UNL d   1      46.097 -14.101  44.683  0.00  0.00     0.020 A 
ENDBRANCH   9  12
ENDBRANCH   1   9
BRANCH   3  17
ATOM     17  O   UNL d   1      46.314 -19.007  43.136  0.00  0.00    -0.257 OA
BRANCH  17  18
ATOM     18  C   UNL d   1      46.471 -19.804  42.989  0.00  0.00     0.128 C 
ATOM     19  C   UNL d   1      46.580 -20.077  42.228  0.00  0.00     0.029 C 
ENDBRANCH  17  18
ENDBRANCH   3  17
TORSDOF 4
ENDMDL
MODEL 2
REMARK VINA RESULT:      16.2      1.391      4.353
REMARK  4 active torsions:
REMARK  status: ('A' for Active; 'I' for Inactive)
REMARK    1  A    between atoms: N_2  and  S_1 
REMARK    2  A    between atoms: C_3  and  S_1 
REMARK       I    between atoms: C_5  and  N_4 
REMARK    3  A    between atoms: O_17  and  C_5 
REMARK    4  A    between atoms: C_18  and  O_17 
ROOT
ATOM      1  N   UNL d   1      45.953 -17.309  44.017  0.00  0.00    -0.226 N 
ATOM      2  N   UNL d   1      45.552 -15.705  44.242  0.00  0.00    -0.248 N 
ATOM      3  C   UNL d   1      45.345 -14.916  44.364  0.00  0.00     0.378 C 
ATOM      4  C   UNL d   1      45.412 -17.086  44.606  0.00  0.00     0.111 A 
ATOM      5  C   UNL d   1      46.293 -16.716  43.540  0.00  0.00     0.111 A 
ATOM      6  C   UNL d   1      46.095 -15.923  43.651  0.00  0.00     0.105 A 
ATOM      7  C   UNL d   1      45.214 -16.293  44.717  0.00  0.00     0.105 A 
ATOM      8  O   UNL d   1      44.805 -14.712  44.954  0.00  0.00    -0.237 OA
ENDROOT
BRANCH   1   9
ATOM      9  S   UNL d   1      46.151 -18.102  43.906  0.00  0.00     0.277 S 
ATOM     10  O   UNL d   1      46.049 -18.241  44.713  0.00  0.00    -0.199 OA
ATOM     11  O   UNL d   1      46.255 -17.961  43.085  0.00  0.00    -0.199 OA
BRANCH   9  12
ATOM     12  C   UNL d   1      46.346 -18.886  43.803  0.00  0.00     0.133 A 
ATOM     13  S   UNL d   1      46.456 -19.228  43.100  0.00  0.00    -0.074 SA
ATOM     14  C   UNL d   1      46.646 -20.030  43.227  0.00  0.00     0.036 A 
ATOM     15  C   UNL d   1      46.646 -20.161  44.053  0.00  0.00     0.008 A 
ATOM     16  C   UNL d   1      46.463 -19.466  44.409  0.00  0.00     0.020 A 
ENDBRANCH   9  12
ENDBRANCH   1   9
BRANCH   3  17
ATOM     17  O   UNL d   1      45.684 -14.343  43.890  0.00  0.00    -0.257 OA
BRANCH  17  18
ATOM     18  C   UNL d   1      45.482 -13.551  43.997  0.00  0.00     0.128 C 
ATOM     19  C   UNL d   1      45.754 -12.975  43.488  0.00  0.00     0.029 C 
ENDBRANCH  17  18
ENDBRANCH   3  17
TORSDOF 4
ENDMDL
