MODEL 1
REMARK VINA RESULT:      -3.2      0.000      0.000
REMARK  8 active torsions:
REMARK  status: ('A' for Active; 'I' for Inactive)
REMARK    1  A    between atoms: C_9  and  C_2 
REMARK    2  A    between atoms: S_7  and  C_4 
REMARK    3  A    between atoms: C_6  and  C_13 
REMARK       I    between atoms: N_10  and  C_6 
REMARK    4  A    between atoms: C_13  and  S_7 
REMARK    5  A    between atoms: C_8  and  C_14 
REMARK    6  A    between atoms: O_15  and  C_8 
REMARK    7  A    between atoms: C_14  and  N_10 
REMARK    8  A    between atoms: C_18  and  O_15 
ROOT
ATOM      1  N   UNL d   1      31.462  17.463 -23.738  0.00  0.00    -0.212 NA
ATOM      2  C   UNL d   1      31.322  16.657 -23.757  0.00  0.00     0.171 A 
ATOM      3  N   UNL d   1      32.043  16.266 -23.653  0.00  0.00    -0.188 NA
ATOM      4  C   UNL d   1      32.269  17.586 -23.624  0.00  0.00     0.160 A 
ATOM      5  S   UNL d   1      32.629  16.841 -23.571  0.00  0.00     0.041 SA
ENDROOT
BRANCH   4   6
ATOM      6  S   UNL d   1      32.656  18.314 -23.571  0.00  0.00    -0.054 SA
BRANCH   6   7
ATOM      7  C   UNL d   1      32.826  18.635 -22.839  0.00  0.00     0.100 C 
BRANCH   7   8
ATOM      8  C   UNL d   1      32.980  19.446 -22.757  0.00  0.00     0.286 C 
ATOM      9  N   UNL d   1      32.870  19.812 -22.028  0.00  0.00    -0.200 NA
ATOM     10  O   UNL d   1      33.241  19.874 -23.408  0.00  0.00    -0.265 OA
BRANCH   9  11
ATOM     11  C   UNL d   1      33.025  20.618 -21.956  0.00  0.00     0.171 C 
BRANCH  11  12
ATOM     12  C   UNL d   1      32.879  20.995 -21.228  0.00  0.00     0.320 C 
ATOM     13  O   UNL d   1      33.240  20.719 -20.537  0.00  0.00    -0.257 OA
BRANCH  12  14
ATOM     14  O   UNL d   1      32.366  21.648 -21.206  0.00  0.00    -0.270 OA
BRANCH  14  15
ATOM     15  C   UNL d   1      32.463  22.220 -20.609  0.00  0.00     0.126 C 
ATOM     16  C   UNL d   1      32.115  22.955 -20.693  0.00  0.00     0.029 C 
ENDBRANCH  14  15
ENDBRANCH  12  14
ENDBRANCH  11  12
ENDBRANCH   9  11
ENDBRANCH   7   8
ENDBRANCH   6   7
ENDBRANCH   4   6
BRANCH   2  17
ATOM     17  C   UNL d   1      30.590  16.288 -23.860  0.00  0.00     0.036 A 
ATOM     18  C   UNL d   1      30.159  16.379 -24.566  0.00  0.00     0.003 A 
ATOM     19  C   UNL d   1      29.438  16.014 -24.664  0.00  0.00     0.000 A 
ATOM     20  C   UNL d   1      29.132  15.550 -24.060  0.00  0.00     0.000 A 
ATOM     21  C   UNL d   1      29.556  15.454 -23.353  0.00  0.00     0.000 A 
ATOM     22  C   UNL d   1      30.279  15.826 -23.265  0.00  0.00     0.003 A 
ENDBRANCH   2  17
TORSDOF 8
ENDMDL
MODEL 2
REMARK VINA RESULT:      -3.1      1.335      1.831
REMARK  8 active torsions:
REMARK  status: ('A' for Active; 'I' for Inactive)
REMARK    1  A    between atoms: C_9  and  C_2 
REMARK    2  A    between atoms: S_7  and  C_4 
REMARK    3  A    between atoms: C_6  and  C_13 
REMARK       I    between atoms: N_10  and  C_6 
REMARK    4  A    between atoms: C_13  and  S_7 
REMARK    5  A    between atoms: C_8  and  C_14 
REMARK    6  A    between atoms: O_15  and  C_8 
REMARK    7  A    between atoms: C_14  and  N_10 
REMARK    8  A    between atoms: C_18  and  O_15 
ROOT
ATOM      1  N   UNL d   1      32.416  18.185 -23.029  0.00  0.00    -0.212 NA
ATOM      2  C   UNL d   1      32.377  17.907 -23.798  0.00  0.00     0.171 A 
ATOM      3  N   UNL d   1      32.887  18.361 -24.264  0.00  0.00    -0.188 NA
ATOM      4  C   UNL d   1      32.949  18.814 -23.004  0.00  0.00     0.160 A 
ATOM      5  S   UNL d   1      33.240  18.922 -23.773  0.00  0.00     0.041 SA
ENDROOT
BRANCH   4   6
ATOM      6  S   UNL d   1      33.158  19.260 -22.341  0.00  0.00    -0.054 SA
BRANCH   6   7
ATOM      7  C   UNL d   1      32.800  19.981 -22.203  0.00  0.00     0.100 C 
BRANCH   7   8
ATOM      8  C   UNL d   1      32.881  20.360 -21.469  0.00  0.00     0.286 C 
ATOM      9  N   UNL d   1      32.603  21.129 -21.373  0.00  0.00    -0.200 NA
ATOM     10  O   UNL d   1      33.241  19.961 -20.847  0.00  0.00    -0.265 OA
BRANCH   9  11
ATOM     11  C   UNL d   1      32.687  21.498 -20.641  0.00  0.00     0.171 C 
BRANCH  11  12
ATOM     12  C   UNL d   1      32.424  22.283 -20.551  0.00  0.00     0.320 C 
ATOM     13  O   UNL d   1      31.697  22.516 -20.869  0.00  0.00    -0.257 OA
BRANCH  12  14
ATOM     14  O   UNL d   1      32.900  22.825 -20.139  0.00  0.00    -0.270 OA
BRANCH  14  15
ATOM     15  C   UNL d   1      32.685  23.048 -19.366  0.00  0.00     0.126 C 
ATOM     16  C   UNL d   1      33.035  23.702 -19.023  0.00  0.00     0.029 C 
ENDBRANCH  14  15
ENDBRANCH  12  14
ENDBRANCH  11  12
ENDBRANCH   9  11
ENDBRANCH   7   8
ENDBRANCH   6   7
ENDBRANCH   4   6
BRANCH   2  17
ATOM     17  C   UNL d   1      31.912  17.282 -24.071  0.00  0.00     0.036 A 
ATOM     18  C   UNL d   1      31.317  17.406 -24.640  0.00  0.00     0.003 A 
ATOM     19  C   UNL d   1      30.860  16.787 -24.907  0.00  0.00     0.000 A 
ATOM     20  C   UNL d   1      30.988  16.031 -24.611  0.00  0.00     0.000 A 
ATOM     21  C   UNL d   1      31.578  15.900 -24.044  0.00  0.00     0.000 A 
ATOM     22  C   UNL d   1      32.031  16.529 -23.783  0.00  0.00     0.003 A 
ENDBRANCH   2  17
TORSDOF 8
ENDMDL
MODEL 3
REMARK VINA RESULT:      -1.9      1.603      5.891
REMARK  8 active torsions:
REMARK  status: ('A' for Active; 'I' for Inactive)
REMARK    1  A    between atoms: C_9  and  C_2 
REMARK    2  A    between atoms: S_7  and  C_4 
REMARK    3  A    between atoms: C_6  and  C_13 
REMARK       I    between atoms: N_10  and  C_6 
REMARK    4  A    between atoms: C_13  and  S_7 
REMARK    5  A    between atoms: C_8  and  C_14 
REMARK    6  A    between atoms: O_15  and  C_8 
REMARK    7  A    between atoms: C_14  and  N_10 
REMARK    8  A    between atoms: C_18  and  O_15 
ROOT
ATOM      1  N   UNL d   1      32.782  20.827 -21.356  0.00  0.00    -0.212 NA
ATOM      2  C   UNL d   1      32.852  21.634 -21.464  0.00  0.00     0.171 A 
ATOM      3  N   UNL d   1      33.137  21.769 -22.229  0.00  0.00    -0.188 NA
ATOM      4  C   UNL d   1      33.021  20.446 -22.047  0.00  0.00     0.160 A 
ATOM      5  S   UNL d   1      33.241  21.034 -22.589  0.00  0.00     0.041 SA
ENDROOT
BRANCH   4   6
ATOM      6  S   UNL d   1      33.040  19.632 -22.182  0.00  0.00    -0.054 SA
BRANCH   6   7
ATOM      7  C   UNL d   1      32.831  19.334 -22.914  0.00  0.00     0.100 C 
BRANCH   7   8
ATOM      8  C   UNL d   1      32.752  18.516 -23.032  0.00  0.00     0.286 C 
ATOM      9  N   UNL d   1      32.190  18.230 -23.560  0.00  0.00    -0.200 NA
ATOM     10  O   UNL d   1      33.240  18.001 -22.617  0.00  0.00    -0.265 OA
BRANCH   9  11
ATOM     11  C   UNL d   1      32.118  17.417 -23.671  0.00  0.00     0.171 C 
BRANCH  11  12
ATOM     12  C   UNL d   1      31.492  17.125 -24.136  0.00  0.00     0.320 C 
ATOM     13  O   UNL d   1      31.556  17.118 -24.960  0.00  0.00    -0.257 OA
BRANCH  12  14
ATOM     14  O   UNL d   1      30.807  16.843 -23.760  0.00  0.00    -0.270 OA
BRANCH  14  15
ATOM     15  C   UNL d   1      30.313  16.309 -24.165  0.00  0.00     0.126 C 
ATOM     16  C   UNL d   1      29.739  15.899 -23.754  0.00  0.00     0.029 C 
ENDBRANCH  14  15
ENDBRANCH  12  14
ENDBRANCH  11  12
ENDBRANCH   9  11
ENDBRANCH   7   8
ENDBRANCH   6   7
ENDBRANCH   4   6
BRANCH   2  17
ATOM     17  C   UNL d   1      32.672  22.222 -20.913  0.00  0.00     0.036 A 
ATOM     18  C   UNL d   1      32.055  22.765 -21.050  0.00  0.00     0.003 A 
ATOM     19  C   UNL d   1      31.881  23.343 -20.504  0.00  0.00     0.000 A 
ATOM     20  C   UNL d   1      32.318  23.392 -19.810  0.00  0.00     0.000 A 
ATOM     21  C   UNL d   1      32.933  22.855 -19.667  0.00  0.00     0.000 A 
ATOM     22  C   UNL d   1      33.100  22.278 -20.222  0.00  0.00     0.003 A 
ENDBRANCH   2  17
TORSDOF 8
ENDMDL
MODEL 4
REMARK VINA RESULT:      -0.3      2.684      3.657
REMARK  8 active torsions:
REMARK  status: ('A' for Active; 'I' for Inactive)
REMARK    1  A    between atoms: C_9  and  C_2 
REMARK    2  A    between atoms: S_7  and  C_4 
REMARK    3  A    between atoms: C_6  and  C_13 
REMARK       I    between atoms: N_10  and  C_6 
REMARK    4  A    between atoms: C_13  and  S_7 
REMARK    5  A    between atoms: C_8  and  C_14 
REMARK    6  A    between atoms: O_15  and  C_8 
REMARK    7  A    between atoms: C_14  and  N_10 
REMARK    8  A    between atoms: C_18  and  O_15 
ROOT
ATOM      1  N   UNL d   1      32.755  20.045 -22.105  0.00  0.00    -0.212 NA
ATOM      2  C   UNL d   1      32.914  19.672 -22.815  0.00  0.00     0.171 A 
ATOM      3  N   UNL d   1      33.075  20.252 -23.382  0.00  0.00    -0.188 NA
ATOM      4  C   UNL d   1      32.813  20.860 -22.217  0.00  0.00     0.160 A 
ATOM      5  S   UNL d   1      33.013  20.987 -23.012  0.00  0.00     0.041 SA
ENDROOT
BRANCH   4   6
ATOM      6  S   UNL d   1      32.697  21.448 -21.648  0.00  0.00    -0.054 SA
BRANCH   6   7
ATOM      7  C   UNL d   1      33.231  22.062 -21.579  0.00  0.00     0.100 C 
BRANCH   7   8
ATOM      8  C   UNL d   1      33.146  22.632 -20.982  0.00  0.00     0.286 C 
ATOM      9  N   UNL d   1      33.086  22.395 -20.195  0.00  0.00    -0.200 NA
ATOM     10  O   UNL d   1      33.124  23.428 -21.185  0.00  0.00    -0.265 OA
BRANCH   9  11
ATOM     11  C   UNL d   1      33.003  22.968 -19.609  0.00  0.00     0.171 C 
BRANCH  11  12
ATOM     12  C   UNL d   1      33.006  22.733 -18.810  0.00  0.00     0.320 C 
ATOM     13  O   UNL d   1      32.778  21.965 -18.603  0.00  0.00    -0.257 OA
BRANCH  12  14
ATOM     14  O   UNL d   1      33.241  23.277 -18.229  0.00  0.00    -0.270 OA
BRANCH  14  15
ATOM     15  C   UNL d   1      32.802  23.332 -17.523  0.00  0.00     0.126 C 
ATOM     16  C   UNL d   1      33.129  23.702 -16.872  0.00  0.00     0.029 C 
ENDBRANCH  14  15
ENDBRANCH  12  14
ENDBRANCH  11  12
ENDBRANCH   9  11
ENDBRANCH   7   8
ENDBRANCH   6   7
ENDBRANCH   4   6
BRANCH   2  17
ATOM     17  C   UNL d   1      32.916  18.858 -22.953  0.00  0.00     0.036 A 
ATOM     18  C   UNL d   1      32.751  18.550 -23.709  0.00  0.00     0.003 A 
ATOM     19  C   UNL d   1      32.754  17.746 -23.841  0.00  0.00     0.000 A 
ATOM     20  C   UNL d   1      32.923  17.234 -23.222  0.00  0.00     0.000 A 
ATOM     21  C   UNL d   1      33.089  17.533 -22.466  0.00  0.00     0.000 A 
ATOM     22  C   UNL d   1      33.083  18.342 -22.344  0.00  0.00     0.003 A 
ENDBRANCH   2  17
TORSDOF 8
ENDMDL
