MODEL 1
REMARK VINA RESULT:      70.9      0.000      0.000
REMARK  9 active torsions:
REMARK  status: ('A' for Active; 'I' for Inactive)
REMARK    1  A    between atoms: C_6  and  N_1 
REMARK    2  A    between atoms: C_7  and  C_2 
REMARK    3  A    between atoms: C_3  and  C_9 
REMARK    4  A    between atoms: O_5  and  C_3 
REMARK    5  A    between atoms: C_4  and  O_5 
REMARK    6  A    between atoms: C_8  and  C_7 
REMARK    7  A    between atoms: C_12  and  C_8 
REMARK    8  A    between atoms: C_10  and  C_12 
REMARK    9  A    between atoms: O_25  and  C_23 
ROOT
ATOM      1  C   UNL d   1     -55.104-100.872 -43.991  0.00  0.00     0.064 A 
ATOM      2  C   UNL d   1     -55.458-100.242 -44.390  0.00  0.00     0.106 A 
ATOM      3  C   UNL d   1     -54.856-101.542 -44.415  0.00  0.00     0.029 A 
ATOM      4  C   UNL d   1     -55.563-100.282 -45.214  0.00  0.00     0.027 A 
ATOM      5  C   UNL d   1     -54.962-101.578 -45.230  0.00  0.00     0.094 A 
ATOM      6  C   UNL d   1     -55.315-100.948 -45.629  0.00  0.00     0.026 A 
ENDROOT
BRANCH   2   7
ATOM      7  O   UNL d   1     -55.707 -99.573 -43.976  0.00  0.00    -0.273 OA
BRANCH   7   8
ATOM      8  C   UNL d   1     -56.293 -99.642 -43.401  0.00  0.00     0.300 C 
ATOM      9  O   UNL d   1     -56.129-100.002 -42.681  0.00  0.00    -0.259 OA
BRANCH   8  10
ATOM     10  C   UNL d   1     -57.047 -99.348 -43.553  0.00  0.00     0.065 A 
ATOM     11  C   UNL d   1     -57.320 -99.308 -44.326  0.00  0.00     0.029 A 
ATOM     12  C   UNL d   1     -58.068 -99.016 -44.486  0.00  0.00     0.127 A 
ATOM     13  C   UNL d   1     -58.557 -98.758 -43.867  0.00  0.00     0.024 A 
ATOM     14  C   UNL d   1     -58.279 -98.800 -43.091  0.00  0.00     0.002 A 
ATOM     15  C   UNL d   1     -57.522 -99.095 -42.931  0.00  0.00     0.005 A 
BRANCH  12  16
ATOM     16  N   UNL d   1     -58.349 -98.974 -45.269  0.00  0.00    -0.114 N 
ATOM     17  O   UNL d   1     -57.822 -98.971 -45.897  0.00  0.00    -0.532 OA
ATOM     18  O   UNL d   1     -59.166 -98.936 -45.400  0.00  0.00    -0.532 OA
ENDBRANCH  12  16
ENDBRANCH   8  10
ENDBRANCH   7   8
ENDBRANCH   2   7
BRANCH   1  19
ATOM     19  C   UNL d   1     -54.999-100.833 -43.172  0.00  0.00     0.198 C 
ATOM     20  O   UNL d   1     -54.796-100.117 -42.817  0.00  0.00    -0.286 OA
BRANCH  19  21
ATOM     21  C   UNL d   1     -55.096-101.508 -42.712  0.00  0.00     0.043 C 
BRANCH  21  22
ATOM     22  C   UNL d   1     -54.766-101.543 -41.958  0.00  0.00     0.010 C 
BRANCH  22  23
ATOM     23  C   UNL d   1     -55.111-102.015 -41.380  0.00  0.00     0.030 A 
ATOM     24  S   UNL d   1     -55.916-102.168 -41.284  0.00  0.00    -0.086 SA
ATOM     25  C   UNL d   1     -56.015-102.667 -40.636  0.00  0.00     0.035 A 
ATOM     26  C   UNL d   1     -55.271-102.828 -40.324  0.00  0.00     0.007 A 
ATOM     27  C   UNL d   1     -54.711-102.427 -40.781  0.00  0.00     0.007 A 
ENDBRANCH  22  23
ENDBRANCH  21  22
ENDBRANCH  19  21
ENDBRANCH   1  19
BRANCH   5  28
ATOM     28  O   UNL d   1     -54.715-102.243 -45.647  0.00  0.00    -0.328 OA
ATOM     29  C   UNL d   1     -55.234-102.871 -45.764  0.00  0.00     0.181 C 
ENDBRANCH   5  28
TORSDOF 9
ENDMDL
