MODEL 1
REMARK VINA RESULT:      -3.7      0.000      0.000
REMARK  5 active torsions:
REMARK  status: ('A' for Active; 'I' for Inactive)
REMARK    1  A    between atoms: C_10  and  N_3 
REMARK    2  A    between atoms: C_11  and  N_8 
REMARK    3  A    between atoms: C_14  and  C_10 
REMARK    4  A    between atoms: C_19  and  C_11 
REMARK    5  A    between atoms: C_20  and  C_19 
ROOT
ATOM      1  C   UNL d   1      58.638   0.115  30.723  0.00  0.00     0.174 A 
ATOM      2  C   UNL d   1      58.036  -0.477  30.800  0.00  0.00     0.158 A 
ATOM      3  N   UNL d   1      58.505  -1.110  29.599  0.00  0.00    -0.219 N 
ATOM      4  N   UNL d   1      58.558   0.619  31.341  0.00  0.00    -0.203 NA
ATOM      5  N   UNL d   1      59.156   0.077  30.083  0.00  0.00    -0.240 N 
ATOM      6  C   UNL d   1      59.106  -0.517  29.522  0.00  0.00     0.343 A 
ATOM      7  C   UNL d   1      57.969  -1.093  30.236  0.00  0.00     0.287 A 
ATOM      8  N   UNL d   1      57.598  -0.326  31.464  0.00  0.00    -0.279 N 
ATOM      9  C   UNL d   1      57.912   0.351  31.807  0.00  0.00     0.185 A 
ATOM     10  O   UNL d   1      59.643  -0.542  28.876  0.00  0.00    -0.245 OA
ATOM     11  O   UNL d   1      57.379  -1.674  30.312  0.00  0.00    -0.265 OA
ATOM     12 BR   UNL d   1      57.592   0.682  32.521  0.00  0.00    -0.008 Br
ATOM     13  C   UNL d   1      59.762   0.673  30.006  0.00  0.00     0.105 C 
ENDROOT
BRANCH   8  14
ATOM     14  C   UNL d   1      56.934  -0.752  31.787  0.00  0.00     0.082 C 
BRANCH  14  15
ATOM     15  C   UNL d   1      56.652  -0.656  32.552  0.00  0.00     0.019 C 
BRANCH  15  16
ATOM     16  C   UNL d   1      55.954  -0.979  32.807  0.00  0.00     0.002 C 
ATOM     17  C   UNL d   1      55.354  -0.507  33.095  0.00  0.00     0.000 C 
ATOM     18  C   UNL d   1      55.864  -1.809  32.766  0.00  0.00     0.000 C 
ENDBRANCH  15  16
ENDBRANCH  14  15
ENDBRANCH   8  14
BRANCH   3  19
ATOM     19  C   UNL d   1      58.439  -1.728  29.031  0.00  0.00     0.151 C 
BRANCH  19  20
ATOM     20  C   UNL d   1      58.911  -2.395  29.089  0.00  0.00     0.315 C 
ATOM     21  O   UNL d   1      58.618  -3.092  29.425  0.00  0.00    -0.262 OA
ATOM     22  N   UNL d   1      59.683  -2.364  28.809  0.00  0.00    -0.101 N 
ENDBRANCH  19  20
ENDBRANCH   3  19
TORSDOF 5
ENDMDL
MODEL 2
REMARK VINA RESULT:      -2.2      8.708      9.215
REMARK  5 active torsions:
REMARK  status: ('A' for Active; 'I' for Inactive)
REMARK    1  A    between atoms: C_10  and  N_3 
REMARK    2  A    between atoms: C_11  and  N_8 
REMARK    3  A    between atoms: C_14  and  C_10 
REMARK    4  A    between atoms: C_19  and  C_11 
REMARK    5  A    between atoms: C_20  and  C_19 
ROOT
ATOM      1  C   UNL d   1      57.915  -9.813  31.165  0.00  0.00     0.174 A 
ATOM      2  C   UNL d   1      58.739  -9.815  31.364  0.00  0.00     0.158 A 
ATOM      3  N   UNL d   1      59.076  -9.815  29.968  0.00  0.00    -0.219 N 
ATOM      4  N   UNL d   1      57.503  -9.812  31.852  0.00  0.00    -0.203 NA
ATOM      5  N   UNL d   1      57.696  -9.812  30.370  0.00  0.00    -0.240 N 
ATOM      6  C   UNL d   1      58.252  -9.813  29.769  0.00  0.00     0.343 A 
ATOM      7  C   UNL d   1      59.323  -9.816  30.763  0.00  0.00     0.287 A 
ATOM      8  N   UNL d   1      58.818  -9.816  32.170  0.00  0.00    -0.279 N 
ATOM      9  C   UNL d   1      58.058  -9.814  32.482  0.00  0.00     0.185 A 
ATOM     10  O   UNL d   1      58.012  -9.812  28.964  0.00  0.00    -0.245 OA
ATOM     11  O   UNL d   1      60.131  -9.818  30.958  0.00  0.00    -0.265 OA
ATOM     12 BR   UNL d   1      57.919  -9.814  33.321  0.00  0.00    -0.008 Br
ATOM     13  C   UNL d   1      56.866  -9.810  30.170  0.00  0.00     0.105 C 
ENDROOT
BRANCH   8  14
ATOM     14  C   UNL d   1      59.523  -9.818  32.648  0.00  0.00     0.082 C 
BRANCH  14  15
ATOM     15  C   UNL d   1      59.590  -9.440  33.374  0.00  0.00     0.019 C 
BRANCH  15  16
ATOM     16  C   UNL d   1      60.300  -9.328  33.747  0.00  0.00     0.002 C 
ATOM     17  C   UNL d   1      60.824  -8.758  33.488  0.00  0.00     0.000 C 
ATOM     18  C   UNL d   1      60.483  -9.810  34.404  0.00  0.00     0.000 C 
ENDBRANCH  15  16
ENDBRANCH  14  15
ENDBRANCH   8  14
BRANCH   3  19
ATOM     19  C   UNL d   1      59.661  -9.816  29.362  0.00  0.00     0.151 C 
BRANCH  19  20
ATOM     20  C   UNL d   1      59.968  -9.110  29.082  0.00  0.00     0.315 C 
ATOM     21  O   UNL d   1      59.490  -8.574  28.673  0.00  0.00    -0.262 OA
ATOM     22  N   UNL d   1      60.761  -8.939  29.215  0.00  0.00    -0.101 N 
ENDBRANCH  19  20
ENDBRANCH   3  19
TORSDOF 5
ENDMDL
MODEL 3
REMARK VINA RESULT:      -1.8      8.796      9.739
REMARK  5 active torsions:
REMARK  status: ('A' for Active; 'I' for Inactive)
REMARK    1  A    between atoms: C_10  and  N_3 
REMARK    2  A    between atoms: C_11  and  N_8 
REMARK    3  A    between atoms: C_14  and  C_10 
REMARK    4  A    between atoms: C_19  and  C_11 
REMARK    5  A    between atoms: C_20  and  C_19 
ROOT
ATOM      1  C   UNL d   1      58.465  -9.789  32.042  0.00  0.00     0.174 A 
ATOM      2  C   UNL d   1      59.175  -9.800  31.579  0.00  0.00     0.158 A 
ATOM      3  N   UNL d   1      59.960  -9.799  32.782  0.00  0.00    -0.219 N 
ATOM      4  N   UNL d   1      57.847  -9.786  31.532  0.00  0.00    -0.203 NA
ATOM      5  N   UNL d   1      58.524  -9.783  32.864  0.00  0.00    -0.240 N 
ATOM      6  C   UNL d   1      59.249  -9.788  33.245  0.00  0.00     0.343 A 
ATOM      7  C   UNL d   1      59.927  -9.805  31.950  0.00  0.00     0.287 A 
ATOM      8  N   UNL d   1      58.981  -9.804  30.793  0.00  0.00    -0.279 N 
ATOM      9  C   UNL d   1      58.160  -9.795  30.752  0.00  0.00     0.185 A 
ATOM     10  O   UNL d   1      59.292  -9.782  34.084  0.00  0.00    -0.245 OA
ATOM     11  O   UNL d   1      60.623  -9.816  31.496  0.00  0.00    -0.265 OA
ATOM     12 BR   UNL d   1      57.748  -9.797  30.009  0.00  0.00    -0.008 Br
ATOM     13  C   UNL d   1      57.809  -9.772  33.330  0.00  0.00     0.105 C 
ENDROOT
BRANCH   8  14
ATOM     14  C   UNL d   1      59.486  -9.815  30.107  0.00  0.00     0.082 C 
BRANCH  14  15
ATOM     15  C   UNL d   1      59.357  -9.365  29.432  0.00  0.00     0.019 C 
BRANCH  15  16
ATOM     16  C   UNL d   1      59.946  -9.185  28.906  0.00  0.00     0.002 C 
ATOM     17  C   UNL d   1      59.988  -8.447  28.560  0.00  0.00     0.000 C 
ATOM     18  C   UNL d   1      60.509  -9.775  28.725  0.00  0.00     0.000 C 
ENDBRANCH  15  16
ENDBRANCH  14  15
ENDBRANCH   8  14
BRANCH   3  19
ATOM     19  C   UNL d   1      60.714  -9.805  33.157  0.00  0.00     0.151 C 
BRANCH  19  20
ATOM     20  C   UNL d   1      60.888  -9.259  33.743  0.00  0.00     0.315 C 
ATOM     21  O   UNL d   1      60.944  -8.453  33.566  0.00  0.00    -0.262 OA
ATOM     22  N   UNL d   1      61.008  -9.523  34.512  0.00  0.00    -0.101 N 
ENDBRANCH  19  20
ENDBRANCH   3  19
TORSDOF 5
ENDMDL
MODEL 4
REMARK VINA RESULT:      -1.0      1.655      3.649
REMARK  5 active torsions:
REMARK  status: ('A' for Active; 'I' for Inactive)
REMARK    1  A    between atoms: C_10  and  N_3 
REMARK    2  A    between atoms: C_11  and  N_8 
REMARK    3  A    between atoms: C_14  and  C_10 
REMARK    4  A    between atoms: C_19  and  C_11 
REMARK    5  A    between atoms: C_20  and  C_19 
ROOT
ATOM      1  C   UNL d   1      59.495  -0.497  30.036  0.00  0.00     0.174 A 
ATOM      2  C   UNL d   1      58.969  -1.107  29.771  0.00  0.00     0.158 A 
ATOM      3  N   UNL d   1      57.921  -0.557  30.584  0.00  0.00    -0.219 N 
ATOM      4  N   UNL d   1      60.201  -0.618  29.678  0.00  0.00    -0.203 NA
ATOM      5  N   UNL d   1      59.216   0.067  30.568  0.00  0.00    -0.240 N 
ATOM      6  C   UNL d   1      58.447   0.054  30.848  0.00  0.00     0.343 A 
ATOM      7  C   UNL d   1      58.178  -1.138  30.046  0.00  0.00     0.287 A 
ATOM      8  N   UNL d   1      59.363  -1.592  29.256  0.00  0.00    -0.279 N 
ATOM      9  C   UNL d   1      60.127  -1.298  29.190  0.00  0.00     0.185 A 
ATOM     10  O   UNL d   1      58.178   0.636  31.390  0.00  0.00    -0.245 OA
ATOM     11  O   UNL d   1      57.663  -1.737  29.787  0.00  0.00    -0.265 OA
ATOM     12 BR   UNL d   1      60.708  -1.667  28.692  0.00  0.00    -0.008 Br
ATOM     13  C   UNL d   1      59.745   0.682  30.834  0.00  0.00     0.105 C 
ENDROOT
BRANCH   8  14
ATOM     14  C   UNL d   1      59.086  -2.282  28.838  0.00  0.00     0.082 C 
BRANCH  14  15
ATOM     15  C   UNL d   1      59.341  -3.047  28.990  0.00  0.00     0.019 C 
BRANCH  15  16
ATOM     16  C   UNL d   1      59.014  -3.698  28.636  0.00  0.00     0.002 C 
ATOM     17  C   UNL d   1      58.218  -3.723  28.459  0.00  0.00     0.000 C 
ATOM     18  C   UNL d   1      59.514  -4.343  28.456  0.00  0.00     0.000 C 
ENDBRANCH  15  16
ENDBRANCH  14  15
ENDBRANCH   8  14
BRANCH   3  19
ATOM     19  C   UNL d   1      57.126  -0.586  30.861  0.00  0.00     0.151 C 
BRANCH  19  20
ATOM     20  C   UNL d   1      56.966  -0.538  31.663  0.00  0.00     0.315 C 
ATOM     21  O   UNL d   1      56.967  -1.216  32.135  0.00  0.00    -0.262 OA
ATOM     22  N   UNL d   1      56.804   0.197  31.994  0.00  0.00    -0.101 N 
ENDBRANCH  19  20
ENDBRANCH   3  19
TORSDOF 5
ENDMDL
MODEL 5
REMARK VINA RESULT:      -0.8      2.041      4.353
REMARK  5 active torsions:
REMARK  status: ('A' for Active; 'I' for Inactive)
REMARK    1  A    between atoms: C_10  and  N_3 
REMARK    2  A    between atoms: C_11  and  N_8 
REMARK    3  A    between atoms: C_14  and  C_10 
REMARK    4  A    between atoms: C_19  and  C_11 
REMARK    5  A    between atoms: C_20  and  C_19 
ROOT
ATOM      1  C   UNL d   1      56.691  -1.231  31.806  0.00  0.00     0.174 A 
ATOM      2  C   UNL d   1      57.229  -0.587  31.685  0.00  0.00     0.158 A 
ATOM      3  N   UNL d   1      56.753   0.036  32.888  0.00  0.00    -0.219 N 
ATOM      4  N   UNL d   1      56.793  -1.744  31.199  0.00  0.00    -0.203 NA
ATOM      5  N   UNL d   1      56.199  -1.221  32.467  0.00  0.00    -0.240 N 
ATOM      6  C   UNL d   1      56.215  -0.608  33.009  0.00  0.00     0.343 A 
ATOM      7  C   UNL d   1      57.261   0.051  32.228  0.00  0.00     0.287 A 
ATOM      8  N   UNL d   1      57.651  -0.716  31.006  0.00  0.00    -0.279 N 
ATOM      9  C   UNL d   1      57.389  -1.431  30.697  0.00  0.00     0.185 A 
ATOM     10  O   UNL d   1      55.707  -0.613  33.678  0.00  0.00    -0.245 OA
ATOM     11  O   UNL d   1      57.788   0.682  32.110  0.00  0.00    -0.265 OA
ATOM     12 BR   UNL d   1      57.708  -1.752  29.978  0.00  0.00    -0.008 Br
ATOM     13  C   UNL d   1      55.657  -1.870  32.589  0.00  0.00     0.105 C 
ENDROOT
BRANCH   8  14
ATOM     14  C   UNL d   1      58.256  -0.240  30.642  0.00  0.00     0.082 C 
BRANCH  14  15
ATOM     15  C   UNL d   1      58.752  -0.502  30.042  0.00  0.00     0.019 C 
BRANCH  15  16
ATOM     16  C   UNL d   1      59.291  -0.021  29.675  0.00  0.00     0.002 C 
ATOM     17  C   UNL d   1      59.077   0.432  29.031  0.00  0.00     0.000 C 
ATOM     18  C   UNL d   1      60.071  -0.002  29.973  0.00  0.00     0.000 C 
ENDBRANCH  15  16
ENDBRANCH  14  15
ENDBRANCH   8  14
BRANCH   3  19
ATOM     19  C   UNL d   1      56.784   0.676  33.436  0.00  0.00     0.151 C 
BRANCH  19  20
ATOM     20  C   UNL d   1      57.175   0.590  34.151  0.00  0.00     0.315 C 
ATOM     21  O   UNL d   1      56.758   0.413  34.842  0.00  0.00    -0.262 OA
ATOM     22  N   UNL d   1      57.992   0.682  34.172  0.00  0.00    -0.101 N 
ENDBRANCH  19  20
ENDBRANCH   3  19
TORSDOF 5
ENDMDL
