MODEL 1
REMARK VINA RESULT:       5.2      0.000      0.000
REMARK  5 active torsions:
REMARK  status: ('A' for Active; 'I' for Inactive)
REMARK    1  A    between atoms: C_8  and  C_1 
REMARK    2  A    between atoms: N_9  and  C_8 
REMARK    3  A    between atoms: C_15  and  C_8 
REMARK    4  A    between atoms: C_16  and  N_11 
REMARK    5  A    between atoms: C_19  and  C_16 
ROOT
ATOM      1  C   UNL d   1     -41.724-121.959 -51.201  0.00  0.00     0.075 C 
ENDROOT
BRANCH   1   2
ATOM      2  C   UNL d   1     -41.984-122.408 -50.555  0.00  0.00     0.106 A 
ATOM      3  C   UNL d   1     -42.778-122.576 -50.364  0.00  0.00     0.290 A 
ATOM      4  N   UNL d   1     -42.784-123.038 -49.680  0.00  0.00    -0.169 N 
ATOM      5  O   UNL d   1     -43.444-122.323 -50.787  0.00  0.00    -0.265 OA
ATOM      6  N   UNL d   1     -43.267-123.426 -49.139  0.00  0.00    -0.138 NA
ATOM      7  C   UNL d   1     -41.998-123.157 -49.446  0.00  0.00     0.200 A 
ATOM      8  C   UNL d   1     -42.789-123.785 -48.572  0.00  0.00     0.222 A 
ATOM      9  N   UNL d   1     -42.003-123.618 -48.762  0.00  0.00    -0.197 NA
ATOM     10  S   UNL d   1     -41.506-122.770 -49.983  0.00  0.00    -0.042 SA
ENDBRANCH   1   2
BRANCH   1  11
ATOM     11  N   UNL d   1     -41.669-122.315 -51.942  0.00  0.00    -0.301 N 
ATOM     12  C   UNL d   1     -41.990-121.934 -52.604  0.00  0.00     0.100 A 
ATOM     13  C   UNL d   1     -41.938-122.286 -53.352  0.00  0.00     0.100 A 
ATOM     14  N   UNL d   1     -41.560-123.027 -53.441  0.00  0.00    -0.300 N 
ATOM     15  C   UNL d   1     -41.243-123.399 -52.774  0.00  0.00     0.100 A 
ATOM     16  C   UNL d   1     -41.298-123.043 -52.032  0.00  0.00     0.100 A 
BRANCH  14  17
ATOM     17  C   UNL d   1     -41.507-123.376 -54.178  0.00  0.00     0.080 C 
BRANCH  17  18
ATOM     18  C   UNL d   1     -41.805-122.988 -54.841  0.00  0.00     0.018 A 
ATOM     19  C   UNL d   1     -42.549-123.180 -55.137  0.00  0.00     0.002 A 
ATOM     20  C   UNL d   1     -42.847-122.797 -55.793  0.00  0.00     0.000 A 
ATOM     21  C   UNL d   1     -42.400-122.211 -56.166  0.00  0.00     0.000 A 
ATOM     22  C   UNL d   1     -41.650-122.013 -55.875  0.00  0.00     0.000 A 
ATOM     23  C   UNL d   1     -41.357-122.405 -55.211  0.00  0.00     0.002 A 
ENDBRANCH  17  18
ENDBRANCH  14  17
ENDBRANCH   1  11
BRANCH   1  24
ATOM     24  C   UNL d   1     -41.525-121.169 -51.100  0.00  0.00     0.017 A 
ATOM     25  C   UNL d   1     -41.528-120.668 -51.759  0.00  0.00     0.002 A 
ATOM     26  C   UNL d   1     -41.327-119.871 -51.653  0.00  0.00     0.000 A 
ATOM     27  C   UNL d   1     -41.132-119.587 -50.924  0.00  0.00     0.000 A 
ATOM     28  C   UNL d   1     -41.135-120.112 -50.268  0.00  0.00     0.000 A 
ATOM     29  C   UNL d   1     -41.329-120.890 -50.359  0.00  0.00     0.002 A 
ENDBRANCH   1  24
TORSDOF 5
ENDMDL
