MODEL 1
REMARK VINA RESULT:      -3.8      0.000      0.000
REMARK  5 active torsions:
REMARK  status: ('A' for Active; 'I' for Inactive)
REMARK    1  A    between atoms: N_2  and  S_1 
REMARK    2  A    between atoms: N_6  and  S_1 
REMARK    3  A    between atoms: C_3  and  N_4 
REMARK       I    between atoms: N_4  and  C_5 
REMARK    4  A    between atoms: C_5  and  C_14 
REMARK    5  A    between atoms: C_14  and  N_7 
ROOT
ATOM      1  N   UNL d   1      56.785   0.348  32.381  0.00  0.00    -0.213 N 
ATOM      2  N   UNL d   1      57.863   0.568  31.169  0.00  0.00    -0.296 N 
ATOM      3  C   UNL d   1      57.592   0.283  32.530  0.00  0.00     0.112 A 
ATOM      4  C   UNL d   1      56.511   0.527  31.614  0.00  0.00     0.112 A 
ATOM      5  C   UNL d   1      58.135   0.394  31.919  0.00  0.00     0.100 A 
ATOM      6  C   UNL d   1      57.055   0.638  31.003  0.00  0.00     0.100 A 
ENDROOT
BRANCH   2   7
ATOM      7  C   UNL d   1      58.414   0.681  30.548  0.00  0.00     0.144 C 
BRANCH   7   8
ATOM      8  C   UNL d   1      58.582   0.057  30.028  0.00  0.00     0.297 C 
ATOM      9  N   UNL d   1      59.332  -0.283  30.017  0.00  0.00    -0.206 NA
ATOM     10  O   UNL d   1      57.995  -0.221  29.520  0.00  0.00    -0.264 OA
BRANCH   9  11
ATOM     11  C   UNL d   1      59.497  -0.905  29.497  0.00  0.00     0.096 A 
ATOM     12  C   UNL d   1      59.023  -1.580  29.505  0.00  0.00     0.032 A 
ATOM     13  C   UNL d   1      59.187  -2.202  28.987  0.00  0.00     0.059 A 
ATOM     14 CL   UNL d   1      58.713  -2.877  28.994  0.00  0.00    -0.082 Cl
ATOM     15  C   UNL d   1      59.823  -2.146  28.465  0.00  0.00     0.012 A 
ATOM     16  C   UNL d   1      60.295  -1.469  28.460  0.00  0.00     0.014 A 
ATOM     17  C   UNL d   1      60.130  -0.847  28.980  0.00  0.00     0.075 A 
ATOM     18 CL   UNL d   1      60.597  -0.168  28.981  0.00  0.00    -0.081 Cl
ENDBRANCH   9  11
ENDBRANCH   7   8
ENDBRANCH   2   7
BRANCH   1  19
ATOM     19  S   UNL d   1      56.242   0.237  32.993  0.00  0.00     0.337 S 
ATOM     20  O   UNL d   1      56.364   0.607  33.726  0.00  0.00    -0.181 OA
ATOM     21  O   UNL d   1      55.580  -0.239  32.875  0.00  0.00    -0.181 OA
BRANCH  19  22
ATOM     22  N   UNL d   1      55.699   0.126  33.604  0.00  0.00    -0.213 N 
ATOM     23  C   UNL d   1      55.212  -0.545  33.606  0.00  0.00     0.113 C 
ATOM     24  C   UNL d   1      55.641   0.681  34.210  0.00  0.00     0.113 C 
ENDBRANCH  19  22
ENDBRANCH   1  19
TORSDOF 5
ENDMDL
MODEL 2
REMARK VINA RESULT:      -2.9      2.314      5.113
REMARK  5 active torsions:
REMARK  status: ('A' for Active; 'I' for Inactive)
REMARK    1  A    between atoms: N_2  and  S_1 
REMARK    2  A    between atoms: N_6  and  S_1 
REMARK    3  A    between atoms: C_3  and  N_4 
REMARK       I    between atoms: N_4  and  C_5 
REMARK    4  A    between atoms: C_5  and  C_14 
REMARK    5  A    between atoms: C_14  and  N_7 
ROOT
ATOM      1  N   UNL d   1      59.238  -0.298  29.792  0.00  0.00    -0.213 N 
ATOM      2  N   UNL d   1      57.948   0.350  30.564  0.00  0.00    -0.296 N 
ATOM      3  C   UNL d   1      59.349   0.288  30.359  0.00  0.00     0.112 A 
ATOM      4  C   UNL d   1      58.470  -0.566  29.607  0.00  0.00     0.112 A 
ATOM      5  C   UNL d   1      58.699   0.614  30.748  0.00  0.00     0.100 A 
ATOM      6  C   UNL d   1      57.820  -0.239  29.996  0.00  0.00     0.100 A 
ENDROOT
BRANCH   2   7
ATOM      7  C   UNL d   1      57.288   0.681  30.959  0.00  0.00     0.144 C 
BRANCH   7   8
ATOM      8  C   UNL d   1      57.089   0.419  31.721  0.00  0.00     0.297 C 
ATOM      9  N   UNL d   1      56.342   0.104  31.868  0.00  0.00    -0.206 NA
ATOM     10  O   UNL d   1      57.642   0.474  32.331  0.00  0.00    -0.264 OA
BRANCH   9  11
ATOM     11  C   UNL d   1      56.145  -0.157  32.628  0.00  0.00     0.096 A 
ATOM     12  C   UNL d   1      55.908   0.390  33.198  0.00  0.00     0.032 A 
ATOM     13  C   UNL d   1      55.711   0.130  33.958  0.00  0.00     0.059 A 
ATOM     14 CL   UNL d   1      55.474   0.676  34.528  0.00  0.00    -0.082 Cl
ATOM     15  C   UNL d   1      55.752  -0.673  34.141  0.00  0.00     0.012 A 
ATOM     16  C   UNL d   1      55.989  -1.217  33.568  0.00  0.00     0.014 A 
ATOM     17  C   UNL d   1      56.186  -0.955  32.809  0.00  0.00     0.075 A 
ATOM     18 CL   UNL d   1      56.425  -1.493  32.230  0.00  0.00    -0.081 Cl
ENDBRANCH   9  11
ENDBRANCH   7   8
ENDBRANCH   2   7
BRANCH   1  19
ATOM     19  S   UNL d   1      59.888  -0.625  29.403  0.00  0.00     0.337 S 
ATOM     20  O   UNL d   1      59.797  -0.943  28.642  0.00  0.00    -0.181 OA
ATOM     21  O   UNL d   1      60.626  -0.635  29.769  0.00  0.00    -0.181 OA
BRANCH  19  22
ATOM     22  N   UNL d   1      60.538  -0.951  29.014  0.00  0.00    -0.213 N 
ATOM     23  C   UNL d   1      60.975  -0.489  28.480  0.00  0.00     0.113 C 
ATOM     24  C   UNL d   1      60.753  -1.734  29.154  0.00  0.00     0.113 C 
ENDBRANCH  19  22
ENDBRANCH   1  19
TORSDOF 5
ENDMDL
MODEL 3
REMARK VINA RESULT:      -1.6      1.568      2.159
REMARK  5 active torsions:
REMARK  status: ('A' for Active; 'I' for Inactive)
REMARK    1  A    between atoms: N_2  and  S_1 
REMARK    2  A    between atoms: N_6  and  S_1 
REMARK    3  A    between atoms: C_3  and  N_4 
REMARK       I    between atoms: N_4  and  C_5 
REMARK    4  A    between atoms: C_5  and  C_14 
REMARK    5  A    between atoms: C_14  and  N_7 
ROOT
ATOM      1  N   UNL d   1      55.832   0.179  33.537  0.00  0.00    -0.213 N 
ATOM      2  N   UNL d   1      56.322  -0.183  32.018  0.00  0.00    -0.296 N 
ATOM      3  C   UNL d   1      56.282  -0.495  33.399  0.00  0.00     0.112 A 
ATOM      4  C   UNL d   1      55.623   0.682  32.906  0.00  0.00     0.112 A 
ATOM      5  C   UNL d   1      56.530  -0.678  32.634  0.00  0.00     0.100 A 
ATOM      6  C   UNL d   1      55.870   0.499  32.140  0.00  0.00     0.100 A 
ENDROOT
BRANCH   2   7
ATOM      7  C   UNL d   1      56.573  -0.369  31.240  0.00  0.00     0.144 C 
BRANCH   7   8
ATOM      8  C   UNL d   1      57.381  -0.350  31.052  0.00  0.00     0.297 C 
ATOM      9  N   UNL d   1      57.679   0.239  30.560  0.00  0.00    -0.206 NA
ATOM     10  O   UNL d   1      57.887  -0.925  31.361  0.00  0.00    -0.264 OA
BRANCH   9  11
ATOM     11  C   UNL d   1      58.484   0.256  30.374  0.00  0.00     0.096 A 
ATOM     12  C   UNL d   1      59.034   0.449  30.958  0.00  0.00     0.032 A 
ATOM     13  C   UNL d   1      59.839   0.467  30.773  0.00  0.00     0.059 A 
ATOM     14 CL   UNL d   1      60.388   0.660  31.358  0.00  0.00    -0.082 Cl
ATOM     15  C   UNL d   1      60.089   0.292  30.008  0.00  0.00     0.012 A 
ATOM     16  C   UNL d   1      59.537   0.099  29.426  0.00  0.00     0.014 A 
ATOM     17  C   UNL d   1      58.731   0.082  29.613  0.00  0.00     0.075 A 
ATOM     18 CL   UNL d   1      58.173  -0.110  29.036  0.00  0.00    -0.081 Cl
ENDBRANCH   9  11
ENDBRANCH   7   8
ENDBRANCH   2   7
BRANCH   1  19
ATOM     19  S   UNL d   1      55.585   0.362  34.303  0.00  0.00     0.337 S 
ATOM     20  O   UNL d   1      56.125   0.682  34.846  0.00  0.00    -0.181 OA
ATOM     21  O   UNL d   1      54.804   0.227  34.528  0.00  0.00    -0.181 OA
BRANCH  19  22
ATOM     22  N   UNL d   1      55.338   0.545  35.068  0.00  0.00    -0.213 N 
ATOM     23  C   UNL d   1      54.528   0.625  35.233  0.00  0.00     0.113 C 
ATOM     24  C   UNL d   1      55.894   0.647  35.668  0.00  0.00     0.113 C 
ENDBRANCH  19  22
ENDBRANCH   1  19
TORSDOF 5
ENDMDL
MODEL 4
REMARK VINA RESULT:      -1.5      2.453      5.140
REMARK  5 active torsions:
REMARK  status: ('A' for Active; 'I' for Inactive)
REMARK    1  A    between atoms: N_2  and  S_1 
REMARK    2  A    between atoms: N_6  and  S_1 
REMARK    3  A    between atoms: C_3  and  N_4 
REMARK       I    between atoms: N_4  and  C_5 
REMARK    4  A    between atoms: C_5  and  C_14 
REMARK    5  A    between atoms: C_14  and  N_7 
ROOT
ATOM      1  N   UNL d   1      59.216  -1.573  29.227  0.00  0.00    -0.213 N 
ATOM      2  N   UNL d   1      58.333  -0.331  29.824  0.00  0.00    -0.296 N 
ATOM      3  C   UNL d   1      59.367  -0.803  28.979  0.00  0.00     0.112 A 
ATOM      4  C   UNL d   1      58.614  -1.726  29.783  0.00  0.00     0.112 A 
ATOM      5  C   UNL d   1      58.922  -0.178  29.279  0.00  0.00     0.100 A 
ATOM      6  C   UNL d   1      58.169  -1.100  30.083  0.00  0.00     0.100 A 
ENDROOT
BRANCH   2   7
ATOM      7  C   UNL d   1      57.880   0.305  30.129  0.00  0.00     0.144 C 
BRANCH   7   8
ATOM      8  C   UNL d   1      57.781   0.384  30.949  0.00  0.00     0.297 C 
ATOM      9  N   UNL d   1      57.026   0.445  31.271  0.00  0.00    -0.206 NA
ATOM     10  O   UNL d   1      58.443   0.400  31.441  0.00  0.00    -0.264 OA
BRANCH   9  11
ATOM     11  C   UNL d   1      56.929   0.524  32.089  0.00  0.00     0.096 A 
ATOM     12  C   UNL d   1      57.593   0.547  32.577  0.00  0.00     0.032 A 
ATOM     13  C   UNL d   1      57.498   0.625  33.395  0.00  0.00     0.059 A 
ATOM     14 CL   UNL d   1      58.162   0.648  33.884  0.00  0.00    -0.082 Cl
ATOM     15  C   UNL d   1      56.742   0.680  33.717  0.00  0.00     0.012 A 
ATOM     16  C   UNL d   1      56.080   0.657  33.225  0.00  0.00     0.014 A 
ATOM     17  C   UNL d   1      56.177   0.579  32.407  0.00  0.00     0.075 A 
ATOM     18 CL   UNL d   1      55.520   0.555  31.909  0.00  0.00    -0.081 Cl
ENDBRANCH   9  11
ENDBRANCH   7   8
ENDBRANCH   2   7
BRANCH   1  19
ATOM     19  S   UNL d   1      59.662  -2.199  28.926  0.00  0.00     0.337 S 
ATOM     20  O   UNL d   1      60.398  -2.050  28.574  0.00  0.00    -0.181 OA
ATOM     21  O   UNL d   1      59.376  -2.970  28.976  0.00  0.00    -0.181 OA
BRANCH  19  22
ATOM     22  N   UNL d   1      60.107  -2.825  28.625  0.00  0.00    -0.213 N 
ATOM     23  C   UNL d   1      59.740  -3.549  28.456  0.00  0.00     0.113 C 
ATOM     24  C   UNL d   1      60.915  -2.731  28.494  0.00  0.00     0.113 C 
ENDBRANCH  19  22
ENDBRANCH   1  19
TORSDOF 5
ENDMDL
