MODEL 1
REMARK VINA RESULT:      14.0      0.000      0.000
REMARK  2 active torsions:
REMARK  status: ('A' for Active; 'I' for Inactive)
REMARK    1  A    between atoms: C_5  and  C_1 
REMARK    2  A    between atoms: O_15  and  C_12 
ROOT
ATOM      1  C   UNL d   1      13.986  12.144  -2.017  0.00  0.00     0.042 A 
ATOM      2  C   UNL d   1      13.437  12.124  -1.399  0.00  0.00     0.045 A 
ATOM      3  C   UNL d   1      14.781  11.982  -1.869  0.00  0.00     0.196 A 
ATOM      4  C   UNL d   1      15.027  11.800  -1.103  0.00  0.00     0.045 A 
ATOM      5  C   UNL d   1      13.683  11.942  -0.633  0.00  0.00     0.196 A 
ATOM      6  C   UNL d   1      14.478  11.780  -0.485  0.00  0.00     0.045 A 
ATOM      7  O   UNL d   1      15.330  12.002  -2.486  0.00  0.00    -0.287 OA
ATOM      8  O   UNL d   1      13.134  11.922  -0.015  0.00  0.00    -0.287 OA
ENDROOT
BRANCH   1   9
ATOM      9  C   UNL d   1      13.739  12.325  -2.783  0.00  0.00     0.003 A 
ATOM     10  C   UNL d   1      13.931  13.063  -3.108  0.00  0.00     0.002 A 
ATOM     11  C   UNL d   1      13.687  13.248  -3.872  0.00  0.00     0.024 A 
ATOM     12  C   UNL d   1      13.252  12.701  -4.315  0.00  0.00     0.094 A 
ATOM     13  C   UNL d   1      13.063  11.961  -3.982  0.00  0.00     0.024 A 
ATOM     14  C   UNL d   1      13.309  11.779  -3.216  0.00  0.00     0.002 A 
BRANCH  12  15
ATOM     15  O   UNL d   1      13.005  12.885  -5.084  0.00  0.00    -0.328 OA
ATOM     16  C   UNL d   1      13.099  12.332  -5.691  0.00  0.00     0.181 C 
ENDBRANCH  12  15
ENDBRANCH   1   9
TORSDOF 2
ENDMDL
MODEL 2
REMARK VINA RESULT:      15.3      0.949      3.587
REMARK  2 active torsions:
REMARK  status: ('A' for Active; 'I' for Inactive)
REMARK    1  A    between atoms: C_5  and  C_1 
REMARK    2  A    between atoms: O_15  and  C_12 
ROOT
ATOM      1  C   UNL d   1      13.421  12.648  -3.679  0.00  0.00     0.042 A 
ATOM      2  C   UNL d   1      13.454  12.104  -4.301  0.00  0.00     0.045 A 
ATOM      3  C   UNL d   1      13.132  13.409  -3.810  0.00  0.00     0.196 A 
ATOM      4  C   UNL d   1      12.876  13.627  -4.563  0.00  0.00     0.045 A 
ATOM      5  C   UNL d   1      13.198  12.323  -5.054  0.00  0.00     0.196 A 
ATOM      6  C   UNL d   1      12.909  13.084  -5.185  0.00  0.00     0.045 A 
ATOM      7  O   UNL d   1      13.099  13.952  -3.187  0.00  0.00    -0.287 OA
ATOM      8  O   UNL d   1      13.231  11.779  -5.677  0.00  0.00    -0.287 OA
ENDROOT
BRANCH   1   9
ATOM      9  C   UNL d   1      13.677  12.429  -2.926  0.00  0.00     0.003 A 
ATOM     10  C   UNL d   1      14.438  12.643  -2.676  0.00  0.00     0.002 A 
ATOM     11  C   UNL d   1      14.697  12.427  -1.926  0.00  0.00     0.024 A 
ATOM     12  C   UNL d   1      14.202  11.998  -1.421  0.00  0.00     0.094 A 
ATOM     13  C   UNL d   1      13.438  11.786  -1.678  0.00  0.00     0.024 A 
ATOM     14  C   UNL d   1      13.182  12.004  -2.431  0.00  0.00     0.002 A 
BRANCH  12  15
ATOM     15  O   UNL d   1      14.461  11.779  -0.665  0.00  0.00    -0.328 OA
ATOM     16  C   UNL d   1      13.942  11.823  -0.023  0.00  0.00     0.181 C 
ENDBRANCH  12  15
ENDBRANCH   1   9
TORSDOF 2
ENDMDL
MODEL 3
REMARK VINA RESULT:      16.6      1.596      1.766
REMARK  2 active torsions:
REMARK  status: ('A' for Active; 'I' for Inactive)
REMARK    1  A    between atoms: C_5  and  C_1 
REMARK    2  A    between atoms: O_15  and  C_12 
ROOT
ATOM      1  C   UNL d   1      14.556  13.091  -1.315  0.00  0.00     0.042 A 
ATOM      2  C   UNL d   1      14.582  13.912  -1.222  0.00  0.00     0.045 A 
ATOM      3  C   UNL d   1      14.918  12.600  -0.760  0.00  0.00     0.196 A 
ATOM      4  C   UNL d   1      15.306  12.930  -0.111  0.00  0.00     0.045 A 
ATOM      5  C   UNL d   1      14.970  14.242  -0.573  0.00  0.00     0.196 A 
ATOM      6  C   UNL d   1      15.333  13.752  -0.018  0.00  0.00     0.045 A 
ATOM      7  O   UNL d   1      14.892  11.779  -0.853  0.00  0.00    -0.287 OA
ATOM      8  O   UNL d   1      14.997  15.063  -0.480  0.00  0.00    -0.287 OA
ENDROOT
BRANCH   1   9
ATOM      9  C   UNL d   1      14.167  12.761  -1.964  0.00  0.00     0.003 A 
ATOM     10  C   UNL d   1      14.304  13.070  -2.721  0.00  0.00     0.002 A 
ATOM     11  C   UNL d   1      13.919  12.743  -3.370  0.00  0.00     0.024 A 
ATOM     12  C   UNL d   1      13.396  12.110  -3.271  0.00  0.00     0.094 A 
ATOM     13  C   UNL d   1      13.263  11.804  -2.506  0.00  0.00     0.024 A 
ATOM     14  C   UNL d   1      13.651  12.134  -1.858  0.00  0.00     0.002 A 
BRANCH  12  15
ATOM     15  O   UNL d   1      13.007  11.780  -3.923  0.00  0.00    -0.328 OA
ATOM     16  C   UNL d   1      12.962  12.202  -4.633  0.00  0.00     0.181 C 
ENDBRANCH  12  15
ENDBRANCH   1   9
TORSDOF 2
ENDMDL
