MODEL 1
REMARK VINA RESULT:      -2.3      0.000      0.000
REMARK  4 active torsions:
REMARK  status: ('A' for Active; 'I' for Inactive)
REMARK    1  A    between atoms: C_2  and  S_1 
REMARK    2  A    between atoms: N_3  and  S_1 
REMARK    3  A    between atoms: C_7  and  N_3 
REMARK    4  A    between atoms: C_8  and  C_4 
ROOT
ATOM      1  S   UNL d   1      57.535   0.154  31.204  0.00  0.00     0.285 S 
ATOM      2  O   UNL d   1      58.206  -0.286  31.404  0.00  0.00    -0.198 OA
ATOM      3  O   UNL d   1      56.858   0.598  30.999  0.00  0.00    -0.198 OA
ENDROOT
BRANCH   1   4
ATOM      4  C   UNL d   1      57.275   0.126  31.996  0.00  0.00     0.105 A 
ATOM      5  C   UNL d   1      57.775   0.388  32.598  0.00  0.00     0.012 A 
ATOM      6  C   UNL d   1      57.525   0.363  33.382  0.00  0.00     0.001 A 
ATOM      7  C   UNL d   1      58.538   0.681  32.420  0.00  0.00     0.001 C 
ATOM      8  C   UNL d   1      58.024   0.625  33.984  0.00  0.00     0.000 C 
ATOM      9  C   UNL d   1      56.761   0.071  33.566  0.00  0.00     0.000 A 
ATOM     10  C   UNL d   1      56.265  -0.191  32.956  0.00  0.00     0.001 A 
ATOM     11  C   UNL d   1      56.521  -0.164  32.172  0.00  0.00     0.012 A 
ATOM     12  C   UNL d   1      55.502  -0.484  33.134  0.00  0.00     0.000 C 
ATOM     13  C   UNL d   1      56.030  -0.423  31.562  0.00  0.00     0.001 C 
ENDBRANCH   1   4
BRANCH   1  14
ATOM     14  N   UNL d   1      57.791   0.184  30.414  0.00  0.00    -0.158 NA
BRANCH  14  15
ATOM     15  C   UNL d   1      58.048  -0.508  30.036  0.00  0.00     0.100 A 
ATOM     16  C   UNL d   1      58.439  -0.461  29.305  0.00  0.00     0.083 A 
ATOM     17  C   UNL d   1      58.695  -1.145  28.928  0.00  0.00     0.008 A 
ATOM     18  C   UNL d   1      58.565  -1.882  29.276  0.00  0.00     0.000 A 
ATOM     19  C   UNL d   1      58.179  -1.933  30.001  0.00  0.00     0.002 A 
ATOM     20  C   UNL d   1      57.919  -1.244  30.385  0.00  0.00     0.020 A 
BRANCH  16  21
ATOM     21  C   UNL d   1      58.570   0.274  28.954  0.00  0.00     0.212 C 
ATOM     22  O   UNL d   1      58.003   0.606  28.457  0.00  0.00    -0.644 OA
ATOM     23  O   UNL d   1      59.273   0.682  29.099  0.00  0.00    -0.644 OA
ENDBRANCH  16  21
ENDBRANCH  14  15
ENDBRANCH   1  14
TORSDOF 4
ENDMDL
MODEL 2
REMARK VINA RESULT:      -1.7      0.997      4.032
REMARK  4 active torsions:
REMARK  status: ('A' for Active; 'I' for Inactive)
REMARK    1  A    between atoms: C_2  and  S_1 
REMARK    2  A    between atoms: N_3  and  S_1 
REMARK    3  A    between atoms: C_7  and  N_3 
REMARK    4  A    between atoms: C_8  and  C_4 
ROOT
ATOM      1  S   UNL d   1      57.902  -0.572  30.317  0.00  0.00     0.285 S 
ATOM      2  O   UNL d   1      57.432  -0.137  29.794  0.00  0.00    -0.198 OA
ATOM      3  O   UNL d   1      58.374  -1.011  30.846  0.00  0.00    -0.198 OA
ENDROOT
BRANCH   1   4
ATOM      4  C   UNL d   1      58.454  -0.714  29.708  0.00  0.00     0.105 A 
ATOM      5  C   UNL d   1      58.569  -1.483  29.433  0.00  0.00     0.012 A 
ATOM      6  C   UNL d   1      59.113  -1.630  28.833  0.00  0.00     0.001 A 
ATOM      7  C   UNL d   1      58.137  -2.120  29.760  0.00  0.00     0.001 C 
ATOM      8  C   UNL d   1      59.228  -2.399  28.558  0.00  0.00     0.000 C 
ATOM      9  C   UNL d   1      59.549  -0.995  28.502  0.00  0.00     0.000 A 
ATOM     10  C   UNL d   1      59.427  -0.225  28.783  0.00  0.00     0.001 A 
ATOM     11  C   UNL d   1      58.881  -0.084  29.385  0.00  0.00     0.012 A 
ATOM     12  C   UNL d   1      59.860   0.413  28.456  0.00  0.00     0.000 C 
ATOM     13  C   UNL d   1      58.758   0.681  29.668  0.00  0.00     0.001 C 
ENDBRANCH   1   4
BRANCH   1  14
ATOM     14  N   UNL d   1      57.353  -0.432  30.925  0.00  0.00    -0.158 NA
BRANCH  14  15
ATOM     15  C   UNL d   1      57.597  -0.063  31.626  0.00  0.00     0.100 A 
ATOM     16  C   UNL d   1      57.104  -0.072  32.294  0.00  0.00     0.083 A 
ATOM     17  C   UNL d   1      57.344   0.293  32.990  0.00  0.00     0.008 A 
ATOM     18  C   UNL d   1      58.076   0.671  33.028  0.00  0.00     0.000 A 
ATOM     19  C   UNL d   1      58.568   0.682  32.368  0.00  0.00     0.002 A 
ATOM     20  C   UNL d   1      58.330   0.314  31.663  0.00  0.00     0.020 A 
BRANCH  16  21
ATOM     21  C   UNL d   1      56.370  -0.449  32.260  0.00  0.00     0.212 C 
ATOM     22  O   UNL d   1      55.688  -0.018  32.092  0.00  0.00    -0.644 OA
ATOM     23  O   UNL d   1      56.316  -1.261  32.395  0.00  0.00    -0.644 OA
ENDBRANCH  16  21
ENDBRANCH  14  15
ENDBRANCH   1  14
TORSDOF 4
ENDMDL
MODEL 3
REMARK VINA RESULT:      -0.3      1.417      2.416
REMARK  4 active torsions:
REMARK  status: ('A' for Active; 'I' for Inactive)
REMARK    1  A    between atoms: C_2  and  S_1 
REMARK    2  A    between atoms: N_3  and  S_1 
REMARK    3  A    between atoms: C_7  and  N_3 
REMARK    4  A    between atoms: C_8  and  C_4 
ROOT
ATOM      1  S   UNL d   1      56.590   0.511  32.774  0.00  0.00     0.285 S 
ATOM      2  O   UNL d   1      55.850   0.350  32.440  0.00  0.00    -0.198 OA
ATOM      3  O   UNL d   1      57.337   0.673  33.107  0.00  0.00    -0.198 OA
ENDROOT
BRANCH   1   4
ATOM      4  C   UNL d   1      56.242   0.561  33.530  0.00  0.00     0.105 A 
ATOM      5  C   UNL d   1      55.421   0.589  33.600  0.00  0.00     0.012 A 
ATOM      6  C   UNL d   1      55.071   0.638  34.344  0.00  0.00     0.001 A 
ATOM      7  C   UNL d   1      54.935   0.568  32.919  0.00  0.00     0.001 C 
ATOM      8  C   UNL d   1      54.250   0.667  34.414  0.00  0.00     0.000 C 
ATOM      9  C   UNL d   1      55.553   0.660  35.029  0.00  0.00     0.000 A 
ATOM     10  C   UNL d   1      56.378   0.631  34.951  0.00  0.00     0.001 A 
ATOM     11  C   UNL d   1      56.722   0.582  34.203  0.00  0.00     0.012 A 
ATOM     12  C   UNL d   1      56.864   0.652  35.632  0.00  0.00     0.000 C 
ATOM     13  C   UNL d   1      57.543   0.553  34.121  0.00  0.00     0.001 C 
ENDBRANCH   1   4
BRANCH   1  14
ATOM     14  N   UNL d   1      56.938   0.462  32.021  0.00  0.00    -0.158 NA
BRANCH  14  15
ATOM     15  C   UNL d   1      57.053  -0.278  31.665  0.00  0.00     0.100 A 
ATOM     16  C   UNL d   1      57.492  -0.337  30.963  0.00  0.00     0.083 A 
ATOM     17  C   UNL d   1      57.607  -1.071  30.608  0.00  0.00     0.008 A 
ATOM     18  C   UNL d   1      57.285  -1.750  30.949  0.00  0.00     0.000 A 
ATOM     19  C   UNL d   1      56.850  -1.695  31.645  0.00  0.00     0.002 A 
ATOM     20  C   UNL d   1      56.731  -0.957  32.006  0.00  0.00     0.020 A 
BRANCH  16  21
ATOM     21  C   UNL d   1      57.815   0.339  30.619  0.00  0.00     0.212 C 
ATOM     22  O   UNL d   1      58.498   0.680  30.931  0.00  0.00    -0.644 OA
ATOM     23  O   UNL d   1      57.455   0.680  29.959  0.00  0.00    -0.644 OA
ENDBRANCH  16  21
ENDBRANCH  14  15
ENDBRANCH   1  14
TORSDOF 4
ENDMDL
