MODEL 1
REMARK VINA RESULT:       0.5      0.000      0.000
REMARK  9 active torsions:
REMARK  status: ('A' for Active; 'I' for Inactive)
REMARK    1  A    between atoms: C_9  and  S_1 
REMARK    2  A    between atoms: N_12  and  S_1 
REMARK    3  A    between atoms: S_2  and  C_8 
REMARK    4  A    between atoms: N_13  and  S_2 
REMARK    5  A    between atoms: N_20  and  C_5 
REMARK    6  A    between atoms: C_23  and  N_12 
REMARK    7  A    between atoms: C_24  and  N_13 
REMARK    8  A    between atoms: C_31  and  C_23 
REMARK    9  A    between atoms: C_30  and  C_24 
ROOT
ATOM      1  C   UNL d   1     -41.890-122.652 -50.718  0.00  0.00     0.021 A 
ATOM      2  C   UNL d   1     -41.890-122.525 -52.048  0.00  0.00     0.021 A 
ATOM      3  C   UNL d   1     -42.162-122.186 -51.342  0.00  0.00     0.111 A 
ATOM      4  C   UNL d   1     -41.452-123.198 -51.854  0.00  0.00     0.002 A 
ATOM      5  C   UNL d   1     -41.458-123.267 -51.030  0.00  0.00     0.002 A 
ATOM      6  C   UNL d   1     -41.649-122.753 -53.424  0.00  0.00     0.104 A 
ATOM      7  C   UNL d   1     -41.669-123.108 -49.405  0.00  0.00     0.104 A 
ATOM      8  C   UNL d   1     -41.992-122.297 -52.834  0.00  0.00     0.015 A 
ATOM      9  C   UNL d   1     -42.007-122.553 -49.935  0.00  0.00     0.015 A 
ATOM     10  C   UNL d   1     -41.123-123.818 -50.511  0.00  0.00     0.001 A 
ATOM     11  C   UNL d   1     -41.123-123.632 -52.447  0.00  0.00     0.001 A 
ATOM     12  C   UNL d   1     -41.237-123.723 -49.717  0.00  0.00     0.013 A 
ATOM     13  C   UNL d   1     -41.211-123.428 -53.205  0.00  0.00     0.013 A 
ENDROOT
BRANCH   6  14
ATOM     14  S   UNL d   1     -41.730-122.555 -54.238  0.00  0.00     0.272 S 
ATOM     15  O   UNL d   1     -42.001-123.335 -54.406  0.00  0.00    -0.200 OA
ATOM     16  O   UNL d   1     -41.462-121.773 -54.092  0.00  0.00    -0.200 OA
BRANCH  14  17
ATOM     17  N   UNL d   1     -41.818-122.382 -55.053  0.00  0.00    -0.225 N 
ATOM     18  C   UNL d   1     -41.216-122.598 -55.603  0.00  0.00     0.111 C 
BRANCH  17  19
ATOM     19  C   UNL d   1     -42.496-121.993 -55.352  0.00  0.00     0.137 C 
BRANCH  19  20
ATOM     20  C   UNL d   1     -42.646-121.945 -56.158  0.00  0.00     0.254 C 
ATOM     21  O   UNL d   1     -43.408-121.834 -56.447  0.00  0.00    -0.281 OA
ENDBRANCH  19  20
ENDBRANCH  17  19
ENDBRANCH  14  17
ENDBRANCH   6  14
BRANCH   3  22
ATOM     22  N   UNL d   1     -42.624-121.501 -51.287  0.00  0.00    -0.096 NA
ATOM     23  O   UNL d   1     -43.447-121.561 -51.238  0.00  0.00    -0.061 OA
ENDBRANCH   3  22
BRANCH   7  24
ATOM     24  S   UNL d   1     -41.762-123.048 -48.569  0.00  0.00     0.272 S 
ATOM     25  O   UNL d   1     -41.182-123.648 -48.480  0.00  0.00    -0.200 OA
ATOM     26  O   UNL d   1     -42.342-122.449 -48.663  0.00  0.00    -0.200 OA
BRANCH  24  27
ATOM     27  N   UNL d   1     -41.830-123.015 -47.728  0.00  0.00    -0.225 N 
ATOM     28  C   UNL d   1     -41.324-122.555 -47.282  0.00  0.00     0.111 C 
BRANCH  27  29
ATOM     29  C   UNL d   1     -42.434-123.470 -47.363  0.00  0.00     0.137 C 
BRANCH  29  30
ATOM     30  C   UNL d   1     -42.819-123.165 -46.711  0.00  0.00     0.254 C 
ATOM     31  O   UNL d   1     -43.649-123.081 -46.708  0.00  0.00    -0.281 OA
ENDBRANCH  29  30
ENDBRANCH  27  29
ENDBRANCH  24  27
ENDBRANCH   7  24
TORSDOF 9
ENDMDL
