MODEL 1
REMARK VINA RESULT:      -6.9      0.000      0.000
REMARK  3 active torsions:
REMARK  status: ('A' for Active; 'I' for Inactive)
REMARK    1  A    between atoms: N_2  and  S_1 
REMARK    2  A    between atoms: C_3  and  S_1 
REMARK    3  A    between atoms: C_4  and  N_2 
ROOT
ATOM      1  S   UNL d   1     -41.471-121.976 -51.814  0.00  0.00     0.287 S 
ATOM      2  O   UNL d   1     -41.438-121.696 -51.034  0.00  0.00    -0.198 OA
ATOM      3  O   UNL d   1     -41.148-121.265 -52.080  0.00  0.00    -0.198 OA
ENDROOT
BRANCH   1   4
ATOM      4  N   UNL d   1     -41.794-122.684 -51.542  0.00  0.00    -0.139 NA
BRANCH   4   5
ATOM      5  C   UNL d   1     -41.837-122.845 -50.736  0.00  0.00     0.175 A 
ATOM      6  N   UNL d   1     -42.560-122.833 -50.345  0.00  0.00    -0.226 NA
ATOM      7  C   UNL d   1     -42.574-122.988 -49.584  0.00  0.00     0.083 A 
ATOM      8  C   UNL d   1     -43.290-122.984 -49.160  0.00  0.00     0.021 C 
ATOM      9  C   UNL d   1     -41.886-123.162 -49.165  0.00  0.00     0.019 A 
ATOM     10  C   UNL d   1     -41.230-123.169 -49.535  0.00  0.00     0.005 A 
ATOM     11  C   UNL d   1     -41.149-123.019 -50.317  0.00  0.00     0.040 A 
ENDBRANCH   4   5
ENDBRANCH   1   4
BRANCH   1  12
ATOM     12  C   UNL d   1     -41.503-122.247 -52.583  0.00  0.00     0.105 A 
ATOM     13  C   UNL d   1     -41.914-121.821 -53.157  0.00  0.00     0.013 A 
ATOM     14  C   UNL d   1     -41.944-122.097 -53.933  0.00  0.00     0.001 A 
ATOM     15  C   UNL d   1     -42.353-121.673 -54.503  0.00  0.00     0.000 A 
ATOM     16  C   UNL d   1     -41.563-122.800 -54.136  0.00  0.00     0.000 A 
ATOM     17  C   UNL d   1     -42.386-121.947 -55.284  0.00  0.00     0.000 A 
ATOM     18  C   UNL d   1     -42.001-122.656 -55.486  0.00  0.00     0.000 A 
ATOM     19  C   UNL d   1     -41.592-123.080 -54.916  0.00  0.00     0.000 A 
ATOM     20  C   UNL d   1     -41.152-123.227 -53.562  0.00  0.00     0.001 A 
ATOM     21  C   UNL d   1     -41.123-122.949 -52.787  0.00  0.00     0.013 A 
ENDBRANCH   1  12
TORSDOF 3
ENDMDL
MODEL 2
REMARK VINA RESULT:      -6.5      0.903      4.049
REMARK  3 active torsions:
REMARK  status: ('A' for Active; 'I' for Inactive)
REMARK    1  A    between atoms: N_2  and  S_1 
REMARK    2  A    between atoms: C_3  and  S_1 
REMARK    3  A    between atoms: C_4  and  N_2 
ROOT
ATOM      1  S   UNL d   1     -41.316-122.123 -52.229  0.00  0.00     0.287 S 
ATOM      2  O   UNL d   1     -41.125-121.695 -52.912  0.00  0.00    -0.198 OA
ATOM      3  O   UNL d   1     -41.188-121.447 -51.773  0.00  0.00    -0.198 OA
ENDROOT
BRANCH   1   4
ATOM      4  N   UNL d   1     -41.442-122.795 -52.690  0.00  0.00    -0.139 NA
BRANCH   4   5
ATOM      5  C   UNL d   1     -41.556-122.732 -53.502  0.00  0.00     0.175 A 
ATOM      6  N   UNL d   1     -42.097-122.195 -53.810  0.00  0.00    -0.226 NA
ATOM      7  C   UNL d   1     -42.186-122.155 -54.580  0.00  0.00     0.083 A 
ATOM      8  C   UNL d   1     -42.726-121.622 -54.922  0.00  0.00     0.021 C 
ATOM      9  C   UNL d   1     -41.753-122.637 -55.091  0.00  0.00     0.019 A 
ATOM     10  C   UNL d   1     -41.260-123.125 -54.796  0.00  0.00     0.005 A 
ATOM     11  C   UNL d   1     -41.123-123.214 -54.013  0.00  0.00     0.040 A 
ENDBRANCH   4   5
ENDBRANCH   1   4
BRANCH   1  12
ATOM     12  C   UNL d   1     -41.503-122.541 -51.554  0.00  0.00     0.105 A 
ATOM     13  C   UNL d   1     -42.071-122.250 -51.030  0.00  0.00     0.013 A 
ATOM     14  C   UNL d   1     -42.258-122.674 -50.349  0.00  0.00     0.001 A 
ATOM     15  C   UNL d   1     -42.822-122.385 -49.828  0.00  0.00     0.000 A 
ATOM     16  C   UNL d   1     -41.878-123.389 -50.189  0.00  0.00     0.000 A 
ATOM     17  C   UNL d   1     -43.014-122.808 -49.142  0.00  0.00     0.000 A 
ATOM     18  C   UNL d   1     -42.629-123.529 -48.984  0.00  0.00     0.000 A 
ATOM     19  C   UNL d   1     -42.065-123.817 -49.505  0.00  0.00     0.000 A 
ATOM     20  C   UNL d   1     -41.310-123.680 -50.713  0.00  0.00     0.001 A 
ATOM     21  C   UNL d   1     -41.125-123.254 -51.393  0.00  0.00     0.013 A 
ENDBRANCH   1  12
TORSDOF 3
ENDMDL
MODEL 3
REMARK VINA RESULT:      -4.6      1.282      4.191
REMARK  3 active torsions:
REMARK  status: ('A' for Active; 'I' for Inactive)
REMARK    1  A    between atoms: N_2  and  S_1 
REMARK    2  A    between atoms: C_3  and  S_1 
REMARK    3  A    between atoms: C_4  and  N_2 
ROOT
ATOM      1  S   UNL d   1     -41.410-123.089 -52.550  0.00  0.00     0.287 S 
ATOM      2  O   UNL d   1     -41.169-123.278 -53.321  0.00  0.00    -0.198 OA
ATOM      3  O   UNL d   1     -41.127-123.817 -52.286  0.00  0.00    -0.198 OA
ENDROOT
BRANCH   1   4
ATOM      4  N   UNL d   1     -41.691-122.363 -52.821  0.00  0.00    -0.139 NA
BRANCH   4   5
ATOM      5  C   UNL d   1     -41.787-122.222 -53.626  0.00  0.00     0.175 A 
ATOM      6  N   UNL d   1     -42.538-122.186 -53.958  0.00  0.00    -0.226 NA
ATOM      7  C   UNL d   1     -42.601-122.052 -54.720  0.00  0.00     0.083 A 
ATOM      8  C   UNL d   1     -43.347-122.010 -55.087  0.00  0.00     0.021 C 
ATOM      9  C   UNL d   1     -41.937-121.945 -55.198  0.00  0.00     0.019 A 
ATOM     10  C   UNL d   1     -41.255-121.980 -54.881  0.00  0.00     0.005 A 
ATOM     11  C   UNL d   1     -41.123-122.115 -54.103  0.00  0.00     0.040 A 
ENDBRANCH   4   5
ENDBRANCH   1   4
BRANCH   1  12
ATOM     12  C   UNL d   1     -41.645-122.907 -51.791  0.00  0.00     0.105 A 
ATOM     13  C   UNL d   1     -42.080-123.452 -51.349  0.00  0.00     0.013 A 
ATOM     14  C   UNL d   1     -42.316-123.266 -50.582  0.00  0.00     0.001 A 
ATOM     15  C   UNL d   1     -42.748-123.807 -50.143  0.00  0.00     0.000 A 
ATOM     16  C   UNL d   1     -42.119-122.534 -50.255  0.00  0.00     0.000 A 
ATOM     17  C   UNL d   1     -42.988-123.624 -49.372  0.00  0.00     0.000 A 
ATOM     18  C   UNL d   1     -42.787-122.886 -49.045  0.00  0.00     0.000 A 
ATOM     19  C   UNL d   1     -42.356-122.345 -49.484  0.00  0.00     0.000 A 
ATOM     20  C   UNL d   1     -41.685-121.989 -50.696  0.00  0.00     0.001 A 
ATOM     21  C   UNL d   1     -41.449-122.178 -51.463  0.00  0.00     0.013 A 
ENDBRANCH   1  12
TORSDOF 3
ENDMDL
MODEL 4
REMARK VINA RESULT:      -4.5      1.310      4.674
REMARK  3 active torsions:
REMARK  status: ('A' for Active; 'I' for Inactive)
REMARK    1  A    between atoms: N_2  and  S_1 
REMARK    2  A    between atoms: C_3  and  S_1 
REMARK    3  A    between atoms: C_4  and  N_2 
ROOT
ATOM      1  S   UNL d   1     -42.287-122.650 -50.514  0.00  0.00     0.287 S 
ATOM      2  O   UNL d   1     -42.537-122.357 -51.248  0.00  0.00    -0.198 OA
ATOM      3  O   UNL d   1     -43.003-122.414 -50.179  0.00  0.00    -0.198 OA
ENDROOT
BRANCH   1   4
ATOM      4  N   UNL d   1     -41.574-122.884 -50.855  0.00  0.00    -0.139 NA
BRANCH   4   5
ATOM      5  C   UNL d   1     -41.423-122.745 -51.652  0.00  0.00     0.175 A 
ATOM      6  N   UNL d   1     -41.410-123.366 -52.190  0.00  0.00    -0.226 NA
ATOM      7  C   UNL d   1     -41.265-123.209 -52.936  0.00  0.00     0.083 A 
ATOM      8  C   UNL d   1     -41.245-123.815 -53.506  0.00  0.00     0.021 C 
ATOM      9  C   UNL d   1     -41.125-122.439 -53.197  0.00  0.00     0.019 A 
ATOM     10  C   UNL d   1     -41.139-121.879 -52.693  0.00  0.00     0.005 A 
ATOM     11  C   UNL d   1     -41.283-121.975 -51.912  0.00  0.00     0.040 A 
ENDBRANCH   4   5
ENDBRANCH   1   4
BRANCH   1  12
ATOM     12  C   UNL d   1     -42.045-122.937 -49.790  0.00  0.00     0.105 A 
ATOM     13  C   UNL d   1     -42.426-122.694 -49.099  0.00  0.00     0.013 A 
ATOM     14  C   UNL d   1     -42.179-122.986 -48.369  0.00  0.00     0.001 A 
ATOM     15  C   UNL d   1     -42.557-122.745 -47.682  0.00  0.00     0.000 A 
ATOM     16  C   UNL d   1     -41.552-123.521 -48.328  0.00  0.00     0.000 A 
ATOM     17  C   UNL d   1     -42.312-123.035 -46.946  0.00  0.00     0.000 A 
ATOM     18  C   UNL d   1     -41.680-123.575 -46.908  0.00  0.00     0.000 A 
ATOM     19  C   UNL d   1     -41.303-123.816 -47.595  0.00  0.00     0.000 A 
ATOM     20  C   UNL d   1     -41.172-123.764 -49.018  0.00  0.00     0.001 A 
ATOM     21  C   UNL d   1     -41.420-123.471 -49.748  0.00  0.00     0.013 A 
ENDBRANCH   1  12
TORSDOF 3
ENDMDL
