MODEL 1
REMARK VINA RESULT:       0.6      0.000      0.000
REMARK  6 active torsions:
REMARK  status: ('A' for Active; 'I' for Inactive)
REMARK    1  A    between atoms: N_7  and  C_1 
REMARK    2  A    between atoms: C_6  and  C_4 
REMARK    3  A    between atoms: C_22  and  C_12 
REMARK    4  A    between atoms: C_23  and  N_13 
REMARK    5  A    between atoms: O_17  and  C_22 
REMARK    6  A    between atoms: C_18  and  O_17 
ROOT
ATOM      1  C   UNL d   1     -41.806-122.901 -50.347  0.00  0.00     0.198 A 
ATOM      2  C   UNL d   1     -42.341-122.533 -50.832  0.00  0.00     0.191 A 
ATOM      3  O   UNL d   1     -41.192-123.148 -50.819  0.00  0.00    -0.268 OA
ATOM      4  C   UNL d   1     -41.360-122.929 -51.581  0.00  0.00     0.208 A 
ATOM      5  N   UNL d   1     -42.037-122.568 -51.576  0.00  0.00    -0.206 NA
ATOM      6  C   UNL d   1     -43.080-122.174 -50.629  0.00  0.00     0.124 C 
ATOM      7  N   UNL d   1     -43.813-121.819 -50.418  0.00  0.00    -0.190 NA
ENDROOT
BRANCH   1   8
ATOM      8  N   UNL d   1     -41.745-123.072 -49.538  0.00  0.00    -0.280 N 
ATOM      9  C   UNL d   1     -42.207-123.647 -49.217  0.00  0.00     0.101 A 
ATOM     10  C   UNL d   1     -42.146-123.817 -48.408  0.00  0.00     0.100 A 
ATOM     11  N   UNL d   1     -41.638-123.421 -47.954  0.00  0.00    -0.300 N 
ATOM     12  C   UNL d   1     -41.151-122.825 -48.265  0.00  0.00     0.100 A 
ATOM     13  C   UNL d   1     -41.200-122.642 -49.068  0.00  0.00     0.101 A 
BRANCH  11  14
ATOM     14  C   UNL d   1     -41.577-123.593 -47.145  0.00  0.00     0.080 C 
ATOM     15  C   UNL d   1     -42.255-123.806 -46.676  0.00  0.00     0.021 C 
ENDBRANCH  11  14
ENDBRANCH   1   8
BRANCH   4  16
ATOM     16  C   UNL d   1     -41.315-122.817 -52.375  0.00  0.00     0.141 A 
ATOM     17  O   UNL d   1     -41.316-122.397 -53.116  0.00  0.00    -0.301 OA
ATOM     18  C   UNL d   1     -41.193-122.969 -53.696  0.00  0.00     0.125 A 
ATOM     19  C   UNL d   1     -41.123-123.686 -53.329  0.00  0.00     0.029 A 
ATOM     20  C   UNL d   1     -41.197-123.585 -52.529  0.00  0.00     0.030 A 
BRANCH  18  21
ATOM     21  C   UNL d   1     -41.155-122.805 -54.488  0.00  0.00     0.147 C 
BRANCH  21  22
ATOM     22  O   UNL d   1     -41.817-122.782 -54.947  0.00  0.00    -0.303 OA
BRANCH  22  23
ATOM     23  C   UNL d   1     -41.894-122.257 -55.546  0.00  0.00     0.100 A 
ATOM     24  C   UNL d   1     -42.636-122.108 -55.885  0.00  0.00     0.023 A 
ATOM     25  C   UNL d   1     -43.296-122.514 -55.591  0.00  0.00     0.002 C 
ATOM     26  C   UNL d   1     -42.712-121.588 -56.478  0.00  0.00     0.002 A 
ATOM     27  C   UNL d   1     -42.052-121.183 -56.773  0.00  0.00     0.000 A 
ATOM     28  C   UNL d   1     -41.301-121.330 -56.434  0.00  0.00     0.002 A 
ATOM     29  C   UNL d   1     -41.225-121.849 -55.841  0.00  0.00     0.025 A 
ENDBRANCH  22  23
ENDBRANCH  21  22
ENDBRANCH  18  21
ENDBRANCH   4  16
TORSDOF 6
ENDMDL
