MODEL 1
REMARK VINA RESULT:      -8.1      0.000      0.000
REMARK  5 active torsions:
REMARK  status: ('A' for Active; 'I' for Inactive)
REMARK    1  A    between atoms: C_10  and  C_4 
REMARK    2  A    between atoms: C_19  and  N_5 
REMARK       I    between atoms: N_11  and  C_10 
REMARK    3  A    between atoms: C_22  and  C_19 
REMARK    4  A    between atoms: C_26  and  C_22 
REMARK    5  A    between atoms: O_23  and  C_26 
ROOT
ATOM      1  C   UNL d   1      52.883  33.928  53.646  0.00  0.00     0.154 A 
ATOM      2  C   UNL d   1      52.823  34.647  54.046  0.00  0.00     0.093 A 
ATOM      3  N   UNL d   1      53.452  33.393  53.853  0.00  0.00    -0.210 NA
ATOM      4  C   UNL d   1      51.823  34.281  52.852  0.00  0.00     0.122 A 
ATOM      5  N   UNL d   1      52.386  33.749  53.054  0.00  0.00    -0.286 N 
ATOM      6  C   UNL d   1      53.325  34.833  54.649  0.00  0.00     0.269 A 
ATOM      7  N   UNL d   1      53.893  34.290  54.848  0.00  0.00    -0.258 N 
ATOM      8  C   UNL d   1      53.953  33.571  54.448  0.00  0.00     0.152 A 
ATOM      9  C   UNL d   1      51.763  34.989  53.245  0.00  0.00     0.030 A 
ATOM     10  C   UNL d   1      54.391  34.482  55.450  0.00  0.00     0.084 A 
ATOM     11  O   UNL d   1      53.265  35.552  55.049  0.00  0.00    -0.266 OA
ATOM     12  C   UNL d   1      54.512  33.045  54.650  0.00  0.00     0.038 A 
ATOM     13  C   UNL d   1      54.952  33.937  55.642  0.00  0.00     0.019 A 
ATOM     14  C   UNL d   1      55.012  33.218  55.242  0.00  0.00     0.005 A 
ENDROOT
BRANCH   4  15
ATOM     15  C   UNL d   1      51.314  34.096  52.244  0.00  0.00     0.281 C 
ATOM     16  N   UNL d   1      50.513  34.328  52.302  0.00  0.00    -0.267 N 
ATOM     17  C   UNL d   1      49.988  34.139  51.679  0.00  0.00     0.110 A 
ATOM     18  C   UNL d   1      50.245  34.744  52.977  0.00  0.00     0.110 A 
ATOM     19  C   UNL d   1      49.184  34.369  51.732  0.00  0.00     0.142 A 
ATOM     20  O   UNL d   1      48.907  34.786  52.404  0.00  0.00    -0.300 OA
ATOM     21  C   UNL d   1      49.439  34.973  53.025  0.00  0.00     0.142 A 
ATOM     22  O   UNL d   1      51.589  33.687  51.587  0.00  0.00    -0.265 OA
ENDBRANCH   4  15
BRANCH   5  23
ATOM     23  C   UNL d   1      52.454  33.021  52.655  0.00  0.00     0.084 C 
BRANCH  23  24
ATOM     24  C   UNL d   1      52.273  32.310  53.047  0.00  0.00     0.045 C 
BRANCH  24  25
ATOM     25  C   UNL d   1      52.455  31.582  52.685  0.00  0.00     0.118 C 
BRANCH  25  26
ATOM     26  O   UNL d   1      52.199  30.874  53.037  0.00  0.00    -0.326 OA
ATOM     27  C   UNL d   1      52.687  30.193  53.008  0.00  0.00     0.181 C 
ENDBRANCH  25  26
ENDBRANCH  24  25
ENDBRANCH  23  24
ENDBRANCH   5  23
TORSDOF 5
ENDMDL
MODEL 2
REMARK VINA RESULT:      -7.7      1.265      3.521
REMARK  5 active torsions:
REMARK  status: ('A' for Active; 'I' for Inactive)
REMARK    1  A    between atoms: C_10  and  C_4 
REMARK    2  A    between atoms: C_19  and  N_5 
REMARK       I    between atoms: N_11  and  C_10 
REMARK    3  A    between atoms: C_22  and  C_19 
REMARK    4  A    between atoms: C_26  and  C_22 
REMARK    5  A    between atoms: O_23  and  C_26 
ROOT
ATOM      1  C   UNL d   1      53.262  33.231  53.844  0.00  0.00     0.154 A 
ATOM      2  C   UNL d   1      53.896  33.089  54.353  0.00  0.00     0.093 A 
ATOM      3  N   UNL d   1      52.933  33.967  53.800  0.00  0.00    -0.210 NA
ATOM      4  C   UNL d   1      53.296  31.922  53.437  0.00  0.00     0.122 A 
ATOM      5  N   UNL d   1      52.966  32.651  53.391  0.00  0.00    -0.286 N 
ATOM      6  C   UNL d   1      54.200  33.675  54.815  0.00  0.00     0.269 A 
ATOM      7  N   UNL d   1      53.862  34.410  54.763  0.00  0.00    -0.258 N 
ATOM      8  C   UNL d   1      53.229  34.552  54.254  0.00  0.00     0.152 A 
ATOM      9  C   UNL d   1      53.919  31.782  53.938  0.00  0.00     0.030 A 
ATOM     10  C   UNL d   1      54.170  34.991  55.228  0.00  0.00     0.084 A 
ATOM     11  O   UNL d   1      54.834  33.533  55.324  0.00  0.00    -0.266 OA
ATOM     12  C   UNL d   1      52.903  35.275  54.210  0.00  0.00     0.038 A 
ATOM     13  C   UNL d   1      53.829  35.718  55.170  0.00  0.00     0.019 A 
ATOM     14  C   UNL d   1      53.195  35.860  54.661  0.00  0.00     0.005 A 
ENDROOT
BRANCH   4  15
ATOM     15  C   UNL d   1      52.991  31.328  52.972  0.00  0.00     0.281 C 
ATOM     16  N   UNL d   1      52.951  30.552  53.280  0.00  0.00    -0.267 N 
ATOM     17  C   UNL d   1      52.639  29.939  52.804  0.00  0.00     0.110 A 
ATOM     18  C   UNL d   1      53.223  30.395  54.057  0.00  0.00     0.110 A 
ATOM     19  C   UNL d   1      52.597  29.160  53.109  0.00  0.00     0.142 A 
ATOM     20  O   UNL d   1      52.866  28.994  53.885  0.00  0.00    -0.300 OA
ATOM     21  C   UNL d   1      53.178  29.612  54.357  0.00  0.00     0.142 A 
ATOM     22  O   UNL d   1      52.728  31.494  52.212  0.00  0.00    -0.265 OA
ENDBRANCH   4  15
BRANCH   5  23
ATOM     23  C   UNL d   1      52.326  32.802  52.880  0.00  0.00     0.084 C 
BRANCH  23  24
ATOM     24  C   UNL d   1      51.582  33.007  53.189  0.00  0.00     0.045 C 
BRANCH  24  25
ATOM     25  C   UNL d   1      50.967  33.226  52.672  0.00  0.00     0.118 C 
BRANCH  25  26
ATOM     26  O   UNL d   1      50.270  33.556  52.982  0.00  0.00    -0.326 OA
ATOM     27  C   UNL d   1      49.874  34.165  52.563  0.00  0.00     0.181 C 
ENDBRANCH  25  26
ENDBRANCH  24  25
ENDBRANCH  23  24
ENDBRANCH   5  23
TORSDOF 5
ENDMDL
MODEL 3
REMARK VINA RESULT:      -6.9      1.668      3.631
REMARK  5 active torsions:
REMARK  status: ('A' for Active; 'I' for Inactive)
REMARK    1  A    between atoms: C_10  and  C_4 
REMARK    2  A    between atoms: C_19  and  N_5 
REMARK       I    between atoms: N_11  and  C_10 
REMARK    3  A    between atoms: C_22  and  C_19 
REMARK    4  A    between atoms: C_26  and  C_22 
REMARK    5  A    between atoms: O_23  and  C_26 
ROOT
ATOM      1  C   UNL d   1      53.034  31.234  53.754  0.00  0.00     0.154 A 
ATOM      2  C   UNL d   1      52.761  30.760  53.136  0.00  0.00     0.093 A 
ATOM      3  N   UNL d   1      53.322  30.898  54.429  0.00  0.00    -0.210 NA
ATOM      4  C   UNL d   1      52.733  32.356  53.024  0.00  0.00     0.122 A 
ATOM      5  N   UNL d   1      53.019  32.026  53.696  0.00  0.00    -0.286 N 
ATOM      6  C   UNL d   1      52.775  29.955  53.191  0.00  0.00     0.269 A 
ATOM      7  N   UNL d   1      53.065  29.628  53.873  0.00  0.00    -0.258 N 
ATOM      8  C   UNL d   1      53.338  30.103  54.490  0.00  0.00     0.152 A 
ATOM      9  C   UNL d   1      52.464  31.888  52.417  0.00  0.00     0.030 A 
ATOM     10  C   UNL d   1      53.076  28.824  53.921  0.00  0.00     0.084 A 
ATOM     11  O   UNL d   1      52.502  29.480  52.574  0.00  0.00    -0.266 OA
ATOM     12  C   UNL d   1      53.621  29.774  55.155  0.00  0.00     0.038 A 
ATOM     13  C   UNL d   1      53.366  28.508  54.602  0.00  0.00     0.019 A 
ATOM     14  C   UNL d   1      53.639  28.982  55.219  0.00  0.00     0.005 A 
ENDROOT
BRANCH   4  15
ATOM     15  C   UNL d   1      52.718  33.168  52.966  0.00  0.00     0.281 C 
ATOM     16  N   UNL d   1      51.980  33.559  52.960  0.00  0.00    -0.267 N 
ATOM     17  C   UNL d   1      51.961  34.393  52.901  0.00  0.00     0.110 A 
ATOM     18  C   UNL d   1      51.270  33.118  53.013  0.00  0.00     0.110 A 
ATOM     19  C   UNL d   1      51.224  34.791  52.894  0.00  0.00     0.142 A 
ATOM     20  O   UNL d   1      50.509  34.357  52.946  0.00  0.00    -0.300 OA
ATOM     21  C   UNL d   1      50.534  33.521  53.006  0.00  0.00     0.142 A 
ATOM     22  O   UNL d   1      53.420  33.589  52.915  0.00  0.00    -0.265 OA
ENDBRANCH   4  15
BRANCH   5  23
ATOM     23  C   UNL d   1      53.296  32.498  54.324  0.00  0.00     0.084 C 
BRANCH  23  24
ATOM     24  C   UNL d   1      54.113  32.587  54.451  0.00  0.00     0.045 C 
BRANCH  24  25
ATOM     25  C   UNL d   1      54.382  33.014  55.114  0.00  0.00     0.118 C 
BRANCH  25  26
ATOM     26  O   UNL d   1      55.163  33.299  55.129  0.00  0.00    -0.326 OA
ATOM     27  C   UNL d   1      55.332  34.035  55.492  0.00  0.00     0.181 C 
ENDBRANCH  25  26
ENDBRANCH  24  25
ENDBRANCH  23  24
ENDBRANCH   5  23
TORSDOF 5
ENDMDL
MODEL 4
REMARK VINA RESULT:      -6.5      1.579      4.485
REMARK  5 active torsions:
REMARK  status: ('A' for Active; 'I' for Inactive)
REMARK    1  A    between atoms: C_10  and  C_4 
REMARK    2  A    between atoms: C_19  and  N_5 
REMARK       I    between atoms: N_11  and  C_10 
REMARK    3  A    between atoms: C_22  and  C_19 
REMARK    4  A    between atoms: C_26  and  C_22 
REMARK    5  A    between atoms: O_23  and  C_26 
ROOT
ATOM      1  C   UNL d   1      52.507  32.466  53.276  0.00  0.00     0.154 A 
ATOM      2  C   UNL d   1      51.745  32.197  53.109  0.00  0.00     0.093 A 
ATOM      3  N   UNL d   1      52.653  33.257  53.345  0.00  0.00    -0.210 NA
ATOM      4  C   UNL d   1      52.958  31.171  53.303  0.00  0.00     0.122 A 
ATOM      5  N   UNL d   1      53.107  31.955  53.372  0.00  0.00    -0.286 N 
ATOM      6  C   UNL d   1      51.132  32.712  53.011  0.00  0.00     0.269 A 
ATOM      7  N   UNL d   1      51.290  33.503  53.082  0.00  0.00    -0.258 N 
ATOM      8  C   UNL d   1      52.051  33.772  53.249  0.00  0.00     0.152 A 
ATOM      9  C   UNL d   1      52.208  30.907  53.138  0.00  0.00     0.030 A 
ATOM     10  C   UNL d   1      50.674  34.012  52.983  0.00  0.00     0.084 A 
ATOM     11  O   UNL d   1      50.370  32.443  52.844  0.00  0.00    -0.266 OA
ATOM     12  C   UNL d   1      52.197  34.550  53.317  0.00  0.00     0.038 A 
ATOM     13  C   UNL d   1      50.839  34.797  53.055  0.00  0.00     0.019 A 
ATOM     14  C   UNL d   1      51.601  35.066  53.222  0.00  0.00     0.005 A 
ENDROOT
BRANCH   4  15
ATOM     15  C   UNL d   1      53.574  30.649  53.401  0.00  0.00     0.281 C 
ATOM     16  N   UNL d   1      53.455  29.966  53.868  0.00  0.00    -0.267 N 
ATOM     17  C   UNL d   1      54.087  29.427  53.971  0.00  0.00     0.110 A 
ATOM     18  C   UNL d   1      52.711  29.827  54.227  0.00  0.00     0.110 A 
ATOM     19  C   UNL d   1      53.973  28.741  54.439  0.00  0.00     0.142 A 
ATOM     20  O   UNL d   1      53.232  28.595  54.801  0.00  0.00    -0.300 OA
ATOM     21  C   UNL d   1      52.602  29.138  54.694  0.00  0.00     0.142 A 
ATOM     22  O   UNL d   1      54.299  30.796  53.045  0.00  0.00    -0.265 OA
ENDBRANCH   4  15
BRANCH   5  23
ATOM     23  C   UNL d   1      53.873  32.235  53.540  0.00  0.00     0.084 C 
BRANCH  23  24
ATOM     24  C   UNL d   1      54.045  32.561  54.286  0.00  0.00     0.045 C 
BRANCH  24  25
ATOM     25  C   UNL d   1      54.777  32.940  54.411  0.00  0.00     0.118 C 
BRANCH  25  26
ATOM     26  O   UNL d   1      54.966  33.226  55.168  0.00  0.00    -0.326 OA
ATOM     27  C   UNL d   1      55.402  33.938  55.248  0.00  0.00     0.181 C 
ENDBRANCH  25  26
ENDBRANCH  24  25
ENDBRANCH  23  24
ENDBRANCH   5  23
TORSDOF 5
ENDMDL
MODEL 5
REMARK VINA RESULT:      -6.5      1.287      3.640
REMARK  5 active torsions:
REMARK  status: ('A' for Active; 'I' for Inactive)
REMARK    1  A    between atoms: C_10  and  C_4 
REMARK    2  A    between atoms: C_19  and  N_5 
REMARK       I    between atoms: N_11  and  C_10 
REMARK    3  A    between atoms: C_22  and  C_19 
REMARK    4  A    between atoms: C_26  and  C_22 
REMARK    5  A    between atoms: O_23  and  C_26 
ROOT
ATOM      1  C   UNL d   1      53.036  32.328  53.321  0.00  0.00     0.154 A 
ATOM      2  C   UNL d   1      53.671  32.078  53.785  0.00  0.00     0.093 A 
ATOM      3  N   UNL d   1      52.556  31.786  52.962  0.00  0.00    -0.210 NA
ATOM      4  C   UNL d   1      53.364  33.634  53.577  0.00  0.00     0.122 A 
ATOM      5  N   UNL d   1      52.886  33.100  53.219  0.00  0.00    -0.286 N 
ATOM      6  C   UNL d   1      53.828  31.294  53.891  0.00  0.00     0.269 A 
ATOM      7  N   UNL d   1      53.340  30.759  53.526  0.00  0.00    -0.258 N 
ATOM      8  C   UNL d   1      52.705  31.009  53.063  0.00  0.00     0.152 A 
ATOM      9  C   UNL d   1      53.989  33.388  54.033  0.00  0.00     0.030 A 
ATOM     10  C   UNL d   1      53.502  29.978  53.636  0.00  0.00     0.084 A 
ATOM     11  O   UNL d   1      54.463  31.044  54.355  0.00  0.00    -0.266 OA
ATOM     12  C   UNL d   1      52.232  30.478  52.709  0.00  0.00     0.038 A 
ATOM     13  C   UNL d   1      53.013  29.453  53.271  0.00  0.00     0.019 A 
ATOM     14  C   UNL d   1      52.378  29.704  52.807  0.00  0.00     0.005 A 
ENDROOT
BRANCH   4  15
ATOM     15  C   UNL d   1      53.208  34.426  53.472  0.00  0.00     0.281 C 
ATOM     16  N   UNL d   1      53.178  34.925  54.142  0.00  0.00    -0.267 N 
ATOM     17  C   UNL d   1      53.018  35.739  54.037  0.00  0.00     0.110 A 
ATOM     18  C   UNL d   1      53.306  34.609  54.906  0.00  0.00     0.110 A 
ATOM     19  C   UNL d   1      52.986  36.244  54.705  0.00  0.00     0.142 A 
ATOM     20  O   UNL d   1      53.114  35.936  55.474  0.00  0.00    -0.300 OA
ATOM     21  C   UNL d   1      53.273  35.119  55.572  0.00  0.00     0.142 A 
ATOM     22  O   UNL d   1      53.084  34.725  52.717  0.00  0.00    -0.265 OA
ENDBRANCH   4  15
BRANCH   5  23
ATOM     23  C   UNL d   1      52.242  33.344  52.750  0.00  0.00     0.084 C 
BRANCH  23  24
ATOM     24  C   UNL d   1      51.469  33.320  53.054  0.00  0.00     0.045 C 
BRANCH  24  25
ATOM     25  C   UNL d   1      50.835  33.593  52.588  0.00  0.00     0.118 C 
BRANCH  25  26
ATOM     26  O   UNL d   1      50.134  33.848  52.956  0.00  0.00    -0.326 OA
ATOM     27  C   UNL d   1      49.658  34.432  52.591  0.00  0.00     0.181 C 
ENDBRANCH  25  26
ENDBRANCH  24  25
ENDBRANCH  23  24
ENDBRANCH   5  23
TORSDOF 5
ENDMDL
MODEL 6
REMARK VINA RESULT:      -5.6      1.269      2.857
REMARK  5 active torsions:
REMARK  status: ('A' for Active; 'I' for Inactive)
REMARK    1  A    between atoms: C_10  and  C_4 
REMARK    2  A    between atoms: C_19  and  N_5 
REMARK       I    between atoms: N_11  and  C_10 
REMARK    3  A    between atoms: C_22  and  C_19 
REMARK    4  A    between atoms: C_26  and  C_22 
REMARK    5  A    between atoms: O_23  and  C_26 
ROOT
ATOM      1  C   UNL d   1      52.142  33.287  53.209  0.00  0.00     0.154 A 
ATOM      2  C   UNL d   1      51.843  32.523  53.121  0.00  0.00     0.093 A 
ATOM      3  N   UNL d   1      52.934  33.405  53.315  0.00  0.00    -0.210 NA
ATOM      4  C   UNL d   1      50.875  33.797  53.087  0.00  0.00     0.122 A 
ATOM      5  N   UNL d   1      51.660  33.917  53.192  0.00  0.00    -0.286 N 
ATOM      6  C   UNL d   1      52.329  31.880  53.138  0.00  0.00     0.269 A 
ATOM      7  N   UNL d   1      53.122  32.009  53.244  0.00  0.00    -0.258 N 
ATOM      8  C   UNL d   1      53.421  32.773  53.332  0.00  0.00     0.152 A 
ATOM      9  C   UNL d   1      50.581  33.045  53.001  0.00  0.00     0.030 A 
ATOM     10  C   UNL d   1      53.602  31.363  53.260  0.00  0.00     0.084 A 
ATOM     11  O   UNL d   1      52.031  31.116  53.049  0.00  0.00    -0.266 OA
ATOM     12  C   UNL d   1      54.199  32.891  53.436  0.00  0.00     0.038 A 
ATOM     13  C   UNL d   1      54.388  31.500  53.366  0.00  0.00     0.019 A 
ATOM     14  C   UNL d   1      54.687  32.264  53.454  0.00  0.00     0.005 A 
ENDROOT
BRANCH   4  15
ATOM     15  C   UNL d   1      50.381  34.444  53.070  0.00  0.00     0.281 C 
ATOM     16  N   UNL d   1      49.856  34.535  52.427  0.00  0.00    -0.267 N 
ATOM     17  C   UNL d   1      49.347  35.199  52.406  0.00  0.00     0.110 A 
ATOM     18  C   UNL d   1      49.842  33.966  51.813  0.00  0.00     0.110 A 
ATOM     19  C   UNL d   1      48.818  35.295  51.763  0.00  0.00     0.142 A 
ATOM     20  O   UNL d   1      48.798  34.730  51.145  0.00  0.00    -0.300 OA
ATOM     21  C   UNL d   1      49.310  34.066  51.171  0.00  0.00     0.142 A 
ATOM     22  O   UNL d   1      50.404  34.995  53.678  0.00  0.00    -0.265 OA
ENDBRANCH   4  15
BRANCH   5  23
ATOM     23  C   UNL d   1      51.969  34.685  53.282  0.00  0.00     0.084 C 
BRANCH  23  24
ATOM     24  C   UNL d   1      52.292  34.924  54.010  0.00  0.00     0.045 C 
BRANCH  24  25
ATOM     25  C   UNL d   1      52.733  35.629  54.053  0.00  0.00     0.118 C 
BRANCH  25  26
ATOM     26  O   UNL d   1      52.921  35.951  54.796  0.00  0.00    -0.326 OA
ATOM     27  C   UNL d   1      53.367  36.659  54.845  0.00  0.00     0.181 C 
ENDBRANCH  25  26
ENDBRANCH  24  25
ENDBRANCH  23  24
ENDBRANCH   5  23
TORSDOF 5
ENDMDL
MODEL 7
REMARK VINA RESULT:      -5.5      9.925     10.693
REMARK  5 active torsions:
REMARK  status: ('A' for Active; 'I' for Inactive)
REMARK    1  A    between atoms: C_10  and  C_4 
REMARK    2  A    between atoms: C_19  and  N_5 
REMARK       I    between atoms: N_11  and  C_10 
REMARK    3  A    between atoms: C_22  and  C_19 
REMARK    4  A    between atoms: C_26  and  C_22 
REMARK    5  A    between atoms: O_23  and  C_26 
ROOT
ATOM      1  C   UNL d   1      44.672  29.489  59.987  0.00  0.00     0.154 A 
ATOM      2  C   UNL d   1      44.862  30.219  60.320  0.00  0.00     0.093 A 
ATOM      3  N   UNL d   1      44.489  28.861  60.462  0.00  0.00    -0.210 NA
ATOM      4  C   UNL d   1      44.848  30.014  58.733  0.00  0.00     0.122 A 
ATOM      5  N   UNL d   1      44.666  29.389  59.200  0.00  0.00    -0.286 N 
ATOM      6  C   UNL d   1      44.869  30.325  61.120  0.00  0.00     0.269 A 
ATOM      7  N   UNL d   1      44.684  29.689  61.586  0.00  0.00    -0.258 N 
ATOM      8  C   UNL d   1      44.494  28.958  61.253  0.00  0.00     0.152 A 
ATOM      9  C   UNL d   1      45.034  30.733  59.061  0.00  0.00     0.030 A 
ATOM     10  C   UNL d   1      44.694  29.801  62.383  0.00  0.00     0.084 A 
ATOM     11  O   UNL d   1      45.059  31.056  61.452  0.00  0.00    -0.266 OA
ATOM     12  C   UNL d   1      44.314  28.340  61.718  0.00  0.00     0.038 A 
ATOM     13  C   UNL d   1      44.509  29.164  62.839  0.00  0.00     0.019 A 
ATOM     14  C   UNL d   1      44.319  28.433  62.506  0.00  0.00     0.005 A 
ENDROOT
BRANCH   4  15
ATOM     15  C   UNL d   1      44.841  29.910  57.926  0.00  0.00     0.281 C 
ATOM     16  N   UNL d   1      44.665  30.564  57.436  0.00  0.00    -0.267 N 
ATOM     17  C   UNL d   1      44.657  30.460  56.605  0.00  0.00     0.110 A 
ATOM     18  C   UNL d   1      44.499  31.311  57.776  0.00  0.00     0.110 A 
ATOM     19  C   UNL d   1      44.481  31.112  56.109  0.00  0.00     0.142 A 
ATOM     20  O   UNL d   1      44.314  31.864  56.441  0.00  0.00    -0.300 OA
ATOM     21  C   UNL d   1      44.324  31.961  57.274  0.00  0.00     0.142 A 
ATOM     22  O   UNL d   1      45.005  29.173  57.604  0.00  0.00    -0.265 OA
ENDBRANCH   4  15
BRANCH   5  23
ATOM     23  C   UNL d   1      44.473  28.648  58.872  0.00  0.00     0.084 C 
BRANCH  23  24
ATOM     24  C   UNL d   1      45.041  28.041  58.846  0.00  0.00     0.045 C 
BRANCH  24  25
ATOM     25  C   UNL d   1      44.855  27.319  58.475  0.00  0.00     0.118 C 
BRANCH  25  26
ATOM     26  O   UNL d   1      45.135  26.607  58.800  0.00  0.00    -0.326 OA
ATOM     27  C   UNL d   1      45.061  25.893  58.367  0.00  0.00     0.181 C 
ENDBRANCH  25  26
ENDBRANCH  24  25
ENDBRANCH  23  24
ENDBRANCH   5  23
TORSDOF 5
ENDMDL
MODEL 8
REMARK VINA RESULT:      -5.1      1.047      3.986
REMARK  5 active torsions:
REMARK  status: ('A' for Active; 'I' for Inactive)
REMARK    1  A    between atoms: C_10  and  C_4 
REMARK    2  A    between atoms: C_19  and  N_5 
REMARK       I    between atoms: N_11  and  C_10 
REMARK    3  A    between atoms: C_22  and  C_19 
REMARK    4  A    between atoms: C_26  and  C_22 
REMARK    5  A    between atoms: O_23  and  C_26 
ROOT
ATOM      1  C   UNL d   1      51.869  33.896  53.037  0.00  0.00     0.154 A 
ATOM      2  C   UNL d   1      51.676  34.613  53.398  0.00  0.00     0.093 A 
ATOM      3  N   UNL d   1      51.328  33.516  52.573  0.00  0.00    -0.210 NA
ATOM      4  C   UNL d   1      53.118  33.949  53.599  0.00  0.00     0.122 A 
ATOM      5  N   UNL d   1      52.584  33.569  53.138  0.00  0.00    -0.286 N 
ATOM      6  C   UNL d   1      50.950  34.949  53.298  0.00  0.00     0.269 A 
ATOM      7  N   UNL d   1      50.415  34.560  52.830  0.00  0.00    -0.258 N 
ATOM      8  C   UNL d   1      50.608  33.843  52.470  0.00  0.00     0.152 A 
ATOM      9  C   UNL d   1      52.929  34.654  53.954  0.00  0.00     0.030 A 
ATOM     10  C   UNL d   1      49.692  34.901  52.735  0.00  0.00     0.084 A 
ATOM     11  O   UNL d   1      50.757  35.666  53.658  0.00  0.00    -0.266 OA
ATOM     12  C   UNL d   1      50.077  33.468  52.013  0.00  0.00     0.038 A 
ATOM     13  C   UNL d   1      49.167  34.507  52.269  0.00  0.00     0.019 A 
ATOM     14  C   UNL d   1      49.359  33.791  51.908  0.00  0.00     0.005 A 
ENDROOT
BRANCH   4  15
ATOM     15  C   UNL d   1      53.852  33.612  53.702  0.00  0.00     0.281 C 
ATOM     16  N   UNL d   1      54.241  33.706  54.436  0.00  0.00    -0.267 N 
ATOM     17  C   UNL d   1      54.995  33.361  54.545  0.00  0.00     0.110 A 
ATOM     18  C   UNL d   1      53.876  34.141  55.051  0.00  0.00     0.110 A 
ATOM     19  C   UNL d   1      55.390  33.452  55.278  0.00  0.00     0.142 A 
ATOM     20  O   UNL d   1      55.032  33.886  55.900  0.00  0.00    -0.300 OA
ATOM     21  C   UNL d   1      54.276  34.230  55.784  0.00  0.00     0.142 A 
ATOM     22  O   UNL d   1      54.199  33.188  53.091  0.00  0.00    -0.265 OA
ENDBRANCH   4  15
BRANCH   5  23
ATOM     23  C   UNL d   1      52.771  32.845  52.770  0.00  0.00     0.084 C 
BRANCH  23  24
ATOM     24  C   UNL d   1      52.473  32.131  53.076  0.00  0.00     0.045 C 
BRANCH  24  25
ATOM     25  C   UNL d   1      52.714  31.408  52.741  0.00  0.00     0.118 C 
BRANCH  25  26
ATOM     26  O   UNL d   1      52.368  30.699  53.003  0.00  0.00    -0.326 OA
ATOM     27  C   UNL d   1      52.848  30.025  53.139  0.00  0.00     0.181 C 
ENDBRANCH  25  26
ENDBRANCH  24  25
ENDBRANCH  23  24
ENDBRANCH   5  23
TORSDOF 5
ENDMDL
