MODEL 1
REMARK VINA RESULT:     -10.9      0.000      0.000
REMARK  3 active torsions:
REMARK  status: ('A' for Active; 'I' for Inactive)
REMARK    1  A    between atoms: N_2  and  S_1 
REMARK    2  A    between atoms: C_8  and  S_1 
REMARK    3  A    between atoms: C_3  and  N_2 
ROOT
ATOM      1  C   UNL d   1      53.552  33.018  53.761  0.00  0.00     0.094 A 
ATOM      2  C   UNL d   1      53.265  33.807  53.756  0.00  0.00     0.021 A 
ATOM      3  C   UNL d   1      53.442  34.233  54.395  0.00  0.00     0.040 A 
ATOM      4  C   UNL d   1      53.862  33.995  55.040  0.00  0.00     0.196 A 
ATOM      5  C   UNL d   1      53.981  32.718  54.382  0.00  0.00     0.023 A 
ATOM      6  C   UNL d   1      54.150  33.202  55.045  0.00  0.00     0.044 A 
ATOM      7  O   UNL d   1      54.031  34.511  55.726  0.00  0.00    -0.287 OA
ATOM      8  C   UNL d   1      52.857  34.069  53.150  0.00  0.00     0.002 A 
ATOM      9  C   UNL d   1      53.187  35.027  54.455  0.00  0.00     0.003 A 
ATOM     10  C   UNL d   1      52.741  35.337  53.808  0.00  0.00     0.000 A 
ATOM     11  C   UNL d   1      52.575  34.843  53.145  0.00  0.00     0.000 A 
ENDROOT
BRANCH   1  12
ATOM     12  N   UNL d   1      53.403  32.561  53.155  0.00  0.00    -0.158 NA
BRANCH  12  13
ATOM     13  S   UNL d   1      53.310  31.737  53.268  0.00  0.00     0.285 S 
ATOM     14  O   UNL d   1      52.459  31.850  53.297  0.00  0.00    -0.198 OA
ATOM     15  O   UNL d   1      54.095  31.668  53.236  0.00  0.00    -0.198 OA
BRANCH  13  16
ATOM     16  C   UNL d   1      53.207  30.908  53.382  0.00  0.00     0.105 A 
ATOM     17  C   UNL d   1      52.528  30.542  53.062  0.00  0.00     0.013 A 
ATOM     18  C   UNL d   1      52.409  29.757  53.157  0.00  0.00     0.001 A 
ATOM     19  C   UNL d   1      52.933  29.321  53.556  0.00  0.00     0.000 A 
ATOM     20  C   UNL d   1      53.621  29.685  53.882  0.00  0.00     0.001 A 
ATOM     21  C   UNL d   1      53.732  30.497  53.776  0.00  0.00     0.013 A 
ENDBRANCH  13  16
ENDBRANCH  12  13
ENDBRANCH   1  12
TORSDOF 3
ENDMDL
MODEL 2
REMARK VINA RESULT:     -10.7      1.863      3.551
REMARK  3 active torsions:
REMARK  status: ('A' for Active; 'I' for Inactive)
REMARK    1  A    between atoms: N_2  and  S_1 
REMARK    2  A    between atoms: C_8  and  S_1 
REMARK    3  A    between atoms: C_3  and  N_2 
ROOT
ATOM      1  C   UNL d   1      52.793  33.491  53.597  0.00  0.00     0.094 A 
ATOM      2  C   UNL d   1      53.435  33.416  54.132  0.00  0.00     0.021 A 
ATOM      3  C   UNL d   1      53.795  32.716  54.128  0.00  0.00     0.040 A 
ATOM      4  C   UNL d   1      53.615  32.076  53.672  0.00  0.00     0.196 A 
ATOM      5  C   UNL d   1      52.561  32.884  53.111  0.00  0.00     0.023 A 
ATOM      6  C   UNL d   1      52.970  32.151  53.135  0.00  0.00     0.044 A 
ATOM      7  O   UNL d   1      54.051  31.318  53.707  0.00  0.00    -0.287 OA
ATOM      8  C   UNL d   1      53.635  34.013  54.586  0.00  0.00     0.002 A 
ATOM      9  C   UNL d   1      54.444  32.573  54.636  0.00  0.00     0.003 A 
ATOM     10  C   UNL d   1      54.683  33.207  55.141  0.00  0.00     0.000 A 
ATOM     11  C   UNL d   1      54.266  33.940  55.111  0.00  0.00     0.000 A 
ENDROOT
BRANCH   1  12
ATOM     12  N   UNL d   1      52.407  34.162  53.566  0.00  0.00    -0.158 NA
BRANCH  12  13
ATOM     13  S   UNL d   1      51.715  34.222  53.099  0.00  0.00     0.285 S 
ATOM     14  O   UNL d   1      52.173  34.624  52.494  0.00  0.00    -0.198 OA
ATOM     15  O   UNL d   1      51.323  33.851  53.674  0.00  0.00    -0.198 OA
BRANCH  13  16
ATOM     16  C   UNL d   1      51.022  34.288  52.623  0.00  0.00     0.105 A 
ATOM     17  C   UNL d   1      50.293  34.447  52.998  0.00  0.00     0.013 A 
ATOM     18  C   UNL d   1      49.623  34.514  52.567  0.00  0.00     0.001 A 
ATOM     19  C   UNL d   1      49.645  34.429  51.782  0.00  0.00     0.000 A 
ATOM     20  C   UNL d   1      50.379  34.268  51.397  0.00  0.00     0.001 A 
ATOM     21  C   UNL d   1      51.063  34.202  51.854  0.00  0.00     0.013 A 
ENDBRANCH  13  16
ENDBRANCH  12  13
ENDBRANCH   1  12
TORSDOF 3
ENDMDL
MODEL 3
REMARK VINA RESULT:      -8.5      0.967      4.069
REMARK  3 active torsions:
REMARK  status: ('A' for Active; 'I' for Inactive)
REMARK    1  A    between atoms: N_2  and  S_1 
REMARK    2  A    between atoms: C_8  and  S_1 
REMARK    3  A    between atoms: C_3  and  N_2 
ROOT
ATOM      1  C   UNL d   1      53.082  31.773  53.366  0.00  0.00     0.094 A 
ATOM      2  C   UNL d   1      53.295  30.967  53.457  0.00  0.00     0.021 A 
ATOM      3  C   UNL d   1      52.695  30.457  53.440  0.00  0.00     0.040 A 
ATOM      4  C   UNL d   1      51.912  30.626  53.347  0.00  0.00     0.196 A 
ATOM      5  C   UNL d   1      52.311  32.009  53.268  0.00  0.00     0.023 A 
ATOM      6  C   UNL d   1      51.698  31.436  53.256  0.00  0.00     0.044 A 
ATOM      7  O   UNL d   1      51.283  30.018  53.335  0.00  0.00    -0.287 OA
ATOM      8  C   UNL d   1      54.040  30.769  53.549  0.00  0.00     0.002 A 
ATOM      9  C   UNL d   1      52.836  29.637  53.524  0.00  0.00     0.003 A 
ATOM     10  C   UNL d   1      53.639  29.394  53.626  0.00  0.00     0.000 A 
ATOM     11  C   UNL d   1      54.249  29.977  53.638  0.00  0.00     0.000 A 
ENDROOT
BRANCH   1  12
ATOM     12  N   UNL d   1      53.638  32.311  53.376  0.00  0.00    -0.158 NA
BRANCH  12  13
ATOM     13  S   UNL d   1      53.452  33.098  53.591  0.00  0.00     0.285 S 
ATOM     14  O   UNL d   1      53.594  32.894  54.413  0.00  0.00    -0.198 OA
ATOM     15  O   UNL d   1      53.329  33.253  52.827  0.00  0.00    -0.198 OA
BRANCH  13  16
ATOM     16  C   UNL d   1      53.265  33.889  53.816  0.00  0.00     0.105 A 
ATOM     17  C   UNL d   1      53.466  34.143  54.586  0.00  0.00     0.013 A 
ATOM     18  C   UNL d   1      53.300  34.888  54.823  0.00  0.00     0.001 A 
ATOM     19  C   UNL d   1      52.944  35.391  54.329  0.00  0.00     0.000 A 
ATOM     20  C   UNL d   1      52.738  35.141  53.550  0.00  0.00     0.001 A 
ATOM     21  C   UNL d   1      52.916  34.369  53.319  0.00  0.00     0.013 A 
ENDBRANCH  13  16
ENDBRANCH  12  13
ENDBRANCH   1  12
TORSDOF 3
ENDMDL
