MODEL 1
REMARK VINA RESULT:      -9.3      0.000      0.000
REMARK  4 active torsions:
REMARK  status: ('A' for Active; 'I' for Inactive)
REMARK    1  A    between atoms: C_7  and  C_4 
REMARK    2  A    between atoms: C_8  and  C_5 
REMARK    3  A    between atoms: S_9  and  C_6 
REMARK    4  A    between atoms: C_14  and  S_9 
ROOT
ATOM      1  N   UNL d   1      53.846  31.968  53.895  0.00  0.00    -0.200 NA
ATOM      2  N   UNL d   1      52.667  32.099  53.127  0.00  0.00    -0.202 NA
ATOM      3  N   UNL d   1      53.175  33.220  53.856  0.00  0.00    -0.206 NA
ATOM      4  C   UNL d   1      53.805  32.739  54.127  0.00  0.00     0.187 A 
ATOM      5  C   UNL d   1      52.616  32.889  53.359  0.00  0.00     0.166 A 
ATOM      6  C   UNL d   1      53.280  31.650  53.397  0.00  0.00     0.197 A 
ENDROOT
BRANCH   5   7
ATOM      7  C   UNL d   1      51.993  33.357  53.089  0.00  0.00     0.036 A 
ATOM      8  C   UNL d   1      52.120  33.862  52.474  0.00  0.00     0.003 A 
ATOM      9  C   UNL d   1      51.497  34.330  52.203  0.00  0.00     0.000 A 
ATOM     10  C   UNL d   1      50.755  34.278  52.562  0.00  0.00     0.000 A 
ATOM     11  C   UNL d   1      50.636  33.758  53.191  0.00  0.00     0.000 A 
ATOM     12  C   UNL d   1      51.251  33.305  53.448  0.00  0.00     0.003 A 
ENDBRANCH   5   7
BRANCH   6  13
ATOM     13  S   UNL d   1      53.327  30.836  53.154  0.00  0.00    -0.048 SA
BRANCH  13  14
ATOM     14  C   UNL d   1      53.069  30.231  53.658  0.00  0.00     0.038 C 
ATOM     15  C   UNL d   1      53.004  29.452  53.381  0.00  0.00     0.008 C 
ENDBRANCH  13  14
ENDBRANCH   6  13
BRANCH   4  16
ATOM     16  C   UNL d   1      54.384  33.039  54.628  0.00  0.00     0.151 C 
ATOM     17 CL   UNL d   1      54.268  33.005  55.428  0.00  0.00    -0.067 Cl
ATOM     18 CL   UNL d   1      55.058  33.361  54.329  0.00  0.00    -0.067 Cl
ENDBRANCH   4  16
TORSDOF 4
ENDMDL
MODEL 2
REMARK VINA RESULT:      -9.3      1.484      2.864
REMARK  4 active torsions:
REMARK  status: ('A' for Active; 'I' for Inactive)
REMARK    1  A    between atoms: C_7  and  C_4 
REMARK    2  A    between atoms: C_8  and  C_5 
REMARK    3  A    between atoms: S_9  and  C_6 
REMARK    4  A    between atoms: C_14  and  S_9 
ROOT
ATOM      1  N   UNL d   1      52.268  32.234  52.876  0.00  0.00    -0.200 NA
ATOM      2  N   UNL d   1      53.481  32.027  53.568  0.00  0.00    -0.202 NA
ATOM      3  N   UNL d   1      52.848  33.309  53.602  0.00  0.00    -0.206 NA
ATOM      4  C   UNL d   1      52.238  33.003  53.116  0.00  0.00     0.187 A 
ATOM      5  C   UNL d   1      53.460  32.812  53.819  0.00  0.00     0.166 A 
ATOM      6  C   UNL d   1      52.887  31.748  53.101  0.00  0.00     0.197 A 
ENDROOT
BRANCH   5   7
ATOM      7  C   UNL d   1      54.064  33.107  54.298  0.00  0.00     0.036 A 
ATOM      8  C   UNL d   1      54.742  33.374  53.954  0.00  0.00     0.003 A 
ATOM      9  C   UNL d   1      55.345  33.669  54.433  0.00  0.00     0.000 A 
ATOM     10  C   UNL d   1      55.251  33.688  55.253  0.00  0.00     0.000 A 
ATOM     11  C   UNL d   1      54.552  33.413  55.595  0.00  0.00     0.000 A 
ATOM     12  C   UNL d   1      53.969  33.126  55.118  0.00  0.00     0.003 A 
ENDBRANCH   5   7
BRANCH   6  13
ATOM     13  S   UNL d   1      52.914  30.937  52.845  0.00  0.00    -0.048 SA
BRANCH  13  14
ATOM     14  C   UNL d   1      52.728  30.324  53.370  0.00  0.00     0.038 C 
ATOM     15  C   UNL d   1      52.863  29.534  53.159  0.00  0.00     0.008 C 
ENDBRANCH  13  14
ENDBRANCH   6  13
BRANCH   4  16
ATOM     16  C   UNL d   1      51.607  33.473  52.878  0.00  0.00     0.151 C 
ATOM     17 CL   UNL d   1      50.903  33.416  53.272  0.00  0.00    -0.067 Cl
ATOM     18 CL   UNL d   1      51.686  33.984  52.261  0.00  0.00    -0.067 Cl
ENDBRANCH   4  16
TORSDOF 4
ENDMDL
MODEL 3
REMARK VINA RESULT:      -9.2      1.447      2.250
REMARK  4 active torsions:
REMARK  status: ('A' for Active; 'I' for Inactive)
REMARK    1  A    between atoms: C_7  and  C_4 
REMARK    2  A    between atoms: C_8  and  C_5 
REMARK    3  A    between atoms: S_9  and  C_6 
REMARK    4  A    between atoms: C_14  and  S_9 
ROOT
ATOM      1  N   UNL d   1      53.762  31.843  53.642  0.00  0.00    -0.200 NA
ATOM      2  N   UNL d   1      53.198  33.135  53.557  0.00  0.00    -0.202 NA
ATOM      3  N   UNL d   1      52.470  32.002  53.071  0.00  0.00    -0.206 NA
ATOM      4  C   UNL d   1      53.111  31.513  53.299  0.00  0.00     0.187 A 
ATOM      5  C   UNL d   1      52.527  32.808  53.205  0.00  0.00     0.166 A 
ATOM      6  C   UNL d   1      53.805  32.650  53.770  0.00  0.00     0.197 A 
ENDROOT
BRANCH   5   7
ATOM      7  C   UNL d   1      51.900  33.295  52.983  0.00  0.00     0.036 A 
ATOM      8  C   UNL d   1      51.984  33.773  52.339  0.00  0.00     0.003 A 
ATOM      9  C   UNL d   1      51.356  34.260  52.117  0.00  0.00     0.000 A 
ATOM     10  C   UNL d   1      50.654  34.255  52.552  0.00  0.00     0.000 A 
ATOM     11  C   UNL d   1      50.579  33.762  53.210  0.00  0.00     0.000 A 
ATOM     12  C   UNL d   1      51.198  33.290  53.418  0.00  0.00     0.003 A 
ENDBRANCH   5   7
BRANCH   6  13
ATOM     13  S   UNL d   1      54.494  32.993  54.132  0.00  0.00    -0.048 SA
BRANCH  13  14
ATOM     14  C   UNL d   1      54.480  33.226  54.927  0.00  0.00     0.038 C 
ATOM     15  C   UNL d   1      55.108  33.661  55.249  0.00  0.00     0.008 C 
ENDBRANCH  13  14
ENDBRANCH   6  13
BRANCH   4  16
ATOM     16  C   UNL d   1      53.089  30.700  53.180  0.00  0.00     0.151 C 
ATOM     17 CL   UNL d   1      53.145  30.207  53.819  0.00  0.00    -0.067 Cl
ATOM     18 CL   UNL d   1      53.012  30.396  52.439  0.00  0.00    -0.067 Cl
ENDBRANCH   4  16
TORSDOF 4
ENDMDL
MODEL 4
REMARK VINA RESULT:      -9.2      1.620      3.361
REMARK  4 active torsions:
REMARK  status: ('A' for Active; 'I' for Inactive)
REMARK    1  A    between atoms: C_7  and  C_4 
REMARK    2  A    between atoms: C_8  and  C_5 
REMARK    3  A    between atoms: S_9  and  C_6 
REMARK    4  A    between atoms: C_14  and  S_9 
ROOT
ATOM      1  N   UNL d   1      52.316  31.917  52.872  0.00  0.00    -0.200 NA
ATOM      2  N   UNL d   1      52.884  33.067  53.462  0.00  0.00    -0.202 NA
ATOM      3  N   UNL d   1      53.485  31.785  53.668  0.00  0.00    -0.206 NA
ATOM      4  C   UNL d   1      52.886  31.445  53.192  0.00  0.00     0.187 A 
ATOM      5  C   UNL d   1      53.472  32.593  53.794  0.00  0.00     0.166 A 
ATOM      6  C   UNL d   1      52.315  32.724  53.006  0.00  0.00     0.197 A 
ENDROOT
BRANCH   5   7
ATOM      7  C   UNL d   1      54.059  32.935  54.262  0.00  0.00     0.036 A 
ATOM      8  C   UNL d   1      54.711  33.248  53.907  0.00  0.00     0.003 A 
ATOM      9  C   UNL d   1      55.298  33.590  54.375  0.00  0.00     0.000 A 
ATOM     10  C   UNL d   1      55.214  33.607  55.197  0.00  0.00     0.000 A 
ATOM     11  C   UNL d   1      54.543  33.283  55.550  0.00  0.00     0.000 A 
ATOM     12  C   UNL d   1      53.975  32.952  55.084  0.00  0.00     0.003 A 
ENDBRANCH   5   7
BRANCH   6  13
ATOM     13  S   UNL d   1      51.711  33.217  52.667  0.00  0.00    -0.048 SA
BRANCH  13  14
ATOM     14  C   UNL d   1      51.101  33.522  53.139  0.00  0.00     0.038 C 
ATOM     15  C   UNL d   1      50.584  34.095  52.839  0.00  0.00     0.008 C 
ENDBRANCH  13  14
ENDBRANCH   6  13
BRANCH   4  16
ATOM     16  C   UNL d   1      52.868  30.637  53.044  0.00  0.00     0.151 C 
ATOM     17 CL   UNL d   1      53.232  30.350  52.381  0.00  0.00    -0.067 Cl
ATOM     18 CL   UNL d   1      52.494  30.135  53.549  0.00  0.00    -0.067 Cl
ENDBRANCH   4  16
TORSDOF 4
ENDMDL
MODEL 5
REMARK VINA RESULT:      -8.4      0.955      3.037
REMARK  4 active torsions:
REMARK  status: ('A' for Active; 'I' for Inactive)
REMARK    1  A    between atoms: C_7  and  C_4 
REMARK    2  A    between atoms: C_8  and  C_5 
REMARK    3  A    between atoms: S_9  and  C_6 
REMARK    4  A    between atoms: C_14  and  S_9 
ROOT
ATOM      1  N   UNL d   1      53.430  33.496  54.084  0.00  0.00    -0.200 NA
ATOM      2  N   UNL d   1      52.668  32.423  53.573  0.00  0.00    -0.202 NA
ATOM      3  N   UNL d   1      53.981  32.186  54.089  0.00  0.00    -0.206 NA
ATOM      4  C   UNL d   1      54.044  33.004  54.259  0.00  0.00     0.187 A 
ATOM      5  C   UNL d   1      53.290  31.911  53.748  0.00  0.00     0.166 A 
ATOM      6  C   UNL d   1      52.745  33.206  53.742  0.00  0.00     0.197 A 
ENDROOT
BRANCH   5   7
ATOM      7  C   UNL d   1      53.222  31.106  53.578  0.00  0.00     0.036 A 
ATOM      8  C   UNL d   1      53.058  30.877  52.823  0.00  0.00     0.003 A 
ATOM      9  C   UNL d   1      52.989  30.073  52.653  0.00  0.00     0.000 A 
ATOM     10  C   UNL d   1      53.088  29.514  53.253  0.00  0.00     0.000 A 
ATOM     11  C   UNL d   1      53.255  29.759  54.022  0.00  0.00     0.000 A 
ATOM     12  C   UNL d   1      53.320  30.547  54.178  0.00  0.00     0.003 A 
ENDBRANCH   5   7
BRANCH   6  13
ATOM     13  S   UNL d   1      52.099  33.729  53.559  0.00  0.00    -0.048 SA
BRANCH  13  14
ATOM     14  C   UNL d   1      52.024  34.056  52.801  0.00  0.00     0.038 C 
ATOM     15  C   UNL d   1      51.300  34.369  52.548  0.00  0.00     0.008 C 
ENDBRANCH  13  14
ENDBRANCH   6  13
BRANCH   4  16
ATOM     16  C   UNL d   1      54.723  33.316  54.602  0.00  0.00     0.151 C 
ATOM     17 CL   UNL d   1      54.735  33.448  55.400  0.00  0.00    -0.067 Cl
ATOM     18 CL   UNL d   1      55.367  33.489  54.152  0.00  0.00    -0.067 Cl
ENDBRANCH   4  16
TORSDOF 4
ENDMDL
MODEL 6
REMARK VINA RESULT:      -8.2      1.561      3.404
REMARK  4 active torsions:
REMARK  status: ('A' for Active; 'I' for Inactive)
REMARK    1  A    between atoms: C_7  and  C_4 
REMARK    2  A    between atoms: C_8  and  C_5 
REMARK    3  A    between atoms: S_9  and  C_6 
REMARK    4  A    between atoms: C_14  and  S_9 
ROOT
ATOM      1  N   UNL d   1      53.166  33.406  53.552  0.00  0.00    -0.200 NA
ATOM      2  N   UNL d   1      53.794  32.161  53.771  0.00  0.00    -0.202 NA
ATOM      3  N   UNL d   1      52.483  32.211  53.200  0.00  0.00    -0.206 NA
ATOM      4  C   UNL d   1      52.511  33.047  53.250  0.00  0.00     0.187 A 
ATOM      5  C   UNL d   1      53.129  31.783  53.463  0.00  0.00     0.166 A 
ATOM      6  C   UNL d   1      53.804  32.966  53.811  0.00  0.00     0.197 A 
ENDROOT
BRANCH   5   7
ATOM      7  C   UNL d   1      53.109  30.959  53.417  0.00  0.00     0.036 A 
ATOM      8  C   UNL d   1      52.977  30.610  52.703  0.00  0.00     0.003 A 
ATOM      9  C   UNL d   1      52.956  29.787  52.657  0.00  0.00     0.000 A 
ATOM     10  C   UNL d   1      53.070  29.331  53.336  0.00  0.00     0.000 A 
ATOM     11  C   UNL d   1      53.204  29.699  54.062  0.00  0.00     0.000 A 
ATOM     12  C   UNL d   1      53.223  30.504  54.096  0.00  0.00     0.003 A 
ENDBRANCH   5   7
BRANCH   6  13
ATOM     13  S   UNL d   1      54.494  33.350  54.130  0.00  0.00    -0.048 SA
BRANCH  13  14
ATOM     14  C   UNL d   1      54.534  33.541  54.936  0.00  0.00     0.038 C 
ATOM     15  C   UNL d   1      55.230  33.855  55.258  0.00  0.00     0.008 C 
ENDBRANCH  13  14
ENDBRANCH   6  13
BRANCH   4  16
ATOM     16  C   UNL d   1      51.880  33.509  52.995  0.00  0.00     0.151 C 
ATOM     17 CL   UNL d   1      51.189  33.498  53.417  0.00  0.00    -0.067 Cl
ATOM     18 CL   UNL d   1      51.946  33.967  52.337  0.00  0.00    -0.067 Cl
ENDBRANCH   4  16
TORSDOF 4
ENDMDL
