MODEL 1
REMARK VINA RESULT:     101.8      0.000      0.000
REMARK  4 active torsions:
REMARK  status: ('A' for Active; 'I' for Inactive)
REMARK    1  A    between atoms: N_7  and  C_1 
REMARK    2  A    between atoms: C_11  and  C_2 
REMARK       I    between atoms: C_8  and  N_7 
REMARK    3  A    between atoms: C_13  and  C_8 
REMARK    4  A    between atoms: N_9  and  C_13 
ROOT
ATOM      1  C   UNL d   1     -55.958-102.766 -40.036  0.00  0.00     0.142 A 
ATOM      2  C   UNL d   1     -56.359-102.760 -39.323  0.00  0.00     0.024 A 
ATOM      3  C   UNL d   1     -55.134-102.810 -40.037  0.00  0.00     0.297 A 
ATOM      4  C   UNL d   1     -55.958-102.797 -38.608  0.00  0.00     0.020 A 
ATOM      5  N   UNL d   1     -54.711-102.849 -39.325  0.00  0.00    -0.207 NA
ATOM      6  C   UNL d   1     -55.134-102.841 -38.609  0.00  0.00     0.085 A 
ATOM      7  C   UNL d   1     -56.359-102.791 -37.900  0.00  0.00     0.008 A 
ATOM      8  O   UNL d   1     -54.711-102.817 -40.756  0.00  0.00    -0.264 OA
ATOM      9  C   UNL d   1     -54.712-102.880 -37.902  0.00  0.00     0.020 A 
ATOM     10  C   UNL d   1     -55.958-102.828 -37.188  0.00  0.00     0.035 A 
ATOM     11  C   UNL d   1     -55.134-102.873 -37.189  0.00  0.00     0.008 A 
ATOM     12 BR   UNL d   1     -56.359-102.823 -36.451  0.00  0.00    -0.049 Br
ENDROOT
BRANCH   1  13
ATOM     13  N   UNL d   1     -56.359-102.728 -40.768  0.00  0.00    -0.202 NA
ATOM     14  C   UNL d   1     -55.974-102.363 -41.423  0.00  0.00     0.297 C 
ATOM     15  O   UNL d   1     -55.371-102.122 -41.329  0.00  0.00    -0.264 OA
BRANCH  14  16
ATOM     16  C   UNL d   1     -56.368-102.326 -42.141  0.00  0.00     0.144 C 
BRANCH  16  17
ATOM     17  N   UNL d   1     -55.978-101.981 -42.796  0.00  0.00    -0.295 N 
ATOM     18  C   UNL d   1     -56.081-101.184 -42.956  0.00  0.00     0.107 A 
ATOM     19  C   UNL d   1     -55.688-100.837 -43.616  0.00  0.00     0.142 A 
ATOM     20  O   UNL d   1     -55.204-101.297 -44.096  0.00  0.00    -0.300 OA
ATOM     21  C   UNL d   1     -55.105-102.124 -43.918  0.00  0.00     0.142 A 
ATOM     22  C   UNL d   1     -55.494-102.450 -43.273  0.00  0.00     0.107 A 
ENDBRANCH  16  17
ENDBRANCH  14  16
ENDBRANCH   1  13
BRANCH   2  23
ATOM     23  C   UNL d   1     -57.201-102.714 -39.322  0.00  0.00     0.002 A 
ATOM     24  C   UNL d   1     -57.598-102.505 -38.635  0.00  0.00     0.000 A 
ATOM     25  C   UNL d   1     -58.418-102.461 -38.634  0.00  0.00     0.000 A 
ATOM     26  C   UNL d   1     -58.863-102.624 -39.321  0.00  0.00     0.000 A 
ATOM     27  C   UNL d   1     -58.440-102.836 -40.012  0.00  0.00     0.000 A 
ATOM     28  C   UNL d   1     -57.620-102.880 -40.013  0.00  0.00     0.000 A 
ENDBRANCH   2  23
TORSDOF 4
ENDMDL
