MODEL 1
REMARK VINA RESULT:      15.3      0.000      0.000
REMARK  4 active torsions:
REMARK  status: ('A' for Active; 'I' for Inactive)
REMARK    1  A    between atoms: N_3  and  S_1 
REMARK    2  A    between atoms: C_4  and  S_1 
REMARK    3  A    between atoms: C_2  and  C_5 
REMARK    4  A    between atoms: C_8  and  N_3 
ROOT
ATOM      1  N   UNL d   1      24.327  12.115  -2.171  0.00  0.00    -0.158 NA
ENDROOT
BRANCH   1   2
ATOM      2  S   UNL d   1      24.408  12.467  -2.912  0.00  0.00     0.285 S 
ATOM      3  O   UNL d   1      24.767  11.779  -3.214  0.00  0.00    -0.198 OA
ATOM      4  O   UNL d   1      24.053  13.148  -2.613  0.00  0.00    -0.198 OA
BRANCH   2   5
ATOM      5  C   UNL d   1      24.493  12.814  -3.656  0.00  0.00     0.105 A 
ATOM      6  C   UNL d   1      24.686  13.608  -3.724  0.00  0.00     0.013 A 
ATOM      7  C   UNL d   1      24.768  13.944  -4.463  0.00  0.00     0.001 A 
ATOM      8  C   UNL d   1      24.658  13.491  -5.149  0.00  0.00     0.000 A 
ATOM      9  C   UNL d   1      24.464  12.695  -5.077  0.00  0.00     0.001 A 
ATOM     10  C   UNL d   1      24.741  13.830  -5.896  0.00  0.00     0.000 C 
ATOM     11  C   UNL d   1      24.380  12.349  -4.334  0.00  0.00     0.013 A 
ENDBRANCH   2   5
ENDBRANCH   1   2
BRANCH   1  12
ATOM     12  C   UNL d   1      24.160  12.505  -1.457  0.00  0.00     0.094 A 
ATOM     13  C   UNL d   1      23.378  12.541  -1.182  0.00  0.00     0.024 A 
ATOM     14  C   UNL d   1      23.214  12.931  -0.469  0.00  0.00     0.073 A 
ATOM     15  C   UNL d   1      23.824  13.284  -0.031  0.00  0.00     0.004 A 
ATOM     16  C   UNL d   1      24.602  13.245  -0.312  0.00  0.00     0.002 A 
ATOM     17  C   UNL d   1      24.767  12.855  -1.025  0.00  0.00     0.020 A 
BRANCH  14  18
ATOM     18  C   UNL d   1      22.439  12.970  -0.191  0.00  0.00     0.419 C 
ATOM     19  F   UNL d   1      22.076  13.703  -0.079  0.00  0.00    -0.166 F 
ATOM     20  F   UNL d   1      22.024  12.282  -0.022  0.00  0.00    -0.166 F 
ATOM     21  F   UNL d   1      22.666  13.757  -0.293  0.00  0.00    -0.166 F 
ENDBRANCH  14  18
ENDBRANCH   1  12
TORSDOF 4
ENDMDL
