MODEL 1
REMARK VINA RESULT:      -3.3      0.000      0.000
REMARK  3 active torsions:
REMARK  status: ('A' for Active; 'I' for Inactive)
REMARK    1  A    between atoms: N_6  and  C_2 
REMARK    2  A    between atoms: C_8  and  C_3 
REMARK       I    between atoms: C_7  and  N_6 
REMARK    3  A    between atoms: C_10  and  C_7 
ROOT
ATOM      1  N   UNL d   1      33.082  20.822 -22.208  0.00  0.00    -0.200 NA
ATOM      2  C   UNL d   1      33.142  21.240 -21.504  0.00  0.00     0.216 A 
ATOM      3  C   UNL d   1      33.142  20.012 -22.031  0.00  0.00     0.172 A 
ATOM      4  N   UNL d   1      33.241  19.938 -21.216  0.00  0.00    -0.187 NA
ATOM      5  S   UNL d   1      33.241  20.698 -20.886  0.00  0.00     0.054 SA
ENDROOT
BRANCH   3   6
ATOM      6  C   UNL d   1      33.110  19.396 -22.575  0.00  0.00     0.036 A 
ATOM      7  C   UNL d   1      32.956  19.552 -23.366  0.00  0.00     0.003 A 
ATOM      8  C   UNL d   1      32.925  18.928 -23.907  0.00  0.00     0.000 A 
ATOM      9  C   UNL d   1      33.049  18.153 -23.652  0.00  0.00     0.000 A 
ATOM     10  C   UNL d   1      33.204  17.997 -22.858  0.00  0.00     0.000 A 
ATOM     11  C   UNL d   1      33.234  18.626 -22.320  0.00  0.00     0.003 A 
ENDBRANCH   3   6
BRANCH   2  12
ATOM     12  N   UNL d   1      33.110  22.059 -21.427  0.00  0.00    -0.181 NA
ATOM     13  C   UNL d   1      32.417  22.417 -21.161  0.00  0.00     0.281 C 
ATOM     14  O   UNL d   1      31.760  21.960 -20.973  0.00  0.00    -0.265 OA
BRANCH  13  15
ATOM     15  C   UNL d   1      32.386  23.230 -21.084  0.00  0.00     0.063 C 
ATOM     16  C   UNL d   1      31.726  23.652 -21.349  0.00  0.00     0.005 C 
ENDBRANCH  13  15
ENDBRANCH   2  12
TORSDOF 3
ENDMDL
MODEL 2
REMARK VINA RESULT:      -3.2      2.454      4.818
REMARK  3 active torsions:
REMARK  status: ('A' for Active; 'I' for Inactive)
REMARK    1  A    between atoms: N_6  and  C_2 
REMARK    2  A    between atoms: C_8  and  C_3 
REMARK       I    between atoms: C_7  and  N_6 
REMARK    3  A    between atoms: C_10  and  C_7 
ROOT
ATOM      1  N   UNL d   1      33.102  22.310 -19.725  0.00  0.00    -0.200 NA
ATOM      2  C   UNL d   1      33.073  22.498 -20.523  0.00  0.00     0.216 A 
ATOM      3  C   UNL d   1      32.893  22.989 -19.293  0.00  0.00     0.172 A 
ATOM      4  N   UNL d   1      32.736  23.593 -19.833  0.00  0.00    -0.187 NA
ATOM      5  S   UNL d   1      32.847  23.291 -20.597  0.00  0.00     0.054 SA
ENDROOT
BRANCH   3   6
ATOM      6  C   UNL d   1      32.851  23.046 -18.474  0.00  0.00     0.036 A 
ATOM      7  C   UNL d   1      32.424  23.652 -18.124  0.00  0.00     0.003 A 
ATOM      8  C   UNL d   1      32.387  23.702 -17.299  0.00  0.00     0.000 A 
ATOM      9  C   UNL d   1      32.778  23.145 -16.833  0.00  0.00     0.000 A 
ATOM     10  C   UNL d   1      33.207  22.536 -17.185  0.00  0.00     0.000 A 
ATOM     11  C   UNL d   1      33.241  22.491 -18.011  0.00  0.00     0.003 A 
ENDBRANCH   3   6
BRANCH   2  12
ATOM     12  N   UNL d   1      33.240  21.985 -21.145  0.00  0.00    -0.181 NA
ATOM     13  C   UNL d   1      32.689  21.410 -21.359  0.00  0.00     0.281 C 
ATOM     14  O   UNL d   1      31.976  21.349 -20.954  0.00  0.00    -0.265 OA
BRANCH  13  15
ATOM     15  C   UNL d   1      32.855  20.901 -21.976  0.00  0.00     0.063 C 
ATOM     16  C   UNL d   1      32.807  20.083 -21.870  0.00  0.00     0.005 C 
ENDBRANCH  13  15
ENDBRANCH   2  12
TORSDOF 3
ENDMDL
MODEL 3
REMARK VINA RESULT:      -3.1      3.876      4.856
REMARK  3 active torsions:
REMARK  status: ('A' for Active; 'I' for Inactive)
REMARK    1  A    between atoms: N_6  and  C_2 
REMARK    2  A    between atoms: C_8  and  C_3 
REMARK       I    between atoms: C_7  and  N_6 
REMARK    3  A    between atoms: C_10  and  C_7 
ROOT
ATOM      1  N   UNL d   1      30.954  17.339 -23.917  0.00  0.00    -0.200 NA
ATOM      2  C   UNL d   1      31.737  17.421 -24.149  0.00  0.00     0.216 A 
ATOM      3  C   UNL d   1      30.749  16.536 -23.986  0.00  0.00     0.172 A 
ATOM      4  N   UNL d   1      31.412  16.130 -24.263  0.00  0.00    -0.187 NA
ATOM      5  S   UNL d   1      32.026  16.676 -24.364  0.00  0.00     0.054 SA
ENDROOT
BRANCH   3   6
ATOM      6  C   UNL d   1      30.016  16.209 -23.810  0.00  0.00     0.036 A 
ATOM      7  C   UNL d   1      29.387  16.303 -24.329  0.00  0.00     0.003 A 
ATOM      8  C   UNL d   1      28.653  15.971 -24.144  0.00  0.00     0.000 A 
ATOM      9  C   UNL d   1      28.554  15.548 -23.443  0.00  0.00     0.000 A 
ATOM     10  C   UNL d   1      29.186  15.453 -22.922  0.00  0.00     0.000 A 
ATOM     11  C   UNL d   1      29.919  15.788 -23.112  0.00  0.00     0.003 A 
ENDBRANCH   3   6
BRANCH   2  12
ATOM     12  N   UNL d   1      32.162  18.127 -24.165  0.00  0.00    -0.181 NA
ATOM     13  C   UNL d   1      32.626  18.338 -23.518  0.00  0.00     0.281 C 
ATOM     14  O   UNL d   1      32.666  17.848 -22.858  0.00  0.00    -0.265 OA
BRANCH  13  15
ATOM     15  C   UNL d   1      33.048  19.037 -23.533  0.00  0.00     0.063 C 
ATOM     16  C   UNL d   1      33.241  19.428 -22.831  0.00  0.00     0.005 C 
ENDBRANCH  13  15
ENDBRANCH   2  12
TORSDOF 3
ENDMDL
MODEL 4
REMARK VINA RESULT:      -3.1      2.494      3.473
REMARK  3 active torsions:
REMARK  status: ('A' for Active; 'I' for Inactive)
REMARK    1  A    between atoms: N_6  and  C_2 
REMARK    2  A    between atoms: C_8  and  C_3 
REMARK       I    between atoms: C_7  and  N_6 
REMARK    3  A    between atoms: C_10  and  C_7 
ROOT
ATOM      1  N   UNL d   1      33.051  22.727 -19.607  0.00  0.00    -0.200 NA
ATOM      2  C   UNL d   1      32.762  23.393 -19.227  0.00  0.00     0.216 A 
ATOM      3  C   UNL d   1      32.608  22.616 -20.302  0.00  0.00     0.172 A 
ATOM      4  N   UNL d   1      32.047  23.219 -20.342  0.00  0.00    -0.187 NA
ATOM      5  S   UNL d   1      32.140  23.702 -19.676  0.00  0.00     0.054 SA
ENDROOT
BRANCH   3   6
ATOM      6  C   UNL d   1      32.714  22.012 -20.849  0.00  0.00     0.036 A 
ATOM      7  C   UNL d   1      33.105  22.158 -21.555  0.00  0.00     0.003 A 
ATOM      8  C   UNL d   1      33.207  21.545 -22.101  0.00  0.00     0.000 A 
ATOM      9  C   UNL d   1      32.918  20.791 -21.935  0.00  0.00     0.000 A 
ATOM     10  C   UNL d   1      32.524  20.644 -21.225  0.00  0.00     0.000 A 
ATOM     11  C   UNL d   1      32.425  21.261 -20.682  0.00  0.00     0.003 A 
ENDBRANCH   3   6
BRANCH   2  12
ATOM     12  N   UNL d   1      33.043  23.702 -18.516  0.00  0.00    -0.181 NA
ATOM     13  C   UNL d   1      32.816  23.357 -17.803  0.00  0.00     0.281 C 
ATOM     14  O   UNL d   1      32.311  22.708 -17.799  0.00  0.00    -0.265 OA
BRANCH  13  15
ATOM     15  C   UNL d   1      33.095  23.664 -17.099  0.00  0.00     0.063 C 
ATOM     16  C   UNL d   1      32.971  23.261 -16.387  0.00  0.00     0.005 C 
ENDBRANCH  13  15
ENDBRANCH   2  12
TORSDOF 3
ENDMDL
MODEL 5
REMARK VINA RESULT:      -3.0      3.853      5.300
REMARK  3 active torsions:
REMARK  status: ('A' for Active; 'I' for Inactive)
REMARK    1  A    between atoms: N_6  and  C_2 
REMARK    2  A    between atoms: C_8  and  C_3 
REMARK       I    between atoms: C_7  and  N_6 
REMARK    3  A    between atoms: C_10  and  C_7 
ROOT
ATOM      1  N   UNL d   1      31.293  16.924 -23.355  0.00  0.00    -0.200 NA
ATOM      2  C   UNL d   1      31.072  16.151 -23.515  0.00  0.00     0.216 A 
ATOM      3  C   UNL d   1      31.995  17.082 -23.773  0.00  0.00     0.172 A 
ATOM      4  N   UNL d   1      32.199  16.399 -24.189  0.00  0.00    -0.187 NA
ATOM      5  S   UNL d   1      31.628  15.820 -24.031  0.00  0.00     0.054 SA
ENDROOT
BRANCH   3   6
ATOM      6  C   UNL d   1      32.408  17.792 -23.770  0.00  0.00     0.036 A 
ATOM      7  C   UNL d   1      32.472  18.235 -24.458  0.00  0.00     0.003 A 
ATOM      8  C   UNL d   1      32.889  18.949 -24.447  0.00  0.00     0.000 A 
ATOM      9  C   UNL d   1      33.239  19.213 -23.748  0.00  0.00     0.000 A 
ATOM     10  C   UNL d   1      33.175  18.767 -23.057  0.00  0.00     0.000 A 
ATOM     11  C   UNL d   1      32.756  18.054 -23.074  0.00  0.00     0.003 A 
ENDBRANCH   3   6
BRANCH   2  12
ATOM     12  N   UNL d   1      30.407  15.768 -23.213  0.00  0.00    -0.181 NA
ATOM     13  C   UNL d   1      29.686  15.832 -23.607  0.00  0.00     0.281 C 
ATOM     14  O   UNL d   1      29.628  16.275 -24.298  0.00  0.00    -0.265 OA
BRANCH  13  15
ATOM     15  C   UNL d   1      29.027  15.452 -23.308  0.00  0.00     0.063 C 
ATOM     16  C   UNL d   1      28.273  15.626 -23.600  0.00  0.00     0.005 C 
ENDBRANCH  13  15
ENDBRANCH   2  12
TORSDOF 3
ENDMDL
MODEL 6
REMARK VINA RESULT:      -3.0      1.468      2.199
REMARK  3 active torsions:
REMARK  status: ('A' for Active; 'I' for Inactive)
REMARK    1  A    between atoms: N_6  and  C_2 
REMARK    2  A    between atoms: C_8  and  C_3 
REMARK       I    between atoms: C_7  and  N_6 
REMARK    3  A    between atoms: C_10  and  C_7 
ROOT
ATOM      1  N   UNL d   1      32.803  18.782 -22.465  0.00  0.00    -0.200 NA
ATOM      2  C   UNL d   1      33.100  19.546 -22.429  0.00  0.00     0.216 A 
ATOM      3  C   UNL d   1      32.749  18.565 -23.266  0.00  0.00     0.172 A 
ATOM      4  N   UNL d   1      33.016  19.203 -23.717  0.00  0.00    -0.187 NA
ATOM      5  S   UNL d   1      33.234  19.812 -23.201  0.00  0.00     0.054 SA
ENDROOT
BRANCH   3   6
ATOM      6  C   UNL d   1      32.479  17.844 -23.553  0.00  0.00     0.036 A 
ATOM      7  C   UNL d   1      32.912  17.160 -23.422  0.00  0.00     0.003 A 
ATOM      8  C   UNL d   1      32.633  16.438 -23.714  0.00  0.00     0.000 A 
ATOM      9  C   UNL d   1      31.923  16.408 -24.134  0.00  0.00     0.000 A 
ATOM     10  C   UNL d   1      31.488  17.096 -24.265  0.00  0.00     0.000 A 
ATOM     11  C   UNL d   1      31.772  17.816 -23.971  0.00  0.00     0.003 A 
ENDBRANCH   3   6
BRANCH   2  12
ATOM     12  N   UNL d   1      33.241  19.975 -21.740  0.00  0.00    -0.181 NA
ATOM     13  C   UNL d   1      32.735  20.592 -21.532  0.00  0.00     0.281 C 
ATOM     14  O   UNL d   1      32.092  20.779 -22.010  0.00  0.00    -0.265 OA
BRANCH  13  15
ATOM     15  C   UNL d   1      32.875  21.018 -20.849  0.00  0.00     0.063 C 
ATOM     16  C   UNL d   1      32.344  21.600 -20.601  0.00  0.00     0.005 C 
ENDBRANCH  13  15
ENDBRANCH   2  12
TORSDOF 3
ENDMDL
MODEL 7
REMARK VINA RESULT:      -2.8      2.044      4.157
REMARK  3 active torsions:
REMARK  status: ('A' for Active; 'I' for Inactive)
REMARK    1  A    between atoms: N_6  and  C_2 
REMARK    2  A    between atoms: C_8  and  C_3 
REMARK       I    between atoms: C_7  and  N_6 
REMARK    3  A    between atoms: C_10  and  C_7 
ROOT
ATOM      1  N   UNL d   1      32.980  18.788 -22.462  0.00  0.00    -0.200 NA
ATOM      2  C   UNL d   1      33.033  18.416 -23.191  0.00  0.00     0.216 A 
ATOM      3  C   UNL d   1      33.109  19.601 -22.579  0.00  0.00     0.172 A 
ATOM      4  N   UNL d   1      33.241  19.721 -23.385  0.00  0.00    -0.187 NA
ATOM      5  S   UNL d   1      33.195  18.988 -23.766  0.00  0.00     0.054 SA
ENDROOT
BRANCH   3   6
ATOM      6  C   UNL d   1      33.105  20.179 -21.995  0.00  0.00     0.036 A 
ATOM      7  C   UNL d   1      32.971  20.965 -22.193  0.00  0.00     0.003 A 
ATOM      8  C   UNL d   1      32.968  21.540 -21.599  0.00  0.00     0.000 A 
ATOM      9  C   UNL d   1      33.100  21.325 -20.813  0.00  0.00     0.000 A 
ATOM     10  C   UNL d   1      33.235  20.536 -20.615  0.00  0.00     0.000 A 
ATOM     11  C   UNL d   1      33.236  19.964 -21.214  0.00  0.00     0.003 A 
ENDBRANCH   3   6
BRANCH   2  12
ATOM     12  N   UNL d   1      32.941  17.608 -23.326  0.00  0.00    -0.181 NA
ATOM     13  C   UNL d   1      32.245  17.328 -23.665  0.00  0.00     0.281 C 
ATOM     14  O   UNL d   1      31.643  17.851 -23.867  0.00  0.00    -0.265 OA
BRANCH  13  15
ATOM     15  C   UNL d   1      32.153  16.527 -23.799  0.00  0.00     0.063 C 
ATOM     16  C   UNL d   1      31.435  16.227 -24.078  0.00  0.00     0.005 C 
ENDBRANCH  13  15
ENDBRANCH   2  12
TORSDOF 3
ENDMDL
MODEL 8
REMARK VINA RESULT:      -2.5      1.133      3.971
REMARK  3 active torsions:
REMARK  status: ('A' for Active; 'I' for Inactive)
REMARK    1  A    between atoms: N_6  and  C_2 
REMARK    2  A    between atoms: C_8  and  C_3 
REMARK       I    between atoms: C_7  and  N_6 
REMARK    3  A    between atoms: C_10  and  C_7 
ROOT
ATOM      1  N   UNL d   1      32.973  21.123 -22.079  0.00  0.00    -0.200 NA
ATOM      2  C   UNL d   1      33.156  20.329 -22.177  0.00  0.00     0.216 A 
ATOM      3  C   UNL d   1      32.943  21.281 -21.263  0.00  0.00     0.172 A 
ATOM      4  N   UNL d   1      33.108  20.578 -20.865  0.00  0.00    -0.187 NA
ATOM      5  S   UNL d   1      33.241  19.987 -21.429  0.00  0.00     0.054 SA
ENDROOT
BRANCH   3   6
ATOM      6  C   UNL d   1      32.777  22.009 -20.919  0.00  0.00     0.036 A 
ATOM      7  C   UNL d   1      33.023  22.169 -20.153  0.00  0.00     0.003 A 
ATOM      8  C   UNL d   1      32.852  22.903 -19.814  0.00  0.00     0.000 A 
ATOM      9  C   UNL d   1      32.437  23.471 -20.245  0.00  0.00     0.000 A 
ATOM     10  C   UNL d   1      32.190  23.311 -21.015  0.00  0.00     0.000 A 
ATOM     11  C   UNL d   1      32.364  22.574 -21.349  0.00  0.00     0.003 A 
ENDBRANCH   3   6
BRANCH   2  12
ATOM     12  N   UNL d   1      33.241  19.940 -22.898  0.00  0.00    -0.181 NA
ATOM     13  C   UNL d   1      32.917  19.189 -22.996  0.00  0.00     0.281 C 
ATOM     14  O   UNL d   1      32.512  18.828 -22.378  0.00  0.00    -0.265 OA
BRANCH  13  15
ATOM     15  C   UNL d   1      33.001  18.802 -23.711  0.00  0.00     0.063 C 
ATOM     16  C   UNL d   1      32.565  18.119 -23.873  0.00  0.00     0.005 C 
ENDBRANCH  13  15
ENDBRANCH   2  12
TORSDOF 3
ENDMDL
MODEL 9
REMARK VINA RESULT:      -2.4      4.497      5.692
REMARK  3 active torsions:
REMARK  status: ('A' for Active; 'I' for Inactive)
REMARK    1  A    between atoms: N_6  and  C_2 
REMARK    2  A    between atoms: C_8  and  C_3 
REMARK       I    between atoms: C_7  and  N_6 
REMARK    3  A    between atoms: C_10  and  C_7 
ROOT
ATOM      1  N   UNL d   1      30.719  16.473 -23.521  0.00  0.00    -0.200 NA
ATOM      2  C   UNL d   1      31.462  16.347 -23.844  0.00  0.00     0.216 A 
ATOM      3  C   UNL d   1      30.180  15.977 -23.916  0.00  0.00     0.172 A 
ATOM      4  N   UNL d   1      30.601  15.549 -24.482  0.00  0.00    -0.187 NA
ATOM      5  S   UNL d   1      31.396  15.776 -24.439  0.00  0.00     0.054 SA
ENDROOT
BRANCH   3   6
ATOM      6  C   UNL d   1      29.374  15.925 -23.767  0.00  0.00     0.036 A 
ATOM      7  C   UNL d   1      29.100  15.504 -23.118  0.00  0.00     0.003 A 
ATOM      8  C   UNL d   1      28.287  15.457 -22.975  0.00  0.00     0.000 A 
ATOM      9  C   UNL d   1      27.755  15.832 -23.482  0.00  0.00     0.000 A 
ATOM     10  C   UNL d   1      28.031  16.256 -24.134  0.00  0.00     0.000 A 
ATOM     11  C   UNL d   1      28.845  16.299 -24.272  0.00  0.00     0.003 A 
ENDBRANCH   3   6
BRANCH   2  12
ATOM     12  N   UNL d   1      32.157  16.726 -23.613  0.00  0.00    -0.181 NA
ATOM     13  C   UNL d   1      32.349  17.458 -23.938  0.00  0.00     0.281 C 
ATOM     14  O   UNL d   1      31.851  17.811 -24.489  0.00  0.00    -0.265 OA
BRANCH  13  15
ATOM     15  C   UNL d   1      33.038  17.834 -23.710  0.00  0.00     0.063 C 
ATOM     16  C   UNL d   1      33.236  18.573 -24.021  0.00  0.00     0.005 C 
ENDBRANCH  13  15
ENDBRANCH   2  12
TORSDOF 3
ENDMDL
