MODEL 1
REMARK VINA RESULT:      53.6      0.000      0.000
REMARK  10 active torsions:
REMARK  status: ('A' for Active; 'I' for Inactive)
REMARK    1  A    between atoms: N_9  and  C_1 
REMARK    2  A    between atoms: C_4  and  S_21 
REMARK    3  A    between atoms: C_23  and  C_8 
REMARK       I    between atoms: C_19  and  N_9 
REMARK    4  A    between atoms: O_26  and  C_10 
REMARK    5  A    between atoms: C_11  and  C_12 
REMARK       I    between atoms: C_12  and  N_20 
REMARK    6  A    between atoms: O_27  and  C_13 
REMARK    7  A    between atoms: O_28  and  C_14 
REMARK    8  A    between atoms: C_25  and  C_19 
REMARK    9  A    between atoms: N_20  and  C_23 
REMARK   10  A    between atoms: S_21  and  C_25 
ROOT
ATOM      1  O   UNL d   1      45.795 -17.721  42.085  0.00  0.00    -0.262 OA
ATOM      2  C   UNL d   1      45.792 -18.358  41.552  0.00  0.00     0.236 A 
ATOM      3  N   UNL d   1      45.998 -19.032  41.968  0.00  0.00    -0.114 NA
ATOM      4  N   UNL d   1      46.129 -18.818  42.753  0.00  0.00    -0.119 NA
ATOM      5  C   UNL d   1      46.004 -18.011  42.824  0.00  0.00     0.224 A 
ENDROOT
BRANCH   5   6
ATOM      6  C   UNL d   1      46.075 -17.570  43.517  0.00  0.00     0.149 C 
BRANCH   6   7
ATOM      7  N   UNL d   1      45.894 -16.768  43.523  0.00  0.00    -0.203 NA
ATOM      8  C   UNL d   1      45.826 -16.365  44.242  0.00  0.00     0.279 C 
ATOM      9  O   UNL d   1      45.939 -16.761  44.953  0.00  0.00    -0.265 OA
BRANCH   8  10
ATOM     10  C   UNL d   1      45.644 -15.558  44.241  0.00  0.00     0.062 A 
ATOM     11  C   UNL d   1      46.164 -15.020  43.879  0.00  0.00     0.031 A 
ATOM     12  C   UNL d   1      45.974 -14.227  43.884  0.00  0.00     0.118 A 
ATOM     13  C   UNL d   1      45.294 -13.954  44.233  0.00  0.00     0.138 A 
ATOM     14  C   UNL d   1      44.777 -14.504  44.595  0.00  0.00     0.118 A 
ATOM     15  C   UNL d   1      44.968 -15.303  44.590  0.00  0.00     0.031 A 
BRANCH  12  16
ATOM     16  O   UNL d   1      46.486 -13.678  43.525  0.00  0.00    -0.326 OA
ATOM     17  C   UNL d   1      46.646 -13.744  42.713  0.00  0.00     0.181 C 
ENDBRANCH  12  16
BRANCH  13  18
ATOM     18  O   UNL d   1      45.102 -13.159  44.240  0.00  0.00    -0.324 OA
ATOM     19  C   UNL d   1      44.346 -12.909  43.992  0.00  0.00     0.182 C 
ENDBRANCH  13  18
BRANCH  14  20
ATOM     20  O   UNL d   1      44.079 -14.234  44.954  0.00  0.00    -0.326 OA
ATOM     21  C   UNL d   1      43.352 -14.357  44.602  0.00  0.00     0.181 C 
ENDBRANCH  14  20
ENDBRANCH   8  10
ENDBRANCH   6   7
ENDBRANCH   5   6
BRANCH   2  22
ATOM     22  S   UNL d   1      45.612 -18.312  40.748  0.00  0.00    -0.036 SA
BRANCH  22  23
ATOM     23  C   UNL d   1      45.923 -17.712  40.291  0.00  0.00     0.101 C 
BRANCH  23  24
ATOM     24  C   UNL d   1      45.533 -17.470  39.589  0.00  0.00     0.288 C 
ATOM     25  N   UNL d   1      45.535 -16.673  39.373  0.00  0.00    -0.182 NA
ATOM     26  O   UNL d   1      45.151 -18.022  39.121  0.00  0.00    -0.265 OA
BRANCH  25  27
ATOM     27  C   UNL d   1      45.151 -16.424  38.681  0.00  0.00     0.197 A 
ATOM     28  N   UNL d   1      44.384 -16.646  38.452  0.00  0.00    -0.221 NA
ATOM     29  C   UNL d   1      44.218 -16.277  37.732  0.00  0.00     0.090 A 
ATOM     30  C   UNL d   1      43.561 -16.287  37.247  0.00  0.00     0.020 A 
ATOM     31  C   UNL d   1      44.888 -15.824  37.516  0.00  0.00     0.050 A 
ATOM     32  C   UNL d   1      43.547 -15.854  36.540  0.00  0.00     0.002 A 
ATOM     33  C   UNL d   1      44.215 -15.406  36.330  0.00  0.00     0.001 A 
ATOM     34  C   UNL d   1      44.873 -15.396  36.816  0.00  0.00     0.008 A 
ATOM     35  S   UNL d   1      45.464 -15.917  38.104  0.00  0.00    -0.047 SA
ENDBRANCH  25  27
ENDBRANCH  23  24
ENDBRANCH  22  23
ENDBRANCH   2  22
TORSDOF 10
ENDMDL
MODEL 2
REMARK VINA RESULT:      54.9      1.698      5.913
REMARK  10 active torsions:
REMARK  status: ('A' for Active; 'I' for Inactive)
REMARK    1  A    between atoms: N_9  and  C_1 
REMARK    2  A    between atoms: C_4  and  S_21 
REMARK    3  A    between atoms: C_23  and  C_8 
REMARK       I    between atoms: C_19  and  N_9 
REMARK    4  A    between atoms: O_26  and  C_10 
REMARK    5  A    between atoms: C_11  and  C_12 
REMARK       I    between atoms: C_12  and  N_20 
REMARK    6  A    between atoms: O_27  and  C_13 
REMARK    7  A    between atoms: O_28  and  C_14 
REMARK    8  A    between atoms: C_25  and  C_19 
REMARK    9  A    between atoms: N_20  and  C_23 
REMARK   10  A    between atoms: S_21  and  C_25 
ROOT
ATOM      1  O   UNL d   1      45.333 -18.205  41.442  0.00  0.00    -0.262 OA
ATOM      2  C   UNL d   1      45.915 -18.193  42.036  0.00  0.00     0.236 A 
ATOM      3  N   UNL d   1      46.644 -18.258  41.671  0.00  0.00    -0.114 NA
ATOM      4  N   UNL d   1      46.521 -18.310  40.858  0.00  0.00    -0.119 NA
ATOM      5  C   UNL d   1      45.714 -18.277  40.718  0.00  0.00     0.224 A 
ENDROOT
BRANCH   5   6
ATOM      6  C   UNL d   1      45.350 -18.311  39.979  0.00  0.00     0.149 C 
BRANCH   6   7
ATOM      7  N   UNL d   1      45.458 -17.707  39.432  0.00  0.00    -0.203 NA
ATOM      8  C   UNL d   1      44.803 -17.364  39.061  0.00  0.00     0.279 C 
ATOM      9  O   UNL d   1      44.043 -17.623  39.234  0.00  0.00    -0.265 OA
BRANCH   8  10
ATOM     10  C   UNL d   1      44.918 -16.756  38.511  0.00  0.00     0.062 A 
ATOM     11  C   UNL d   1      45.688 -16.489  38.349  0.00  0.00     0.031 A 
ATOM     12  C   UNL d   1      45.789 -15.889  37.806  0.00  0.00     0.118 A 
ATOM     13  C   UNL d   1      45.159 -15.551  37.422  0.00  0.00     0.138 A 
ATOM     14  C   UNL d   1      44.388 -15.828  37.592  0.00  0.00     0.118 A 
ATOM     15  C   UNL d   1      44.286 -16.431  38.139  0.00  0.00     0.031 A 
BRANCH  12  16
ATOM     16  O   UNL d   1      46.555 -15.612  37.635  0.00  0.00    -0.326 OA
ATOM     17  C   UNL d   1      46.647 -14.955  37.136  0.00  0.00     0.181 C 
ENDBRANCH  12  16
BRANCH  13  18
ATOM     18  O   UNL d   1      45.259 -14.950  36.877  0.00  0.00    -0.324 OA
ATOM     19  C   UNL d   1      44.652 -14.773  36.334  0.00  0.00     0.182 C 
ENDBRANCH  13  18
BRANCH  14  20
ATOM     20  O   UNL d   1      43.737 -15.488  37.205  0.00  0.00    -0.326 OA
ATOM     21  C   UNL d   1      42.981 -15.774  37.324  0.00  0.00     0.181 C 
ENDBRANCH  14  20
ENDBRANCH   8  10
ENDBRANCH   6   7
ENDBRANCH   5   6
BRANCH   2  22
ATOM     22  S   UNL d   1      45.773 -18.127  42.846  0.00  0.00    -0.036 SA
BRANCH  22  23
ATOM     23  C   UNL d   1      45.241 -17.576  43.127  0.00  0.00     0.101 C 
BRANCH  23  24
ATOM     24  C   UNL d   1      45.514 -16.858  43.464  0.00  0.00     0.288 C 
ATOM     25  N   UNL d   1      45.059 -16.173  43.393  0.00  0.00    -0.182 NA
ATOM     26  O   UNL d   1      46.229 -16.838  43.861  0.00  0.00    -0.265 OA
BRANCH  25  27
ATOM     27  C   UNL d   1      45.322 -15.458  43.723  0.00  0.00     0.197 A 
ATOM     28  N   UNL d   1      46.023 -15.360  44.157  0.00  0.00    -0.221 NA
ATOM     29  C   UNL d   1      46.071 -14.566  44.381  0.00  0.00     0.090 A 
ATOM     30  C   UNL d   1      46.628 -14.149  44.810  0.00  0.00     0.020 A 
ATOM     31  C   UNL d   1      45.395 -14.173  44.083  0.00  0.00     0.050 A 
ATOM     32  C   UNL d   1      46.533 -13.339  44.955  0.00  0.00     0.002 A 
ATOM     33  C   UNL d   1      45.860 -12.953  44.656  0.00  0.00     0.001 A 
ATOM     34  C   UNL d   1      45.303 -13.370  44.227  0.00  0.00     0.008 A 
ATOM     35  S   UNL d   1      44.933 -14.727  43.676  0.00  0.00    -0.047 SA
ENDBRANCH  25  27
ENDBRANCH  23  24
ENDBRANCH  22  23
ENDBRANCH   2  22
TORSDOF 10
ENDMDL
