MODEL 1
REMARK VINA RESULT:      -4.0      0.000      0.000
REMARK  1 active torsions:
REMARK  status: ('A' for Active; 'I' for Inactive)
REMARK    1  A    between atoms: C_8  and  C_3 
ROOT
ATOM      1  C   UNL d   1      55.807   0.072  33.031  0.00  0.00     0.199 A 
ATOM      2  C   UNL d   1      57.003   0.417  33.538  0.00  0.00     0.199 A 
ATOM      3  C   UNL d   1      56.602   0.170  32.853  0.00  0.00     0.078 A 
ATOM      4  C   UNL d   1      55.684   0.252  33.825  0.00  0.00     0.042 A 
ATOM      5  C   UNL d   1      56.425   0.466  34.139  0.00  0.00     0.042 A 
ATOM      6  O   UNL d   1      57.836   0.583  33.602  0.00  0.00    -0.286 OA
ATOM      7  O   UNL d   1      55.202  -0.176  32.485  0.00  0.00    -0.286 OA
ATOM      8  C   UNL d   1      56.500   0.681  34.931  0.00  0.00     0.003 A 
ATOM      9  C   UNL d   1      55.023   0.256  34.305  0.00  0.00     0.003 A 
ATOM     10  C   UNL d   1      55.822   0.682  35.413  0.00  0.00     0.000 A 
ATOM     11  C   UNL d   1      55.081   0.468  35.099  0.00  0.00     0.000 A 
ENDROOT
BRANCH   3  12
ATOM     12  C   UNL d   1      56.928   0.039  32.107  0.00  0.00     0.009 A 
ATOM     13  C   UNL d   1      57.118   0.681  31.626  0.00  0.00     0.021 A 
ATOM     14  C   UNL d   1      57.441   0.551  30.887  0.00  0.00     0.099 A 
ATOM     15  N   UNL d   1      57.587  -0.197  30.595  0.00  0.00    -0.242 NA
ATOM     16  C   UNL d   1      57.387  -0.843  31.099  0.00  0.00     0.099 A 
ATOM     17  C   UNL d   1      57.061  -0.712  31.846  0.00  0.00     0.021 A 
ENDBRANCH   3  12
TORSDOF 1
ENDMDL
MODEL 2
REMARK VINA RESULT:      -3.9      1.514      3.377
REMARK  1 active torsions:
REMARK  status: ('A' for Active; 'I' for Inactive)
REMARK    1  A    between atoms: C_8  and  C_3 
ROOT
ATOM      1  C   UNL d   1      57.020   0.010  31.416  0.00  0.00     0.199 A 
ATOM      2  C   UNL d   1      57.760   0.449  32.449  0.00  0.00     0.199 A 
ATOM      3  C   UNL d   1      57.011   0.168  32.221  0.00  0.00     0.078 A 
ATOM      4  C   UNL d   1      57.766   0.184  31.114  0.00  0.00     0.042 A 
ATOM      5  C   UNL d   1      58.225   0.456  31.754  0.00  0.00     0.042 A 
ATOM      6  O   UNL d   1      57.995   0.680  33.234  0.00  0.00    -0.286 OA
ATOM      7  O   UNL d   1      56.365  -0.287  30.960  0.00  0.00    -0.286 OA
ATOM      8  C   UNL d   1      59.010   0.682  31.643  0.00  0.00     0.003 A 
ATOM      9  C   UNL d   1      58.096   0.139  30.368  0.00  0.00     0.003 A 
ATOM     10  C   UNL d   1      59.338   0.632  30.881  0.00  0.00     0.000 A 
ATOM     11  C   UNL d   1      58.880   0.360  30.241  0.00  0.00     0.000 A 
ENDROOT
BRANCH   3  12
ATOM     12  C   UNL d   1      56.354   0.058  32.706  0.00  0.00     0.009 A 
ATOM     13  C   UNL d   1      56.179  -0.696  32.990  0.00  0.00     0.021 A 
ATOM     14  C   UNL d   1      55.527  -0.805  33.471  0.00  0.00     0.099 A 
ATOM     15  N   UNL d   1      55.032  -0.193  33.689  0.00  0.00    -0.242 NA
ATOM     16  C   UNL d   1      55.226   0.572  33.390  0.00  0.00     0.099 A 
ATOM     17  C   UNL d   1      55.884   0.682  32.904  0.00  0.00     0.021 A 
ENDBRANCH   3  12
TORSDOF 1
ENDMDL
MODEL 3
REMARK VINA RESULT:      -3.6      1.078      1.632
REMARK  1 active torsions:
REMARK  status: ('A' for Active; 'I' for Inactive)
REMARK    1  A    between atoms: C_8  and  C_3 
ROOT
ATOM      1  C   UNL d   1      56.637  -0.806  31.757  0.00  0.00     0.199 A 
ATOM      2  C   UNL d   1      57.494   0.137  32.183  0.00  0.00     0.199 A 
ATOM      3  C   UNL d   1      57.309  -0.379  31.559  0.00  0.00     0.078 A 
ATOM      4  C   UNL d   1      56.380  -0.574  32.504  0.00  0.00     0.042 A 
ATOM      5  C   UNL d   1      56.911   0.011  32.768  0.00  0.00     0.042 A 
ATOM      6  O   UNL d   1      58.148   0.682  32.211  0.00  0.00    -0.286 OA
ATOM      7  O   UNL d   1      56.261  -1.395  31.271  0.00  0.00    -0.286 OA
ATOM      8  C   UNL d   1      56.813   0.365  33.506  0.00  0.00     0.003 A 
ATOM      9  C   UNL d   1      55.755  -0.800  32.979  0.00  0.00     0.003 A 
ATOM     10  C   UNL d   1      56.174   0.130  33.984  0.00  0.00     0.000 A 
ATOM     11  C   UNL d   1      55.643  -0.455  33.719  0.00  0.00     0.000 A 
ENDROOT
BRANCH   3  12
ATOM     12  C   UNL d   1      57.719  -0.466  30.849  0.00  0.00     0.009 A 
ATOM     13  C   UNL d   1      57.739   0.159  30.311  0.00  0.00     0.021 A 
ATOM     14  C   UNL d   1      58.145   0.073  29.607  0.00  0.00     0.099 A 
ATOM     15  N   UNL d   1      58.539  -0.613  29.406  0.00  0.00    -0.242 NA
ATOM     16  C   UNL d   1      58.509  -1.242  29.967  0.00  0.00     0.099 A 
ATOM     17  C   UNL d   1      58.099  -1.156  30.678  0.00  0.00     0.021 A 
ENDBRANCH   3  12
TORSDOF 1
ENDMDL
MODEL 4
REMARK VINA RESULT:      -3.1      4.045      5.868
REMARK  1 active torsions:
REMARK  status: ('A' for Active; 'I' for Inactive)
REMARK    1  A    between atoms: C_8  and  C_3 
ROOT
ATOM      1  C   UNL d   1      59.031  -2.114  29.145  0.00  0.00     0.199 A 
ATOM      2  C   UNL d   1      60.139  -1.363  29.024  0.00  0.00     0.199 A 
ATOM      3  C   UNL d   1      59.315  -1.344  29.129  0.00  0.00     0.078 A 
ATOM      4  C   UNL d   1      59.660  -2.636  29.052  0.00  0.00     0.042 A 
ATOM      5  C   UNL d   1      60.347  -2.171  28.976  0.00  0.00     0.042 A 
ATOM      6  O   UNL d   1      60.657  -0.689  28.975  0.00  0.00    -0.286 OA
ATOM      7  O   UNL d   1      58.216  -2.342  29.243  0.00  0.00    -0.286 OA
ATOM      8  C   UNL d   1      61.085  -2.524  28.873  0.00  0.00     0.003 A 
ATOM      9  C   UNL d   1      59.716  -3.451  29.023  0.00  0.00     0.003 A 
ATOM     10  C   UNL d   1      61.133  -3.354  28.846  0.00  0.00     0.000 A 
ATOM     11  C   UNL d   1      60.447  -3.819  28.921  0.00  0.00     0.000 A 
ENDROOT
BRANCH   3  12
ATOM     12  C   UNL d   1      58.840  -0.675  29.207  0.00  0.00     0.009 A 
ATOM     13  C   UNL d   1      58.600  -0.265  28.533  0.00  0.00     0.021 A 
ATOM     14  C   UNL d   1      58.129   0.399  28.610  0.00  0.00     0.099 A 
ATOM     15  N   UNL d   1      57.880   0.681  29.335  0.00  0.00    -0.242 NA
ATOM     16  C   UNL d   1      58.134   0.250  30.014  0.00  0.00     0.099 A 
ATOM     17  C   UNL d   1      58.610  -0.420  29.936  0.00  0.00     0.021 A 
ENDBRANCH   3  12
TORSDOF 1
ENDMDL
MODEL 5
REMARK VINA RESULT:      -3.0      2.123      4.452
REMARK  1 active torsions:
REMARK  status: ('A' for Active; 'I' for Inactive)
REMARK    1  A    between atoms: C_8  and  C_3 
ROOT
ATOM      1  C   UNL d   1      58.834   0.415  31.002  0.00  0.00     0.199 A 
ATOM      2  C   UNL d   1      58.122  -0.010  29.944  0.00  0.00     0.199 A 
ATOM      3  C   UNL d   1      58.101   0.136  30.762  0.00  0.00     0.078 A 
ATOM      4  C   UNL d   1      59.335   0.453  30.350  0.00  0.00     0.042 A 
ATOM      5  C   UNL d   1      58.894   0.190  29.694  0.00  0.00     0.042 A 
ATOM      6  O   UNL d   1      57.480  -0.303  29.467  0.00  0.00    -0.286 OA
ATOM      7  O   UNL d   1      59.048   0.632  31.797  0.00  0.00    -0.286 OA
ATOM      8  C   UNL d   1      59.234   0.158  28.943  0.00  0.00     0.003 A 
ATOM      9  C   UNL d   1      60.113   0.682  30.250  0.00  0.00     0.003 A 
ATOM     10  C   UNL d   1      60.026   0.393  28.851  0.00  0.00     0.000 A 
ATOM     11  C   UNL d   1      60.467   0.656  29.506  0.00  0.00     0.000 A 
ENDROOT
BRANCH   3  12
ATOM     12  C   UNL d   1      57.460   0.027  31.269  0.00  0.00     0.009 A 
ATOM     13  C   UNL d   1      57.044   0.682  31.548  0.00  0.00     0.021 A 
ATOM     14  C   UNL d   1      56.409   0.573  32.051  0.00  0.00     0.099 A 
ATOM     15  N   UNL d   1      56.161  -0.165  32.295  0.00  0.00    -0.242 NA
ATOM     16  C   UNL d   1      56.597  -0.825  32.000  0.00  0.00     0.099 A 
ATOM     17  C   UNL d   1      57.238  -0.715  31.493  0.00  0.00     0.021 A 
ENDBRANCH   3  12
TORSDOF 1
ENDMDL
MODEL 6
REMARK VINA RESULT:      -2.9      9.885     10.535
REMARK  1 active torsions:
REMARK  status: ('A' for Active; 'I' for Inactive)
REMARK    1  A    between atoms: C_8  and  C_3 
ROOT
ATOM      1  C   UNL d   1      59.033  -9.427  33.942  0.00  0.00     0.199 A 
ATOM      2  C   UNL d   1      60.182  -9.399  33.245  0.00  0.00     0.199 A 
ATOM      3  C   UNL d   1      59.845  -9.328  34.002  0.00  0.00     0.078 A 
ATOM      4  C   UNL d   1      58.834  -9.563  33.154  0.00  0.00     0.042 A 
ATOM      5  C   UNL d   1      59.546  -9.546  32.722  0.00  0.00     0.042 A 
ATOM      6  O   UNL d   1      61.009  -9.334  33.052  0.00  0.00    -0.286 OA
ATOM      7  O   UNL d   1      58.479  -9.396  34.588  0.00  0.00    -0.286 OA
ATOM      8  C   UNL d   1      59.546  -9.664  31.906  0.00  0.00     0.003 A 
ATOM      9  C   UNL d   1      58.128  -9.698  32.767  0.00  0.00     0.003 A 
ATOM     10  C   UNL d   1      58.823  -9.801  31.520  0.00  0.00     0.000 A 
ATOM     11  C   UNL d   1      58.111  -9.818  31.952  0.00  0.00     0.000 A 
ENDROOT
BRANCH   3  12
ATOM     12  C   UNL d   1      60.241  -9.181  34.709  0.00  0.00     0.009 A 
ATOM     13  C   UNL d   1      60.327  -8.405  34.975  0.00  0.00     0.021 A 
ATOM     14  C   UNL d   1      60.720  -8.260  35.677  0.00  0.00     0.099 A 
ATOM     15  N   UNL d   1      61.038  -8.855  36.136  0.00  0.00    -0.242 NA
ATOM     16  C   UNL d   1      60.942  -9.643  35.850  0.00  0.00     0.099 A 
ATOM     17  C   UNL d   1      60.545  -9.790  35.141  0.00  0.00     0.021 A 
ENDBRANCH   3  12
TORSDOF 1
ENDMDL
MODEL 7
REMARK VINA RESULT:      -2.0      2.368      3.468
REMARK  1 active torsions:
REMARK  status: ('A' for Active; 'I' for Inactive)
REMARK    1  A    between atoms: C_8  and  C_3 
ROOT
ATOM      1  C   UNL d   1      58.122  -0.004  30.259  0.00  0.00     0.199 A 
ATOM      2  C   UNL d   1      59.067   0.445  31.103  0.00  0.00     0.199 A 
ATOM      3  C   UNL d   1      58.922   0.158  30.336  0.00  0.00     0.078 A 
ATOM      4  C   UNL d   1      57.741   0.174  30.968  0.00  0.00     0.042 A 
ATOM      5  C   UNL d   1      58.327   0.452  31.490  0.00  0.00     0.042 A 
ATOM      6  O   UNL d   1      59.822   0.682  31.418  0.00  0.00    -0.286 OA
ATOM      7  O   UNL d   1      57.740  -0.308  29.562  0.00  0.00    -0.286 OA
ATOM      8  C   UNL d   1      58.132   0.682  32.258  0.00  0.00     0.003 A 
ATOM      9  C   UNL d   1      56.964   0.127  31.216  0.00  0.00     0.003 A 
ATOM     10  C   UNL d   1      57.339   0.631  32.503  0.00  0.00     0.000 A 
ATOM     11  C   UNL d   1      56.753   0.352  31.980  0.00  0.00     0.000 A 
ENDROOT
BRANCH   3  12
ATOM     12  C   UNL d   1      59.476   0.046  29.735  0.00  0.00     0.009 A 
ATOM     13  C   UNL d   1      59.689   0.681  29.255  0.00  0.00     0.021 A 
ATOM     14  C   UNL d   1      60.238   0.571  28.659  0.00  0.00     0.099 A 
ATOM     15  N   UNL d   1      60.592  -0.151  28.514  0.00  0.00    -0.242 NA
ATOM     16  C   UNL d   1      60.362  -0.790  29.014  0.00  0.00     0.099 A 
ATOM     17  C   UNL d   1      59.808  -0.678  29.615  0.00  0.00     0.021 A 
ENDBRANCH   3  12
TORSDOF 1
ENDMDL
