MODEL 1
REMARK VINA RESULT:      -5.9      0.000      0.000
REMARK  1 active torsions:
REMARK  status: ('A' for Active; 'I' for Inactive)
REMARK    1  A    between atoms: C_9  and  C_2 
ROOT
ATOM      1  N   UNL d   1      57.263   0.419  31.551  0.00  0.00    -0.204 NA
ATOM      2  C   UNL d   1      56.792  -0.070  32.022  0.00  0.00     0.107 A 
ATOM      3  C   UNL d   1      57.694   0.094  30.916  0.00  0.00     0.304 A 
ATOM      4  C   UNL d   1      55.893  -0.241  33.123  0.00  0.00     0.020 A 
ATOM      5  O   UNL d   1      57.177  -1.209  31.232  0.00  0.00    -0.299 OA
ATOM      6  C   UNL d   1      56.369   0.248  32.645  0.00  0.00     0.023 A 
ATOM      7  C   UNL d   1      56.746  -0.884  31.867  0.00  0.00     0.118 A 
ATOM      8  O   UNL d   1      58.163   0.579  30.445  0.00  0.00    -0.263 OA
ATOM      9  C   UNL d   1      55.849  -1.048  32.966  0.00  0.00     0.004 A 
ATOM     10  C   UNL d   1      57.649  -0.717  30.759  0.00  0.00     0.185 A 
ATOM     11  C   UNL d   1      56.274  -1.368  32.340  0.00  0.00     0.026 A 
ENDROOT
BRANCH   4  12
ATOM     12  C   UNL d   1      55.469   0.088  33.750  0.00  0.00     0.090 A 
ATOM     13  N   UNL d   1      55.734   0.129  34.529  0.00  0.00    -0.219 NA
ATOM     14  C   UNL d   1      55.140   0.499  34.972  0.00  0.00     0.215 A 
ATOM     15  S   UNL d   1      54.516   0.681  34.466  0.00  0.00    -0.045 SA
ATOM     16  N   UNL d   1      55.169   0.657  35.786  0.00  0.00    -0.120 N 
ATOM     17  C   UNL d   1      54.722   0.426  33.706  0.00  0.00     0.058 A 
ENDBRANCH   4  12
TORSDOF 1
ENDMDL
MODEL 2
REMARK VINA RESULT:      -5.4      2.455      4.245
REMARK  1 active torsions:
REMARK  status: ('A' for Active; 'I' for Inactive)
REMARK    1  A    between atoms: C_9  and  C_2 
ROOT
ATOM      1  N   UNL d   1      56.450  -1.461  32.349  0.00  0.00    -0.204 NA
ATOM      2  C   UNL d   1      56.689  -0.747  32.009  0.00  0.00     0.107 A 
ATOM      3  C   UNL d   1      55.884  -1.461  32.961  0.00  0.00     0.304 A 
ATOM      4  C   UNL d   1      57.488  -0.030  31.062  0.00  0.00     0.020 A 
ATOM      5  O   UNL d   1      55.803  -0.028  32.885  0.00  0.00    -0.299 OA
ATOM      6  C   UNL d   1      57.243  -0.747  31.409  0.00  0.00     0.023 A 
ATOM      7  C   UNL d   1      56.369  -0.029  32.273  0.00  0.00     0.118 A 
ATOM      8  O   UNL d   1      55.644  -2.170  33.302  0.00  0.00    -0.263 OA
ATOM      9  C   UNL d   1      57.168   0.681  31.327  0.00  0.00     0.004 A 
ATOM     10  C   UNL d   1      55.564  -0.746  33.226  0.00  0.00     0.185 A 
ATOM     11  C   UNL d   1      56.611   0.682  31.930  0.00  0.00     0.026 A 
ENDROOT
BRANCH   4  12
ATOM     12  C   UNL d   1      58.048  -0.038  30.456  0.00  0.00     0.090 A 
ATOM     13  N   UNL d   1      57.922  -0.343  29.701  0.00  0.00    -0.219 NA
ATOM     14  C   UNL d   1      58.625  -0.240  29.273  0.00  0.00     0.215 A 
ATOM     15  S   UNL d   1      59.175   0.126  29.766  0.00  0.00    -0.045 SA
ATOM     16  N   UNL d   1      58.750  -0.466  28.485  0.00  0.00    -0.120 N 
ATOM     17  C   UNL d   1      58.816   0.250  30.501  0.00  0.00     0.058 A 
ENDBRANCH   4  12
TORSDOF 1
ENDMDL
MODEL 3
REMARK VINA RESULT:      -5.0      1.319      2.071
REMARK  1 active torsions:
REMARK  status: ('A' for Active; 'I' for Inactive)
REMARK    1  A    between atoms: C_9  and  C_2 
ROOT
ATOM      1  N   UNL d   1      57.751  -0.271  29.958  0.00  0.00    -0.204 NA
ATOM      2  C   UNL d   1      57.748  -0.018  30.746  0.00  0.00     0.107 A 
ATOM      3  C   UNL d   1      58.393  -0.079  29.463  0.00  0.00     0.304 A 
ATOM      4  C   UNL d   1      57.111   0.047  32.026  0.00  0.00     0.020 A 
ATOM      5  O   UNL d   1      59.024   0.618  30.550  0.00  0.00    -0.299 OA
ATOM      6  C   UNL d   1      57.119  -0.206  31.231  0.00  0.00     0.023 A 
ATOM      7  C   UNL d   1      58.382   0.426  31.045  0.00  0.00     0.118 A 
ATOM      8  O   UNL d   1      58.399  -0.330  28.679  0.00  0.00    -0.263 OA
ATOM      9  C   UNL d   1      57.742   0.487  32.320  0.00  0.00     0.004 A 
ATOM     10  C   UNL d   1      59.026   0.363  29.760  0.00  0.00     0.185 A 
ATOM     11  C   UNL d   1      58.374   0.676  31.832  0.00  0.00     0.026 A 
ENDROOT
BRANCH   4  12
ATOM     12  C   UNL d   1      56.472  -0.147  32.510  0.00  0.00     0.090 A 
ATOM     13  N   UNL d   1      55.943   0.396  32.833  0.00  0.00    -0.219 NA
ATOM     14  C   UNL d   1      55.392  -0.032  33.280  0.00  0.00     0.215 A 
ATOM     15  S   UNL d   1      55.585  -0.832  33.228  0.00  0.00    -0.045 SA
ATOM     16  N   UNL d   1      54.756   0.290  33.705  0.00  0.00    -0.120 N 
ATOM     17  C   UNL d   1      56.256  -0.902  32.750  0.00  0.00     0.058 A 
ENDBRANCH   4  12
TORSDOF 1
ENDMDL
MODEL 4
REMARK VINA RESULT:      -4.6      1.877      2.907
REMARK  1 active torsions:
REMARK  status: ('A' for Active; 'I' for Inactive)
REMARK    1  A    between atoms: C_9  and  C_2 
ROOT
ATOM      1  N   UNL d   1      58.580  -1.344  29.593  0.00  0.00    -0.204 NA
ATOM      2  C   UNL d   1      58.220  -0.719  29.998  0.00  0.00     0.107 A 
ATOM      3  C   UNL d   1      59.037  -1.190  28.914  0.00  0.00     0.304 A 
ATOM      4  C   UNL d   1      57.406  -0.244  31.075  0.00  0.00     0.020 A 
ATOM      5  O   UNL d   1      58.770   0.215  29.053  0.00  0.00    -0.299 OA
ATOM      6  C   UNL d   1      57.771  -0.870  30.664  0.00  0.00     0.023 A 
ATOM      7  C   UNL d   1      58.312   0.061  29.731  0.00  0.00     0.118 A 
ATOM      8  O   UNL d   1      59.396  -1.810  28.509  0.00  0.00    -0.263 OA
ATOM      9  C   UNL d   1      57.500   0.529  30.808  0.00  0.00     0.004 A 
ATOM     10  C   UNL d   1      59.130  -0.412  28.647  0.00  0.00     0.185 A 
ATOM     11  C   UNL d   1      57.951   0.681  30.139  0.00  0.00     0.026 A 
ENDROOT
BRANCH   4  12
ATOM     12  C   UNL d   1      56.955  -0.404  31.747  0.00  0.00     0.090 A 
ATOM     13  N   UNL d   1      56.591  -1.126  31.910  0.00  0.00    -0.219 NA
ATOM     14  C   UNL d   1      56.198  -1.045  32.635  0.00  0.00     0.215 A 
ATOM     15  S   UNL d   1      56.322  -0.279  32.911  0.00  0.00    -0.045 SA
ATOM     16  N   UNL d   1      55.756  -1.636  33.016  0.00  0.00    -0.120 N 
ATOM     17  C   UNL d   1      56.792   0.118  32.359  0.00  0.00     0.058 A 
ENDBRANCH   4  12
TORSDOF 1
ENDMDL
MODEL 5
REMARK VINA RESULT:      -4.0      2.204      3.897
REMARK  1 active torsions:
REMARK  status: ('A' for Active; 'I' for Inactive)
REMARK    1  A    between atoms: C_9  and  C_2 
ROOT
ATOM      1  N   UNL d   1      54.674   0.417  33.650  0.00  0.00    -0.204 NA
ATOM      2  C   UNL d   1      55.498   0.403  33.582  0.00  0.00     0.107 A 
ATOM      3  C   UNL d   1      54.321   0.557  34.392  0.00  0.00     0.304 A 
ATOM      4  C   UNL d   1      56.674   0.251  32.782  0.00  0.00     0.020 A 
ATOM      5  O   UNL d   1      55.622   0.668  34.991  0.00  0.00    -0.299 OA
ATOM      6  C   UNL d   1      55.844   0.265  32.855  0.00  0.00     0.023 A 
ATOM      7  C   UNL d   1      55.975   0.528  34.249  0.00  0.00     0.118 A 
ATOM      8  O   UNL d   1      53.501   0.571  34.462  0.00  0.00    -0.263 OA
ATOM      9  C   UNL d   1      57.146   0.375  33.446  0.00  0.00     0.004 A 
ATOM     10  C   UNL d   1      54.795   0.682  35.058  0.00  0.00     0.185 A 
ATOM     11  C   UNL d   1      56.797   0.513  34.176  0.00  0.00     0.026 A 
ENDROOT
BRANCH   4  12
ATOM     12  C   UNL d   1      57.017   0.111  32.044  0.00  0.00     0.090 A 
ATOM     13  N   UNL d   1      57.435   0.669  31.605  0.00  0.00    -0.219 NA
ATOM     14  C   UNL d   1      57.680   0.298  30.905  0.00  0.00     0.215 A 
ATOM     15  S   UNL d   1      57.413  -0.481  30.919  0.00  0.00    -0.045 SA
ATOM     16  N   UNL d   1      58.120   0.653  30.297  0.00  0.00    -0.120 N 
ATOM     17  C   UNL d   1      57.001  -0.596  31.627  0.00  0.00     0.058 A 
ENDBRANCH   4  12
TORSDOF 1
ENDMDL
MODEL 6
REMARK VINA RESULT:      -3.2      3.318      5.349
REMARK  1 active torsions:
REMARK  status: ('A' for Active; 'I' for Inactive)
REMARK    1  A    between atoms: C_9  and  C_2 
ROOT
ATOM      1  N   UNL d   1      57.406  -0.786  30.949  0.00  0.00    -0.204 NA
ATOM      2  C   UNL d   1      57.979  -0.801  30.353  0.00  0.00     0.107 A 
ATOM      3  C   UNL d   1      57.187  -0.062  31.297  0.00  0.00     0.304 A 
ATOM      4  C   UNL d   1      58.771  -1.532  29.411  0.00  0.00     0.020 A 
ATOM      5  O   UNL d   1      58.118   0.627  30.447  0.00  0.00    -0.299 OA
ATOM      6  C   UNL d   1      58.194  -1.512  30.012  0.00  0.00     0.023 A 
ATOM      7  C   UNL d   1      58.337  -0.097  30.099  0.00  0.00     0.118 A 
ATOM      8  O   UNL d   1      56.616  -0.044  31.890  0.00  0.00    -0.263 OA
ATOM      9  C   UNL d   1      59.125  -0.831  29.162  0.00  0.00     0.004 A 
ATOM     10  C   UNL d   1      57.543   0.641  31.045  0.00  0.00     0.185 A 
ATOM     11  C   UNL d   1      58.909  -0.117  29.504  0.00  0.00     0.026 A 
ENDROOT
BRANCH   4  12
ATOM     12  C   UNL d   1      58.983  -2.253  29.072  0.00  0.00     0.090 A 
ATOM     13  N   UNL d   1      58.498  -2.919  29.035  0.00  0.00    -0.219 NA
ATOM     14  C   UNL d   1      58.926  -3.515  28.652  0.00  0.00     0.215 A 
ATOM     15  S   UNL d   1      59.668  -3.215  28.456  0.00  0.00    -0.045 SA
ATOM     16  N   UNL d   1      58.653  -4.283  28.493  0.00  0.00    -0.120 N 
ATOM     17  C   UNL d   1      59.702  -2.430  28.717  0.00  0.00     0.058 A 
ENDBRANCH   4  12
TORSDOF 1
ENDMDL
MODEL 7
REMARK VINA RESULT:      -3.1      4.021      5.253
REMARK  1 active torsions:
REMARK  status: ('A' for Active; 'I' for Inactive)
REMARK    1  A    between atoms: C_9  and  C_2 
ROOT
ATOM      1  N   UNL d   1      58.353  -3.367  28.812  0.00  0.00    -0.204 NA
ATOM      2  C   UNL d   1      58.870  -2.732  28.929  0.00  0.00     0.107 A 
ATOM      3  C   UNL d   1      58.651  -4.107  28.573  0.00  0.00     0.304 A 
ATOM      4  C   UNL d   1      59.094  -1.363  29.283  0.00  0.00     0.020 A 
ATOM      5  O   UNL d   1      59.984  -3.569  28.573  0.00  0.00    -0.299 OA
ATOM      6  C   UNL d   1      58.577  -2.006  29.163  0.00  0.00     0.023 A 
ATOM      7  C   UNL d   1      59.685  -2.829  28.812  0.00  0.00     0.118 A 
ATOM      8  O   UNL d   1      58.139  -4.740  28.455  0.00  0.00    -0.263 OA
ATOM      9  C   UNL d   1      59.903  -1.463  29.165  0.00  0.00     0.004 A 
ATOM     10  C   UNL d   1      59.464  -4.205  28.455  0.00  0.00     0.185 A 
ATOM     11  C   UNL d   1      60.197  -2.192  28.931  0.00  0.00     0.026 A 
ENDROOT
BRANCH   4  12
ATOM     12  C   UNL d   1      58.790  -0.633  29.519  0.00  0.00     0.090 A 
ATOM     13  N   UNL d   1      58.140  -0.530  30.015  0.00  0.00    -0.219 NA
ATOM     14  C   UNL d   1      58.027   0.286  30.107  0.00  0.00     0.215 A 
ATOM     15  S   UNL d   1      58.606   0.676  29.669  0.00  0.00    -0.045 SA
ATOM     16  N   UNL d   1      57.433   0.645  30.562  0.00  0.00    -0.120 N 
ATOM     17  C   UNL d   1      59.079   0.105  29.305  0.00  0.00     0.058 A 
ENDBRANCH   4  12
TORSDOF 1
ENDMDL
