MODEL 1
REMARK VINA RESULT:      -5.9      0.000      0.000
REMARK  3 active torsions:
REMARK  status: ('A' for Active; 'I' for Inactive)
REMARK    1  A    between atoms: C_7  and  C_3 
REMARK       I    between atoms: N_10  and  C_7 
REMARK    2  A    between atoms: C_18  and  C_9 
REMARK    3  A    between atoms: C_12  and  N_10 
ROOT
ATOM      1  C   UNL d   1     -41.586-122.675 -53.394  0.00  0.00     0.059 A 
ATOM      2  C   UNL d   1     -41.271-123.393 -53.654  0.00  0.00     0.013 A 
ATOM      3  C   UNL d   1     -41.438-123.100 -52.043  0.00  0.00     0.088 A 
ATOM      4  S   UNL d   1     -41.669-122.529 -52.590  0.00  0.00    -0.075 SA
ATOM      5  S   UNL d   1     -41.818-122.104 -53.941  0.00  0.00    -0.080 SA
ATOM      6  C   UNL d   1     -41.123-123.817 -52.303  0.00  0.00     0.012 A 
ATOM      7  C   UNL d   1     -41.419-122.969 -55.000  0.00  0.00     0.007 A 
ATOM      8  C   UNL d   1     -41.734-122.252 -54.740  0.00  0.00     0.030 A 
ENDROOT
BRANCH   3   9
ATOM      9  C   UNL d   1     -41.521-122.953 -51.239  0.00  0.00     0.285 C 
ATOM     10  N   UNL d   1     -41.912-123.501 -50.757  0.00  0.00    -0.208 NA
ATOM     11  O   UNL d   1     -41.216-122.261 -50.911  0.00  0.00    -0.265 OA
BRANCH  10  12
ATOM     12  C   UNL d   1     -41.997-123.356 -49.949  0.00  0.00     0.085 A 
ATOM     13  C   UNL d   1     -42.633-122.921 -49.680  0.00  0.00     0.019 A 
ATOM     14  C   UNL d   1     -42.715-122.778 -48.876  0.00  0.00     0.002 A 
ATOM     15  C   UNL d   1     -42.151-123.076 -48.339  0.00  0.00     0.000 A 
ATOM     16  C   UNL d   1     -41.514-123.514 -48.623  0.00  0.00     0.002 A 
ATOM     17  C   UNL d   1     -42.232-122.934 -47.528  0.00  0.00     0.000 C 
ATOM     18  C   UNL d   1     -41.435-123.655 -49.424  0.00  0.00     0.019 A 
ENDBRANCH  10  12
ENDBRANCH   3   9
BRANCH   8  19
ATOM     19  C   UNL d   1     -41.964-121.683 -55.294  0.00  0.00     0.006 C 
ATOM     20  C   UNL d   1     -42.378-121.905 -55.966  0.00  0.00     0.001 C 
ENDBRANCH   8  19
TORSDOF 3
ENDMDL
