MODEL 1
REMARK VINA RESULT:      -1.8      0.000      0.000
REMARK  3 active torsions:
REMARK  status: ('A' for Active; 'I' for Inactive)
REMARK    1  A    between atoms: C_4  and  C_1 
REMARK    2  A    between atoms: C_8  and  C_3 
REMARK    3  A    between atoms: O_20  and  C_16 
ROOT
ATOM      1  C   UNL d   1      60.058  -1.345  28.836  0.00  0.00     0.107 A 
ATOM      2  N   UNL d   1      60.790  -1.310  28.455  0.00  0.00    -0.148 NA
ATOM      3  C   UNL d   1      59.918  -0.613  29.176  0.00  0.00     0.039 A 
ATOM      4  N   UNL d   1      61.104  -0.549  28.562  0.00  0.00    -0.148 NA
ATOM      5  C   UNL d   1      60.576  -0.104  29.007  0.00  0.00     0.104 A 
ATOM      6  C   UNL d   1      60.676   0.682  29.238  0.00  0.00     0.023 C 
ENDROOT
BRANCH   1   7
ATOM      7  C   UNL d   1      59.586  -2.018  28.846  0.00  0.00     0.059 A 
ATOM      8  C   UNL d   1      59.835  -2.689  29.245  0.00  0.00     0.200 A 
ATOM      9  C   UNL d   1      59.365  -3.362  29.257  0.00  0.00     0.084 A 
ATOM     10  O   UNL d   1      60.585  -2.693  29.653  0.00  0.00    -0.286 OA
ATOM     11  C   UNL d   1      58.629  -3.352  28.854  0.00  0.00     0.199 A 
ATOM     12  C   UNL d   1      58.381  -2.683  28.455  0.00  0.00     0.042 A 
ATOM     13  O   UNL d   1      58.126  -4.041  28.854  0.00  0.00    -0.286 OA
ATOM     14  C   UNL d   1      58.872  -2.013  28.456  0.00  0.00     0.008 A 
ENDBRANCH   1   7
BRANCH   3  15
ATOM     15  C   UNL d   1      59.197  -0.479  29.612  0.00  0.00     0.003 A 
ATOM     16  C   UNL d   1      59.137  -0.693  30.403  0.00  0.00     0.002 A 
ATOM     17  C   UNL d   1      58.418  -0.552  30.818  0.00  0.00     0.024 A 
ATOM     18  C   UNL d   1      57.792  -0.205  30.423  0.00  0.00     0.094 A 
ATOM     19  C   UNL d   1      57.837   0.017  29.619  0.00  0.00     0.024 A 
ATOM     20  C   UNL d   1      58.556  -0.123  29.204  0.00  0.00     0.002 A 
BRANCH  18  21
ATOM     21  O   UNL d   1      57.072  -0.065  30.838  0.00  0.00    -0.328 OA
ATOM     22  C   UNL d   1      57.102   0.044  31.667  0.00  0.00     0.181 C 
ENDBRANCH  18  21
ENDBRANCH   3  15
TORSDOF 3
ENDMDL
MODEL 2
REMARK VINA RESULT:      -0.7      0.929      3.063
REMARK  3 active torsions:
REMARK  status: ('A' for Active; 'I' for Inactive)
REMARK    1  A    between atoms: C_4  and  C_1 
REMARK    2  A    between atoms: C_8  and  C_3 
REMARK    3  A    between atoms: O_20  and  C_16 
ROOT
ATOM      1  C   UNL d   1      59.404   0.012  29.492  0.00  0.00     0.107 A 
ATOM      2  N   UNL d   1      59.881   0.681  29.427  0.00  0.00    -0.148 NA
ATOM      3  C   UNL d   1      59.800  -0.613  29.142  0.00  0.00     0.039 A 
ATOM      4  N   UNL d   1      60.581   0.467  29.032  0.00  0.00    -0.148 NA
ATOM      5  C   UNL d   1      60.546  -0.333  28.848  0.00  0.00     0.104 A 
ATOM      6  C   UNL d   1      61.128  -0.767  28.456  0.00  0.00     0.023 C 
ENDROOT
BRANCH   1   7
ATOM      7  C   UNL d   1      58.665   0.017  29.853  0.00  0.00     0.059 A 
ATOM      8  C   UNL d   1      58.021   0.344  29.466  0.00  0.00     0.200 A 
ATOM      9  C   UNL d   1      57.282   0.350  29.825  0.00  0.00     0.084 A 
ATOM     10  O   UNL d   1      58.112   0.680  28.686  0.00  0.00    -0.286 OA
ATOM     11  C   UNL d   1      57.198   0.019  30.591  0.00  0.00     0.199 A 
ATOM     12  C   UNL d   1      57.841  -0.307  30.977  0.00  0.00     0.042 A 
ATOM     13  O   UNL d   1      56.440   0.015  30.982  0.00  0.00    -0.286 OA
ATOM     14  C   UNL d   1      58.580  -0.304  30.596  0.00  0.00     0.008 A 
ENDBRANCH   1   7
BRANCH   3  15
ATOM     15  C   UNL d   1      59.441  -1.387  29.123  0.00  0.00     0.003 A 
ATOM     16  C   UNL d   1      59.623  -1.950  29.693  0.00  0.00     0.002 A 
ATOM     17  C   UNL d   1      59.259  -2.709  29.659  0.00  0.00     0.024 A 
ATOM     18  C   UNL d   1      58.730  -2.870  29.056  0.00  0.00     0.094 A 
ATOM     19  C   UNL d   1      58.535  -2.308  28.470  0.00  0.00     0.024 A 
ATOM     20  C   UNL d   1      58.899  -1.550  28.504  0.00  0.00     0.002 A 
BRANCH  18  21
ATOM     21  O   UNL d   1      58.365  -3.629  29.022  0.00  0.00    -0.328 OA
ATOM     22  C   UNL d   1      58.773  -4.253  28.643  0.00  0.00     0.181 C 
ENDBRANCH  18  21
ENDBRANCH   3  15
TORSDOF 3
ENDMDL
MODEL 3
REMARK VINA RESULT:       0.7      1.812      3.494
REMARK  3 active torsions:
REMARK  status: ('A' for Active; 'I' for Inactive)
REMARK    1  A    between atoms: C_4  and  C_1 
REMARK    2  A    between atoms: C_8  and  C_3 
REMARK    3  A    between atoms: O_20  and  C_16 
ROOT
ATOM      1  C   UNL d   1      58.473  -0.044  30.321  0.00  0.00     0.107 A 
ATOM      2  N   UNL d   1      58.102   0.504  30.814  0.00  0.00    -0.148 NA
ATOM      3  C   UNL d   1      58.064  -0.751  30.381  0.00  0.00     0.039 A 
ATOM      4  N   UNL d   1      57.457   0.131  31.182  0.00  0.00    -0.148 NA
ATOM      5  C   UNL d   1      57.420  -0.649  30.924  0.00  0.00     0.104 A 
ATOM      6  C   UNL d   1      56.861  -1.210  31.154  0.00  0.00     0.023 C 
ENDROOT
BRANCH   1   7
ATOM      7  C   UNL d   1      59.135   0.133  29.867  0.00  0.00     0.059 A 
ATOM      8  C   UNL d   1      59.842   0.329  30.232  0.00  0.00     0.200 A 
ATOM      9  C   UNL d   1      60.505   0.506  29.781  0.00  0.00     0.084 A 
ATOM     10  O   UNL d   1      59.896   0.352  31.084  0.00  0.00    -0.286 OA
ATOM     11  C   UNL d   1      60.447   0.483  28.944  0.00  0.00     0.199 A 
ATOM     12  C   UNL d   1      59.741   0.287  28.580  0.00  0.00     0.042 A 
ATOM     13  O   UNL d   1      61.124   0.664  28.457  0.00  0.00    -0.286 OA
ATOM     14  C   UNL d   1      59.083   0.112  29.056  0.00  0.00     0.008 A 
ENDBRANCH   1   7
BRANCH   3  15
ATOM     15  C   UNL d   1      58.320  -1.428  29.930  0.00  0.00     0.003 A 
ATOM     16  C   UNL d   1      58.922  -1.916  30.206  0.00  0.00     0.002 A 
ATOM     17  C   UNL d   1      59.162  -2.580  29.749  0.00  0.00     0.024 A 
ATOM     18  C   UNL d   1      58.789  -2.728  29.035  0.00  0.00     0.094 A 
ATOM     19  C   UNL d   1      58.177  -2.242  28.742  0.00  0.00     0.024 A 
ATOM     20  C   UNL d   1      57.937  -1.578  29.199  0.00  0.00     0.002 A 
BRANCH  18  21
ATOM     21  O   UNL d   1      59.030  -3.393  28.577  0.00  0.00    -0.328 OA
ATOM     22  C   UNL d   1      58.499  -4.034  28.491  0.00  0.00     0.181 C 
ENDBRANCH  18  21
ENDBRANCH   3  15
TORSDOF 3
ENDMDL
