MODEL 1
REMARK VINA RESULT:      23.5      0.000      0.000
REMARK  2 active torsions:
REMARK  status: ('A' for Active; 'I' for Inactive)
REMARK    1  A    between atoms: C_7  and  C_1 
REMARK    2  A    between atoms: S_13  and  C_5 
ROOT
ATOM      1  C   UNL d   1     -51.535  25.144  33.308  0.00  0.00     0.025 A 
ATOM      2  C   UNL d   1     -51.733  25.944  33.307  0.00  0.00     0.106 A 
ATOM      3  C   UNL d   1     -50.740  24.919  33.309  0.00  0.00     0.092 A 
ATOM      4  N   UNL d   1     -50.349  26.293  33.307  0.00  0.00    -0.218 NA
ATOM      5  C   UNL d   1     -50.147  25.493  33.308  0.00  0.00     0.118 A 
ATOM      6  C   UNL d   1     -51.140  26.518  33.307  0.00  0.00     0.194 A 
ATOM      7  C   UNL d   1     -52.529  26.170  33.307  0.00  0.00     0.104 C 
ATOM      8  C   UNL d   1     -50.546  24.122  33.309  0.00  0.00     0.103 C 
ATOM      9  N   UNL d   1     -53.311  26.392  33.307  0.00  0.00    -0.191 NA
ATOM     10  N   UNL d   1     -50.347  23.332  33.310  0.00  0.00    -0.191 NA
ATOM     11  N   UNL d   1     -51.343  27.318  33.306  0.00  0.00    -0.126 N 
ENDROOT
BRANCH   1  12
ATOM     12  C   UNL d   1     -52.123  24.575  33.309  0.00  0.00     0.012 A 
ATOM     13  C   UNL d   1     -52.918  24.801  33.309  0.00  0.00     0.058 A 
ATOM     14 CL   UNL d   1     -53.113  25.597  33.309  0.00  0.00    -0.082 Cl
ATOM     15  C   UNL d   1     -53.519  24.218  33.310  0.00  0.00     0.011 A 
ATOM     16  C   UNL d   1     -53.314  23.422  33.310  0.00  0.00     0.001 A 
ATOM     17  C   UNL d   1     -52.526  23.193  33.310  0.00  0.00     0.000 A 
ATOM     18  C   UNL d   1     -51.925  23.776  33.309  0.00  0.00     0.001 A 
ENDBRANCH   1  12
BRANCH   5  19
ATOM     19  S   UNL d   1     -49.352  25.263  33.308  0.00  0.00    -0.093 SA
ATOM     20  C   UNL d   1     -49.012  24.937  33.986  0.00  0.00     0.076 C 
ENDBRANCH   5  19
TORSDOF 2
ENDMDL
