MODEL 1
REMARK VINA RESULT:      12.0      0.000      0.000
REMARK  6 active torsions:
REMARK  status: ('A' for Active; 'I' for Inactive)
REMARK       I    between atoms: C_2  and  N_1 
REMARK    1  A    between atoms: C_5  and  N_1 
REMARK    2  A    between atoms: C_4  and  C_2 
REMARK    3  A    between atoms: C_3  and  C_6 
REMARK    4  A    between atoms: C_6  and  C_4 
REMARK    5  A    between atoms: O_11  and  C_7 
REMARK    6  A    between atoms: C_14  and  O_11 
ROOT
ATOM      1  C   UNL d   1      13.162  12.459  -3.682  0.00  0.00     0.107 A 
ATOM      2  C   UNL d   1      13.137  13.195  -4.064  0.00  0.00     0.118 A 
ATOM      3  C   UNL d   1      13.163  11.779  -4.103  0.00  0.00     0.021 A 
ATOM      4  C   UNL d   1      13.115  13.223  -4.888  0.00  0.00     0.026 A 
ATOM      5  C   UNL d   1      13.141  11.789  -4.933  0.00  0.00     0.002 A 
ATOM      6  C   UNL d   1      13.117  12.495  -5.325  0.00  0.00     0.002 A 
ENDROOT
BRANCH   1   7
ATOM      7  N   UNL d   1      13.185  12.429  -2.852  0.00  0.00    -0.206 NA
ATOM      8  C   UNL d   1      13.824  12.088  -2.461  0.00  0.00     0.280 C 
ATOM      9  O   UNL d   1      14.435  11.780  -2.882  0.00  0.00    -0.265 OA
BRANCH   8  10
ATOM     10  C   UNL d   1      13.844  12.060  -1.619  0.00  0.00     0.068 C 
BRANCH  10  11
ATOM     11  C   UNL d   1      14.559  12.129  -1.222  0.00  0.00     0.069 C 
BRANCH  11  12
ATOM     12  C   UNL d   1      14.565  12.410  -0.459  0.00  0.00     0.297 C 
ATOM     13  O   UNL d   1      15.279  12.642  -0.118  0.00  0.00    -0.264 OA
ATOM     14  N   UNL d   1      13.876  12.470  -0.014  0.00  0.00    -0.102 N 
ENDBRANCH  11  12
ENDBRANCH  10  11
ENDBRANCH   8  10
ENDBRANCH   1   7
BRANCH   2  15
ATOM     15  O   UNL d   1      13.135  13.907  -3.629  0.00  0.00    -0.304 OA
BRANCH  15  16
ATOM     16  C   UNL d   1      13.103  14.642  -4.026  0.00  0.00     0.123 C 
ATOM     17  C   UNL d   1      13.720  15.183  -3.894  0.00  0.00     0.029 C 
ENDBRANCH  15  16
ENDBRANCH   2  15
TORSDOF 6
ENDMDL
MODEL 2
REMARK VINA RESULT:      13.8      1.474      3.715
REMARK  6 active torsions:
REMARK  status: ('A' for Active; 'I' for Inactive)
REMARK       I    between atoms: C_2  and  N_1 
REMARK    1  A    between atoms: C_5  and  N_1 
REMARK    2  A    between atoms: C_4  and  C_2 
REMARK    3  A    between atoms: C_3  and  C_6 
REMARK    4  A    between atoms: C_6  and  C_4 
REMARK    5  A    between atoms: O_11  and  C_7 
REMARK    6  A    between atoms: C_14  and  O_11 
ROOT
ATOM      1  C   UNL d   1      14.358  12.733  -1.239  0.00  0.00     0.107 A 
ATOM      2  C   UNL d   1      14.751  13.353  -0.850  0.00  0.00     0.118 A 
ATOM      3  C   UNL d   1      14.479  11.973  -1.023  0.00  0.00     0.021 A 
ATOM      4  C   UNL d   1      15.272  13.178  -0.234  0.00  0.00     0.026 A 
ATOM      5  C   UNL d   1      14.999  11.780  -0.406  0.00  0.00     0.002 A 
ATOM      6  C   UNL d   1      15.392  12.367  -0.014  0.00  0.00     0.002 A 
ENDROOT
BRANCH   1   7
ATOM      7  N   UNL d   1      13.834  12.907  -1.859  0.00  0.00    -0.206 NA
ATOM      8  C   UNL d   1      13.797  12.426  -2.525  0.00  0.00     0.280 C 
ATOM      9  O   UNL d   1      14.271  11.779  -2.582  0.00  0.00    -0.265 OA
BRANCH   8  10
ATOM     10  C   UNL d   1      13.264  12.605  -3.153  0.00  0.00     0.068 C 
BRANCH  10  11
ATOM     11  C   UNL d   1      13.160  12.073  -3.770  0.00  0.00     0.069 C 
BRANCH  11  12
ATOM     12  C   UNL d   1      13.109  12.352  -4.532  0.00  0.00     0.297 C 
ATOM     13  O   UNL d   1      13.270  11.844  -5.161  0.00  0.00    -0.264 OA
ATOM     14  N   UNL d   1      12.901  13.131  -4.694  0.00  0.00    -0.102 N 
ENDBRANCH  11  12
ENDBRANCH  10  11
ENDBRANCH   8  10
ENDBRANCH   1   7
BRANCH   2  15
ATOM     15  O   UNL d   1      14.629  14.148  -1.071  0.00  0.00    -0.304 OA
BRANCH  15  16
ATOM     16  C   UNL d   1      15.045  14.760  -0.685  0.00  0.00     0.123 C 
ATOM     17  C   UNL d   1      15.247  15.434  -1.129  0.00  0.00     0.029 C 
ENDBRANCH  15  16
ENDBRANCH   2  15
TORSDOF 6
ENDMDL
