MODEL 1
REMARK VINA RESULT:      22.1      0.000      0.000
REMARK  1 active torsions:
REMARK  status: ('A' for Active; 'I' for Inactive)
REMARK    1  A    between atoms: C_7  and  N_2 
ROOT
ATOM      1  C   UNL d   1     -58.436 -98.787 -45.415  0.00  0.00     0.304 A 
ATOM      2  N   UNL d   1     -58.026 -98.792 -44.679  0.00  0.00    -0.272 N 
ATOM      3  C   UNL d   1     -59.264 -98.772 -45.257  0.00  0.00     0.253 A 
ATOM      4  C   UNL d   1     -58.572 -98.781 -44.082  0.00  0.00     0.070 A 
ATOM      5  C   UNL d   1     -59.320 -98.769 -44.431  0.00  0.00     0.060 A 
ATOM      6  O   UNL d   1     -58.074 -98.795 -46.191  0.00  0.00    -0.263 OA
ATOM      7  O   UNL d   1     -59.894 -98.763 -45.766  0.00  0.00    -0.281 OA
ATOM      8  C   UNL d   1     -58.516 -98.780 -43.323  0.00  0.00     0.018 A 
ATOM      9  C   UNL d   1     -59.960 -98.757 -43.997  0.00  0.00     0.005 A 
ATOM     10  C   UNL d   1     -59.169 -98.768 -42.804  0.00  0.00     0.002 A 
ATOM     11  C   UNL d   1     -59.917 -98.756 -43.153  0.00  0.00     0.000 A 
ENDROOT
BRANCH   2  12
ATOM     12  C   UNL d   1     -57.225 -98.805 -44.538  0.00  0.00     0.067 A 
ATOM     13  C   UNL d   1     -56.931 -98.867 -43.780  0.00  0.00     0.018 A 
ATOM     14  C   UNL d   1     -56.115 -98.879 -43.647  0.00  0.00     0.002 A 
ATOM     15  C   UNL d   1     -55.605 -98.830 -44.279  0.00  0.00     0.000 A 
ATOM     16  C   UNL d   1     -55.899 -98.768 -45.053  0.00  0.00     0.002 A 
ATOM     17  C   UNL d   1     -56.710 -98.755 -45.183  0.00  0.00     0.018 A 
ENDBRANCH   2  12
TORSDOF 1
ENDMDL
