MODEL 1
REMARK VINA RESULT:      -4.3      0.000      0.000
REMARK  4 active torsions:
REMARK  status: ('A' for Active; 'I' for Inactive)
REMARK    1  A    between atoms: N_7  and  C_1 
REMARK    2  A    between atoms: C_12  and  N_4 
REMARK    3  A    between atoms: S_6  and  N_7 
REMARK    4  A    between atoms: C_11  and  S_6 
ROOT
ATOM      1  C   UNL d   1      58.143   0.177  30.732  0.00  0.00     0.169 A 
ATOM      2  C   UNL d   1      57.386   0.002  31.028  0.00  0.00     0.299 A 
ATOM      3  N   UNL d   1      58.133   0.449  32.041  0.00  0.00    -0.238 N 
ATOM      4  N   UNL d   1      57.377   0.167  31.824  0.00  0.00    -0.209 N 
ATOM      5  C   UNL d   1      58.594   0.443  31.321  0.00  0.00     0.105 A 
ATOM      6  O   UNL d   1      56.742  -0.296  30.570  0.00  0.00    -0.263 OA
ATOM      7  C   UNL d   1      58.371   0.682  32.789  0.00  0.00     0.120 C 
ATOM      8  C   UNL d   1      59.408   0.682  31.244  0.00  0.00     0.022 C 
ENDROOT
BRANCH   1   9
ATOM      9  N   UNL d   1      58.410   0.089  29.918  0.00  0.00    -0.152 NA
BRANCH   9  10
ATOM     10  S   UNL d   1      58.723  -0.623  29.649  0.00  0.00     0.285 S 
ATOM     11  O   UNL d   1      59.459  -0.413  29.950  0.00  0.00    -0.198 OA
ATOM     12  O   UNL d   1      57.956  -0.838  29.336  0.00  0.00    -0.198 OA
BRANCH  10  13
ATOM     13  C   UNL d   1      59.025  -1.337  29.376  0.00  0.00     0.105 A 
ATOM     14  C   UNL d   1      58.537  -2.009  29.325  0.00  0.00     0.013 A 
ATOM     15  C   UNL d   1      58.835  -2.737  29.050  0.00  0.00     0.001 A 
ATOM     16  C   UNL d   1      59.618  -2.780  28.829  0.00  0.00     0.000 A 
ATOM     17  C   UNL d   1      60.124  -2.098  28.877  0.00  0.00     0.001 A 
ATOM     18  C   UNL d   1      59.836  -1.397  29.143  0.00  0.00     0.013 A 
ENDBRANCH  10  13
ENDBRANCH   9  10
ENDBRANCH   1   9
BRANCH   4  19
ATOM     19  C   UNL d   1      56.722   0.065  32.317  0.00  0.00     0.085 A 
ATOM     20  C   UNL d   1      56.189   0.681  32.445  0.00  0.00     0.019 A 
ATOM     21  C   UNL d   1      55.531   0.577  32.941  0.00  0.00     0.002 A 
ATOM     22  C   UNL d   1      55.408  -0.136  33.306  0.00  0.00     0.000 A 
ATOM     23  C   UNL d   1      55.939  -0.747  33.178  0.00  0.00     0.002 A 
ATOM     24  C   UNL d   1      56.593  -0.652  32.688  0.00  0.00     0.019 A 
ENDBRANCH   4  19
TORSDOF 4
ENDMDL
MODEL 2
REMARK VINA RESULT:      -4.2      1.155      4.306
REMARK  4 active torsions:
REMARK  status: ('A' for Active; 'I' for Inactive)
REMARK    1  A    between atoms: N_7  and  C_1 
REMARK    2  A    between atoms: C_12  and  N_4 
REMARK    3  A    between atoms: S_6  and  N_7 
REMARK    4  A    between atoms: C_11  and  S_6 
ROOT
ATOM      1  C   UNL d   1      58.467  -0.575  29.518  0.00  0.00     0.169 A 
ATOM      2  C   UNL d   1      58.638  -1.388  29.538  0.00  0.00     0.299 A 
ATOM      3  N   UNL d   1      59.669  -0.762  28.964  0.00  0.00    -0.238 N 
ATOM      4  N   UNL d   1      59.369  -1.505  29.202  0.00  0.00    -0.209 N 
ATOM      5  C   UNL d   1      59.069  -0.194  29.181  0.00  0.00     0.105 A 
ATOM      6  O   UNL d   1      58.132  -1.985  29.857  0.00  0.00    -0.263 OA
ATOM      7  C   UNL d   1      60.389  -0.620  28.600  0.00  0.00     0.120 C 
ATOM      8  C   UNL d   1      59.106   0.648  29.057  0.00  0.00     0.022 C 
ENDROOT
BRANCH   1   9
ATOM      9  N   UNL d   1      57.754  -0.192  29.813  0.00  0.00    -0.152 NA
BRANCH   9  10
ATOM     10  S   UNL d   1      57.652  -0.047  30.617  0.00  0.00     0.285 S 
ATOM     11  O   UNL d   1      58.024   0.682  30.533  0.00  0.00    -0.198 OA
ATOM     12  O   UNL d   1      57.266  -0.806  30.702  0.00  0.00    -0.198 OA
BRANCH  10  13
ATOM     13  C   UNL d   1      57.545   0.087  31.422  0.00  0.00     0.105 A 
ATOM     14  C   UNL d   1      56.890  -0.236  31.818  0.00  0.00     0.013 A 
ATOM     15  C   UNL d   1      56.773  -0.105  32.634  0.00  0.00     0.001 A 
ATOM     16  C   UNL d   1      57.316   0.348  33.037  0.00  0.00     0.000 A 
ATOM     17  C   UNL d   1      57.990   0.682  32.639  0.00  0.00     0.001 A 
ATOM     18  C   UNL d   1      58.101   0.555  31.854  0.00  0.00     0.013 A 
ENDBRANCH  10  13
ENDBRANCH   9  10
ENDBRANCH   1   9
BRANCH   4  19
ATOM     19  C   UNL d   1      59.735  -2.240  29.118  0.00  0.00     0.085 A 
ATOM     20  C   UNL d   1      59.481  -2.778  28.546  0.00  0.00     0.019 A 
ATOM     21  C   UNL d   1      59.851  -3.517  28.464  0.00  0.00     0.002 A 
ATOM     22  C   UNL d   1      60.469  -3.716  28.948  0.00  0.00     0.000 A 
ATOM     23  C   UNL d   1      60.721  -3.182  29.516  0.00  0.00     0.002 A 
ATOM     24  C   UNL d   1      60.360  -2.448  29.604  0.00  0.00     0.019 A 
ENDBRANCH   4  19
TORSDOF 4
ENDMDL
MODEL 3
REMARK VINA RESULT:      -3.1      1.118      4.300
REMARK  4 active torsions:
REMARK  status: ('A' for Active; 'I' for Inactive)
REMARK    1  A    between atoms: N_7  and  C_1 
REMARK    2  A    between atoms: C_12  and  N_4 
REMARK    3  A    between atoms: S_6  and  N_7 
REMARK    4  A    between atoms: C_11  and  S_6 
ROOT
ATOM      1  C   UNL d   1      58.209   0.270  30.493  0.00  0.00     0.169 A 
ATOM      2  C   UNL d   1      58.902  -0.189  30.495  0.00  0.00     0.299 A 
ATOM      3  N   UNL d   1      58.405  -0.197  29.256  0.00  0.00    -0.238 N 
ATOM      4  N   UNL d   1      59.023  -0.474  29.744  0.00  0.00    -0.209 N 
ATOM      5  C   UNL d   1      57.905   0.273  29.766  0.00  0.00     0.105 A 
ATOM      6  O   UNL d   1      59.391  -0.330  31.170  0.00  0.00    -0.263 OA
ATOM      7  C   UNL d   1      58.306  -0.349  28.457  0.00  0.00     0.120 C 
ATOM      8  C   UNL d   1      57.194   0.682  29.535  0.00  0.00     0.022 C 
ENDROOT
BRANCH   1   9
ATOM      9  N   UNL d   1      57.863   0.682  31.166  0.00  0.00    -0.152 NA
BRANCH   9  10
ATOM     10  S   UNL d   1      57.307   0.313  31.649  0.00  0.00     0.285 S 
ATOM     11  O   UNL d   1      56.754   0.351  31.041  0.00  0.00    -0.198 OA
ATOM     12  O   UNL d   1      57.884   0.275  32.279  0.00  0.00    -0.198 OA
BRANCH  10  13
ATOM     13  C   UNL d   1      56.759  -0.055  32.140  0.00  0.00     0.105 A 
ATOM     14  C   UNL d   1      56.697  -0.884  32.152  0.00  0.00     0.013 A 
ATOM     15  C   UNL d   1      56.145  -1.267  32.647  0.00  0.00     0.001 A 
ATOM     16  C   UNL d   1      55.665  -0.810  33.120  0.00  0.00     0.000 A 
ATOM     17  C   UNL d   1      55.722   0.039  33.114  0.00  0.00     0.001 A 
ATOM     18  C   UNL d   1      56.254   0.405  32.637  0.00  0.00     0.013 A 
ENDBRANCH  10  13
ENDBRANCH   9  10
ENDBRANCH   1   9
BRANCH   4  19
ATOM     19  C   UNL d   1      59.657  -0.955  29.520  0.00  0.00     0.085 A 
ATOM     20  C   UNL d   1      60.385  -0.627  29.312  0.00  0.00     0.019 A 
ATOM     21  C   UNL d   1      61.020  -1.112  29.088  0.00  0.00     0.002 A 
ATOM     22  C   UNL d   1      60.929  -1.917  29.072  0.00  0.00     0.000 A 
ATOM     23  C   UNL d   1      60.206  -2.242  29.279  0.00  0.00     0.002 A 
ATOM     24  C   UNL d   1      59.571  -1.768  29.502  0.00  0.00     0.019 A 
ENDBRANCH   4  19
TORSDOF 4
ENDMDL
MODEL 4
REMARK VINA RESULT:      -1.5      8.964     10.160
REMARK  4 active torsions:
REMARK  status: ('A' for Active; 'I' for Inactive)
REMARK    1  A    between atoms: N_7  and  C_1 
REMARK    2  A    between atoms: C_12  and  N_4 
REMARK    3  A    between atoms: S_6  and  N_7 
REMARK    4  A    between atoms: C_11  and  S_6 
ROOT
ATOM      1  C   UNL d   1      59.619  -9.813  33.543  0.00  0.00     0.169 A 
ATOM      2  C   UNL d   1      60.136  -9.809  32.893  0.00  0.00     0.299 A 
ATOM      3  N   UNL d   1      58.885  -9.812  32.425  0.00  0.00    -0.238 N 
ATOM      4  N   UNL d   1      59.693  -9.809  32.212  0.00  0.00    -0.209 N 
ATOM      5  C   UNL d   1      58.876  -9.814  33.281  0.00  0.00     0.105 A 
ATOM      6  O   UNL d   1      60.980  -9.807  32.942  0.00  0.00    -0.263 OA
ATOM      7  C   UNL d   1      58.244  -9.812  31.916  0.00  0.00     0.120 C 
ATOM      8  C   UNL d   1      58.182  -9.818  33.775  0.00  0.00     0.022 C 
ENDROOT
BRANCH   1   9
ATOM      9  N   UNL d   1      59.839  -9.814  34.376  0.00  0.00    -0.152 NA
BRANCH   9  10
ATOM     10  S   UNL d   1      59.937  -9.110  34.790  0.00  0.00     0.285 S 
ATOM     11  O   UNL d   1      60.734  -9.099  34.587  0.00  0.00    -0.198 OA
ATOM     12  O   UNL d   1      59.107  -9.122  35.000  0.00  0.00    -0.198 OA
BRANCH  10  13
ATOM     13  C   UNL d   1      60.022  -8.405  35.207  0.00  0.00     0.105 A 
ATOM     14  C   UNL d   1      59.353  -7.988  35.469  0.00  0.00     0.013 A 
ATOM     15  C   UNL d   1      59.430  -7.274  35.893  0.00  0.00     0.001 A 
ATOM     16  C   UNL d   1      60.178  -6.990  36.045  0.00  0.00     0.000 A 
ATOM     17  C   UNL d   1      60.868  -7.411  35.780  0.00  0.00     0.001 A 
ATOM     18  C   UNL d   1      60.792  -8.098  35.373  0.00  0.00     0.013 A 
ENDBRANCH  10  13
ENDBRANCH   9  10
ENDBRANCH   1   9
BRANCH   4  19
ATOM     19  C   UNL d   1      60.006  -9.806  31.448  0.00  0.00     0.085 A 
ATOM     20  C   UNL d   1      59.512  -9.790  30.787  0.00  0.00     0.019 A 
ATOM     21  C   UNL d   1      59.829  -9.787  30.020  0.00  0.00     0.002 A 
ATOM     22  C   UNL d   1      60.631  -9.799  29.913  0.00  0.00     0.000 A 
ATOM     23  C   UNL d   1      61.122  -9.815  30.570  0.00  0.00     0.002 A 
ATOM     24  C   UNL d   1      60.816  -9.818  31.333  0.00  0.00     0.019 A 
ENDBRANCH   4  19
TORSDOF 4
ENDMDL
