MODEL 1
REMARK VINA RESULT:      -8.5      0.000      0.000
REMARK  3 active torsions:
REMARK  status: ('A' for Active; 'I' for Inactive)
REMARK    1  A    between atoms: C_7  and  C_2 
REMARK       I    between atoms: N_9  and  C_7 
REMARK    2  A    between atoms: C_12  and  N_9 
REMARK    3  A    between atoms: C_11  and  C_12 
ROOT
ATOM      1  C   UNL d   1     -48.883  13.565  21.650  0.00  0.00     0.285 C 
ATOM      2  N   UNL d   1     -48.269  13.090  21.929  0.00  0.00    -0.206 NA
ATOM      3  O   UNL d   1     -49.169  13.467  20.883  0.00  0.00    -0.265 OA
ENDROOT
BRANCH   1   4
ATOM      4  C   UNL d   1     -49.216  14.146  22.145  0.00  0.00     0.133 A 
ATOM      5  C   UNL d   1     -49.995  14.072  22.418  0.00  0.00     0.272 A 
ATOM      6  N   UNL d   1     -50.311  14.645  22.903  0.00  0.00    -0.252 N 
ATOM      7  O   UNL d   1     -50.445  13.419  22.198  0.00  0.00    -0.266 OA
ATOM      8  C   UNL d   1     -49.861  15.298  23.123  0.00  0.00     0.182 A 
ATOM      9  C   UNL d   1     -51.052  14.724  23.254  0.00  0.00     0.092 A 
ATOM     10  N   UNL d   1     -49.095  15.378  22.858  0.00  0.00    -0.220 NA
ATOM     11  S   UNL d   1     -50.322  15.782  23.611  0.00  0.00    -0.048 SA
ATOM     12  C   UNL d   1     -48.766  14.799  22.366  0.00  0.00     0.111 A 
ATOM     13  C   UNL d   1     -51.058  15.424  23.690  0.00  0.00     0.057 A 
ENDBRANCH   1   4
BRANCH   2  14
ATOM     14  C   UNL d   1     -47.987  13.191  22.696  0.00  0.00     0.103 C 
BRANCH  14  15
ATOM     15  C   UNL d   1     -47.506  12.614  23.028  0.00  0.00     0.030 A 
ATOM     16  C   UNL d   1     -46.694  12.751  23.124  0.00  0.00     0.059 A 
ATOM     17 CL   UNL d   1     -46.370  13.469  22.884  0.00  0.00    -0.082 Cl
ATOM     18  C   UNL d   1     -46.210  12.181  23.454  0.00  0.00     0.011 A 
ATOM     19  C   UNL d   1     -46.534  11.455  23.698  0.00  0.00     0.001 A 
ATOM     20  C   UNL d   1     -47.342  11.316  23.604  0.00  0.00     0.000 A 
ATOM     21  C   UNL d   1     -47.830  11.896  23.269  0.00  0.00     0.002 A 
ENDBRANCH  14  15
ENDBRANCH   2  14
TORSDOF 3
ENDMDL
MODEL 2
REMARK VINA RESULT:      -8.4      1.401      1.837
REMARK  3 active torsions:
REMARK  status: ('A' for Active; 'I' for Inactive)
REMARK    1  A    between atoms: C_7  and  C_2 
REMARK       I    between atoms: N_9  and  C_7 
REMARK    2  A    between atoms: C_12  and  N_9 
REMARK    3  A    between atoms: C_11  and  C_12 
ROOT
ATOM      1  C   UNL d   1     -49.615  11.737  23.441  0.00  0.00     0.285 C 
ATOM      2  N   UNL d   1     -48.796  11.641  23.487  0.00  0.00    -0.206 NA
ATOM      3  O   UNL d   1     -50.117  11.119  23.652  0.00  0.00    -0.265 OA
ENDROOT
BRANCH   1   4
ATOM      4  C   UNL d   1     -49.934  12.460  23.179  0.00  0.00     0.133 A 
ATOM      5  C   UNL d   1     -50.210  12.543  22.403  0.00  0.00     0.272 A 
ATOM      6  N   UNL d   1     -50.520  13.255  22.156  0.00  0.00    -0.252 N 
ATOM      7  O   UNL d   1     -50.169  11.905  21.883  0.00  0.00    -0.266 OA
ATOM      8  C   UNL d   1     -50.561  13.892  22.675  0.00  0.00     0.182 A 
ATOM      9  C   UNL d   1     -50.832  13.501  21.435  0.00  0.00     0.092 A 
ATOM     10  N   UNL d   1     -50.292  13.818  23.441  0.00  0.00    -0.220 NA
ATOM     11  S   UNL d   1     -50.898  14.534  22.276  0.00  0.00    -0.048 SA
ATOM     12  C   UNL d   1     -49.975  13.097  23.698  0.00  0.00     0.111 A 
ATOM     13  C   UNL d   1     -51.064  14.289  21.509  0.00  0.00     0.057 A 
ENDBRANCH   1   4
BRANCH   2  14
ATOM     14  C   UNL d   1     -48.298  12.261  23.274  0.00  0.00     0.103 C 
BRANCH  14  15
ATOM     15  C   UNL d   1     -47.484  12.156  23.314  0.00  0.00     0.030 A 
ATOM     16  C   UNL d   1     -46.973  12.733  23.007  0.00  0.00     0.059 A 
ATOM     17 CL   UNL d   1     -47.285  13.411  22.661  0.00  0.00    -0.082 Cl
ATOM     18  C   UNL d   1     -46.163  12.634  23.043  0.00  0.00     0.011 A 
ATOM     19  C   UNL d   1     -45.844  11.949  23.392  0.00  0.00     0.001 A 
ATOM     20  C   UNL d   1     -46.350  11.375  23.698  0.00  0.00     0.000 A 
ATOM     21  C   UNL d   1     -47.172  11.477  23.660  0.00  0.00     0.002 A 
ENDBRANCH  14  15
ENDBRANCH   2  14
TORSDOF 3
ENDMDL
MODEL 3
REMARK VINA RESULT:      -8.2      1.430      1.772
REMARK  3 active torsions:
REMARK  status: ('A' for Active; 'I' for Inactive)
REMARK    1  A    between atoms: C_7  and  C_2 
REMARK       I    between atoms: N_9  and  C_7 
REMARK    2  A    between atoms: C_12  and  N_9 
REMARK    3  A    between atoms: C_11  and  C_12 
ROOT
ATOM      1  C   UNL d   1     -47.614  14.379  22.745  0.00  0.00     0.285 C 
ATOM      2  N   UNL d   1     -47.174  13.750  23.047  0.00  0.00    -0.206 NA
ATOM      3  O   UNL d   1     -47.320  15.148  22.780  0.00  0.00    -0.265 OA
ENDROOT
BRANCH   1   4
ATOM      4  C   UNL d   1     -48.360  14.236  22.402  0.00  0.00     0.133 A 
ATOM      5  C   UNL d   1     -49.052  14.498  22.773  0.00  0.00     0.272 A 
ATOM      6  N   UNL d   1     -49.777  14.353  22.430  0.00  0.00    -0.252 N 
ATOM      7  O   UNL d   1     -49.004  14.904  23.488  0.00  0.00    -0.266 OA
ATOM      8  C   UNL d   1     -49.824  13.947  21.716  0.00  0.00     0.182 A 
ATOM      9  C   UNL d   1     -50.544  14.540  22.662  0.00  0.00     0.092 A 
ATOM     10  N   UNL d   1     -49.148  13.686  21.344  0.00  0.00    -0.220 NA
ATOM     11  S   UNL d   1     -50.622  13.882  21.504  0.00  0.00    -0.048 SA
ATOM     12  C   UNL d   1     -48.407  13.830  21.688  0.00  0.00     0.111 A 
ATOM     13  C   UNL d   1     -51.064  14.250  22.091  0.00  0.00     0.057 A 
ENDBRANCH   1   4
BRANCH   2  14
ATOM     14  C   UNL d   1     -47.472  12.983  23.009  0.00  0.00     0.103 C 
BRANCH  14  15
ATOM     15  C   UNL d   1     -46.985  12.351  23.204  0.00  0.00     0.030 A 
ATOM     16  C   UNL d   1     -47.312  11.645  23.491  0.00  0.00     0.059 A 
ATOM     17 CL   UNL d   1     -48.127  11.580  23.580  0.00  0.00    -0.082 Cl
ATOM     18  C   UNL d   1     -46.833  11.012  23.686  0.00  0.00     0.011 A 
ATOM     19  C   UNL d   1     -46.008  11.075  23.597  0.00  0.00     0.001 A 
ATOM     20  C   UNL d   1     -45.681  11.776  23.312  0.00  0.00     0.000 A 
ATOM     21  C   UNL d   1     -46.169  12.417  23.115  0.00  0.00     0.002 A 
ENDBRANCH  14  15
ENDBRANCH   2  14
TORSDOF 3
ENDMDL
MODEL 4
REMARK VINA RESULT:      -7.6      1.736      3.902
REMARK  3 active torsions:
REMARK  status: ('A' for Active; 'I' for Inactive)
REMARK    1  A    between atoms: C_7  and  C_2 
REMARK       I    between atoms: N_9  and  C_7 
REMARK    2  A    between atoms: C_12  and  N_9 
REMARK    3  A    between atoms: C_11  and  C_12 
ROOT
ATOM      1  C   UNL d   1     -48.571  13.023  21.441  0.00  0.00     0.285 C 
ATOM      2  N   UNL d   1     -49.026  13.672  21.674  0.00  0.00    -0.206 NA
ATOM      3  O   UNL d   1     -48.449  12.866  20.642  0.00  0.00    -0.265 OA
ENDROOT
BRANCH   1   4
ATOM      4  C   UNL d   1     -48.235  12.525  22.018  0.00  0.00     0.133 A 
ATOM      5  C   UNL d   1     -47.433  12.591  22.216  0.00  0.00     0.272 A 
ATOM      6  N   UNL d   1     -47.113  12.100  22.781  0.00  0.00    -0.252 N 
ATOM      7  O   UNL d   1     -46.964  13.154  21.840  0.00  0.00    -0.266 OA
ATOM      8  C   UNL d   1     -47.582  11.538  23.157  0.00  0.00     0.182 A 
ATOM      9  C   UNL d   1     -46.352  12.035  23.089  0.00  0.00     0.092 A 
ATOM     10  N   UNL d   1     -48.371  11.467  22.967  0.00  0.00    -0.220 NA
ATOM     11  S   UNL d   1     -47.112  11.124  23.698  0.00  0.00    -0.048 SA
ATOM     12  C   UNL d   1     -48.704  11.963  22.393  0.00  0.00     0.111 A 
ATOM     13  C   UNL d   1     -46.352  11.433  23.653  0.00  0.00     0.057 A 
ENDBRANCH   1   4
BRANCH   2  14
ATOM     14  C   UNL d   1     -49.146  13.825  22.473  0.00  0.00     0.103 C 
BRANCH  14  15
ATOM     15  C   UNL d   1     -49.707  14.380  22.699  0.00  0.00     0.030 A 
ATOM     16  C   UNL d   1     -49.480  15.056  23.121  0.00  0.00     0.059 A 
ATOM     17 CL   UNL d   1     -48.688  15.169  23.315  0.00  0.00    -0.082 Cl
ATOM     18  C   UNL d   1     -50.034  15.613  23.348  0.00  0.00     0.011 A 
ATOM     19  C   UNL d   1     -50.835  15.502  23.154  0.00  0.00     0.001 A 
ATOM     20  C   UNL d   1     -51.064  14.830  22.734  0.00  0.00     0.000 A 
ATOM     21  C   UNL d   1     -50.500  14.267  22.505  0.00  0.00     0.002 A 
ENDBRANCH  14  15
ENDBRANCH   2  14
TORSDOF 3
ENDMDL
MODEL 5
REMARK VINA RESULT:      -7.1      9.275     10.604
REMARK  3 active torsions:
REMARK  status: ('A' for Active; 'I' for Inactive)
REMARK    1  A    between atoms: C_7  and  C_2 
REMARK       I    between atoms: N_9  and  C_7 
REMARK    2  A    between atoms: C_12  and  N_9 
REMARK    3  A    between atoms: C_11  and  C_12 
ROOT
ATOM      1  C   UNL d   1     -40.639  14.421  18.339  0.00  0.00     0.285 C 
ATOM      2  N   UNL d   1     -40.564  14.616  19.138  0.00  0.00    -0.206 NA
ATOM      3  O   UNL d   1     -41.296  14.000  18.074  0.00  0.00    -0.265 OA
ENDROOT
BRANCH   1   4
ATOM      4  C   UNL d   1     -40.048  14.650  17.800  0.00  0.00     0.133 A 
ATOM      5  C   UNL d   1     -39.534  14.089  17.472  0.00  0.00     0.272 A 
ATOM      6  N   UNL d   1     -38.959  14.323  16.945  0.00  0.00    -0.252 N 
ATOM      7  O   UNL d   1     -39.608  13.296  17.682  0.00  0.00    -0.266 OA
ATOM      8  C   UNL d   1     -38.885  15.116  16.736  0.00  0.00     0.182 A 
ATOM      9  C   UNL d   1     -38.380  13.903  16.537  0.00  0.00     0.092 A 
ATOM     10  N   UNL d   1     -39.387  15.674  17.053  0.00  0.00    -0.220 NA
ATOM     11  S   UNL d   1     -38.261  15.187  16.197  0.00  0.00    -0.048 SA
ATOM     12  C   UNL d   1     -39.974  15.443  17.590  0.00  0.00     0.111 A 
ATOM     13  C   UNL d   1     -37.950  14.436  16.077  0.00  0.00     0.057 A 
ENDBRANCH   1   4
BRANCH   2  14
ATOM     14  C   UNL d   1     -39.906  15.036  19.399  0.00  0.00     0.103 C 
BRANCH  14  15
ATOM     15  C   UNL d   1     -39.892  15.329  20.166  0.00  0.00     0.030 A 
ATOM     16  C   UNL d   1     -39.187  15.327  20.601  0.00  0.00     0.059 A 
ATOM     17 CL   UNL d   1     -38.499  15.030  20.261  0.00  0.00    -0.082 Cl
ATOM     18  C   UNL d   1     -39.166  15.617  21.365  0.00  0.00     0.011 A 
ATOM     19  C   UNL d   1     -39.860  15.919  21.712  0.00  0.00     0.001 A 
ATOM     20  C   UNL d   1     -40.563  15.922  21.280  0.00  0.00     0.000 A 
ATOM     21  C   UNL d   1     -40.581  15.627  20.506  0.00  0.00     0.002 A 
ENDBRANCH  14  15
ENDBRANCH   2  14
TORSDOF 3
ENDMDL
MODEL 6
REMARK VINA RESULT:      -6.5      8.784      9.878
REMARK  3 active torsions:
REMARK  status: ('A' for Active; 'I' for Inactive)
REMARK    1  A    between atoms: C_7  and  C_2 
REMARK       I    between atoms: N_9  and  C_7 
REMARK    2  A    between atoms: C_12  and  N_9 
REMARK    3  A    between atoms: C_11  and  C_12 
ROOT
ATOM      1  C   UNL d   1     -40.884  15.479  20.580  0.00  0.00     0.285 C 
ATOM      2  N   UNL d   1     -41.003  15.431  19.764  0.00  0.00    -0.206 NA
ATOM      3  O   UNL d   1     -41.487  15.749  21.073  0.00  0.00    -0.265 OA
ENDROOT
BRANCH   1   4
ATOM      4  C   UNL d   1     -40.152  15.255  20.906  0.00  0.00     0.133 A 
ATOM      5  C   UNL d   1     -40.075  14.541  21.319  0.00  0.00     0.272 A 
ATOM      6  N   UNL d   1     -39.354  14.330  21.635  0.00  0.00    -0.252 N 
ATOM      7  O   UNL d   1     -40.729  14.048  21.410  0.00  0.00    -0.266 OA
ATOM      8  C   UNL d   1     -38.701  14.823  21.544  0.00  0.00     0.182 A 
ATOM      9  C   UNL d   1     -39.111  13.671  22.064  0.00  0.00     0.092 A 
ATOM     10  N   UNL d   1     -38.768  15.526  21.139  0.00  0.00    -0.220 NA
ATOM     11  S   UNL d   1     -38.053  14.469  21.918  0.00  0.00    -0.048 SA
ATOM     12  C   UNL d   1     -39.499  15.747  20.816  0.00  0.00     0.111 A 
ATOM     13  C   UNL d   1     -38.309  13.757  22.238  0.00  0.00     0.057 A 
ENDBRANCH   1   4
BRANCH   2  14
ATOM     14  C   UNL d   1     -40.398  15.162  19.276  0.00  0.00     0.103 C 
BRANCH  14  15
ATOM     15  C   UNL d   1     -40.483  15.216  18.461  0.00  0.00     0.030 A 
ATOM     16  C   UNL d   1     -40.195  14.613  17.970  0.00  0.00     0.059 A 
ATOM     17 CL   UNL d   1     -39.824  13.958  18.303  0.00  0.00    -0.082 Cl
ATOM     18  C   UNL d   1     -40.277  14.661  17.158  0.00  0.00     0.011 A 
ATOM     19  C   UNL d   1     -40.652  15.321  16.818  0.00  0.00     0.001 A 
ATOM     20  C   UNL d   1     -40.938  15.922  17.304  0.00  0.00     0.000 A 
ATOM     21  C   UNL d   1     -40.855  15.871  18.128  0.00  0.00     0.002 A 
ENDBRANCH  14  15
ENDBRANCH   2  14
TORSDOF 3
ENDMDL
