MODEL 1
REMARK VINA RESULT:      19.6      0.000      0.000
REMARK  3 active torsions:
REMARK  status: ('A' for Active; 'I' for Inactive)
REMARK    1  A    between atoms: C_14  and  C_4 
REMARK    2  A    between atoms: C_10  and  O_11 
REMARK    3  A    between atoms: O_11  and  C_14 
ROOT
ATOM      1  C   UNL d   1      13.215  11.959  -2.480  0.00  0.00     0.144 C 
ENDROOT
BRANCH   1   2
ATOM      2  O   UNL d   1      12.854  12.510  -2.990  0.00  0.00    -0.303 OA
BRANCH   2   3
ATOM      3  C   UNL d   1      13.033  12.512  -3.775  0.00  0.00     0.100 A 
ATOM      4  C   UNL d   1      13.021  13.220  -4.206  0.00  0.00     0.024 A 
ATOM      5  C   UNL d   1      13.209  13.206  -5.018  0.00  0.00     0.013 A 
ATOM      6  C   UNL d   1      12.831  13.934  -3.857  0.00  0.00     0.002 C 
ATOM      7  C   UNL d   1      13.405  12.501  -5.398  0.00  0.00     0.058 A 
ATOM      8  C   UNL d   1      13.417  11.793  -4.967  0.00  0.00     0.013 A 
ATOM      9 CL   UNL d   1      13.597  12.478  -6.225  0.00  0.00    -0.082 Cl
ATOM     10  C   UNL d   1      13.232  11.785  -4.153  0.00  0.00     0.026 A 
ENDBRANCH   2   3
ENDBRANCH   1   2
BRANCH   1  11
ATOM     11  C   UNL d   1      13.744  12.205  -1.919  0.00  0.00     0.142 A 
ATOM     12  N   UNL d   1      14.402  11.779  -1.659  0.00  0.00    -0.057 NA
ATOM     13  C   UNL d   1      14.777  12.226  -1.098  0.00  0.00     0.735 A 
ATOM     14  N   UNL d   1      14.363  12.919  -1.007  0.00  0.00    -0.136 N 
ATOM     15  N   UNL d   1      15.460  12.088  -0.647  0.00  0.00    -0.059 NA
ATOM     16  C   UNL d   1      13.735  12.889  -1.516  0.00  0.00     0.120 A 
ATOM     17  C   UNL d   1      14.637  13.485  -0.454  0.00  0.00     0.100 A 
ATOM     18  C   UNL d   1      15.300  13.351  -0.016  0.00  0.00     0.041 A 
ATOM     19  C   UNL d   1      15.717  12.644  -0.113  0.00  0.00     0.119 A 
ENDBRANCH   1  11
TORSDOF 3
ENDMDL
