MODEL 1
REMARK VINA RESULT:      -7.8      0.000      0.000
REMARK  8 active torsions:
REMARK  status: ('A' for Active; 'I' for Inactive)
REMARK    1  A    between atoms: C_6  and  N_1 
REMARK    2  A    between atoms: C_7  and  C_6 
REMARK    3  A    between atoms: C_12  and  C_7 
REMARK    4  A    between atoms: C_8  and  C_19 
REMARK    5  A    between atoms: C_9  and  C_20 
REMARK    6  A    between atoms: N_13  and  C_12 
REMARK    7  A    between atoms: C_19  and  N_13 
REMARK    8  A    between atoms: C_20  and  N_13 
ROOT
ATOM      1  N   UNL d   1      52.334  33.647  53.067  0.00  0.00    -0.303 N 
ATOM      2  C   UNL d   1      52.699  34.157  53.612  0.00  0.00     0.064 A 
ATOM      3  C   UNL d   1      52.646  32.885  53.185  0.00  0.00     0.064 A 
ATOM      4  C   UNL d   1      53.200  32.922  53.798  0.00  0.00     0.018 A 
ATOM      5  C   UNL d   1      53.238  33.709  54.067  0.00  0.00     0.018 A 
ATOM      6  C   UNL d   1      52.493  32.166  52.811  0.00  0.00     0.018 A 
ATOM      7  C   UNL d   1      52.614  34.965  53.753  0.00  0.00     0.018 A 
ATOM      8  C   UNL d   1      53.602  32.240  54.037  0.00  0.00     0.002 A 
ATOM      9  C   UNL d   1      53.680  34.074  54.652  0.00  0.00     0.002 A 
ATOM     10  C   UNL d   1      53.598  34.877  54.796  0.00  0.00     0.000 A 
ATOM     11  C   UNL d   1      53.064  35.324  54.346  0.00  0.00     0.002 A 
ATOM     12  C   UNL d   1      52.898  31.476  53.051  0.00  0.00     0.002 A 
ATOM     13  C   UNL d   1      53.452  31.521  53.665  0.00  0.00     0.000 A 
ENDROOT
BRANCH   1  14
ATOM     14  C   UNL d   1      51.765  33.854  52.511  0.00  0.00     0.124 C 
BRANCH  14  15
ATOM     15  C   UNL d   1      51.054  33.968  52.908  0.00  0.00     0.231 C 
ATOM     16  O   UNL d   1      50.788  33.273  53.273  0.00  0.00    -0.283 OA
BRANCH  15  17
ATOM     17  C   UNL d   1      50.544  34.604  53.032  0.00  0.00     0.124 C 
BRANCH  17  18
ATOM     18  N   UNL d   1      49.817  34.628  52.651  0.00  0.00    -0.300 N 
BRANCH  18  19
ATOM     19  C   UNL d   1      49.134  34.803  53.082  0.00  0.00     0.080 C 
BRANCH  19  20
ATOM     20  C   UNL d   1      49.010  35.566  53.373  0.00  0.00     0.019 C 
ATOM     21  C   UNL d   1      48.394  35.944  53.770  0.00  0.00     0.002 C 
ENDBRANCH  19  20
ENDBRANCH  18  19
BRANCH  18  22
ATOM     22  C   UNL d   1      49.766  34.479  51.847  0.00  0.00     0.080 C 
BRANCH  22  23
ATOM     23  C   UNL d   1      49.042  34.546  51.459  0.00  0.00     0.019 C 
ATOM     24  C   UNL d   1      48.799  34.486  50.673  0.00  0.00     0.002 C 
ENDBRANCH  22  23
ENDBRANCH  18  22
ENDBRANCH  17  18
ENDBRANCH  15  17
ENDBRANCH  14  15
ENDBRANCH   1  14
TORSDOF 8
ENDMDL
MODEL 2
REMARK VINA RESULT:      -7.6      0.058      2.287
REMARK  8 active torsions:
REMARK  status: ('A' for Active; 'I' for Inactive)
REMARK    1  A    between atoms: C_6  and  N_1 
REMARK    2  A    between atoms: C_7  and  C_6 
REMARK    3  A    between atoms: C_12  and  C_7 
REMARK    4  A    between atoms: C_8  and  C_19 
REMARK    5  A    between atoms: C_9  and  C_20 
REMARK    6  A    between atoms: N_13  and  C_12 
REMARK    7  A    between atoms: C_19  and  N_13 
REMARK    8  A    between atoms: C_20  and  N_13 
ROOT
ATOM      1  N   UNL d   1      52.369  33.626  53.048  0.00  0.00    -0.303 N 
ATOM      2  C   UNL d   1      52.659  32.857  53.171  0.00  0.00     0.064 A 
ATOM      3  C   UNL d   1      52.734  34.126  53.604  0.00  0.00     0.064 A 
ATOM      4  C   UNL d   1      53.247  33.671  54.068  0.00  0.00     0.018 A 
ATOM      5  C   UNL d   1      53.204  32.882  53.804  0.00  0.00     0.018 A 
ATOM      6  C   UNL d   1      52.663  34.935  53.743  0.00  0.00     0.018 A 
ATOM      7  C   UNL d   1      52.500  32.141  52.793  0.00  0.00     0.018 A 
ATOM      8  C   UNL d   1      53.687  34.025  54.671  0.00  0.00     0.002 A 
ATOM      9  C   UNL d   1      53.579  32.196  54.047  0.00  0.00     0.002 A 
ATOM     10  C   UNL d   1      53.424  31.482  53.674  0.00  0.00     0.000 A 
ATOM     11  C   UNL d   1      52.884  31.453  53.046  0.00  0.00     0.002 A 
ATOM     12  C   UNL d   1      53.107  35.296  54.351  0.00  0.00     0.002 A 
ATOM     13  C   UNL d   1      53.618  34.834  54.811  0.00  0.00     0.000 A 
ENDROOT
BRANCH   1  14
ATOM     14  C   UNL d   1      51.821  33.855  52.481  0.00  0.00     0.124 C 
BRANCH  14  15
ATOM     15  C   UNL d   1      51.094  33.945  52.856  0.00  0.00     0.231 C 
ATOM     16  O   UNL d   1      50.809  33.227  53.153  0.00  0.00    -0.283 OA
BRANCH  15  17
ATOM     17  C   UNL d   1      50.583  34.574  53.008  0.00  0.00     0.124 C 
BRANCH  17  18
ATOM     18  N   UNL d   1      49.848  34.604  52.643  0.00  0.00    -0.300 N 
BRANCH  18  19
ATOM     19  C   UNL d   1      49.786  34.458  51.832  0.00  0.00     0.080 C 
BRANCH  19  20
ATOM     20  C   UNL d   1      49.054  34.518  51.453  0.00  0.00     0.019 C 
ATOM     21  C   UNL d   1      48.799  34.465  50.672  0.00  0.00     0.002 C 
ENDBRANCH  19  20
ENDBRANCH  18  19
BRANCH  18  22
ATOM     22  C   UNL d   1      49.176  34.777  53.079  0.00  0.00     0.080 C 
BRANCH  22  23
ATOM     23  C   UNL d   1      49.024  35.550  53.317  0.00  0.00     0.019 C 
ATOM     24  C   UNL d   1      48.491  35.901  53.840  0.00  0.00     0.002 C 
ENDBRANCH  22  23
ENDBRANCH  18  22
ENDBRANCH  17  18
ENDBRANCH  15  17
ENDBRANCH  14  15
ENDBRANCH   1  14
TORSDOF 8
ENDMDL
MODEL 3
REMARK VINA RESULT:      -7.2      1.931      4.111
REMARK  8 active torsions:
REMARK  status: ('A' for Active; 'I' for Inactive)
REMARK    1  A    between atoms: C_6  and  N_1 
REMARK    2  A    between atoms: C_7  and  C_6 
REMARK    3  A    between atoms: C_12  and  C_7 
REMARK    4  A    between atoms: C_8  and  C_19 
REMARK    5  A    between atoms: C_9  and  C_20 
REMARK    6  A    between atoms: N_13  and  C_12 
REMARK    7  A    between atoms: C_19  and  N_13 
REMARK    8  A    between atoms: C_20  and  N_13 
ROOT
ATOM      1  N   UNL d   1      53.492  32.884  53.365  0.00  0.00    -0.303 N 
ATOM      2  C   UNL d   1      52.878  33.410  53.171  0.00  0.00     0.064 A 
ATOM      3  C   UNL d   1      53.830  33.142  54.080  0.00  0.00     0.064 A 
ATOM      4  C   UNL d   1      53.429  33.823  54.327  0.00  0.00     0.018 A 
ATOM      5  C   UNL d   1      52.837  33.994  53.767  0.00  0.00     0.018 A 
ATOM      6  C   UNL d   1      54.450  32.842  54.532  0.00  0.00     0.018 A 
ATOM      7  C   UNL d   1      52.354  33.436  52.534  0.00  0.00     0.018 A 
ATOM      8  C   UNL d   1      53.649  34.203  55.028  0.00  0.00     0.002 A 
ATOM      9  C   UNL d   1      52.277  34.589  53.718  0.00  0.00     0.002 A 
ATOM     10  C   UNL d   1      51.755  34.618  53.087  0.00  0.00     0.000 A 
ATOM     11  C   UNL d   1      51.792  34.041  52.493  0.00  0.00     0.002 A 
ATOM     12  C   UNL d   1      54.674  33.224  55.241  0.00  0.00     0.002 A 
ATOM     13  C   UNL d   1      54.268  33.905  55.482  0.00  0.00     0.000 A 
ENDROOT
BRANCH   1  14
ATOM     14  C   UNL d   1      53.726  32.227  52.931  0.00  0.00     0.124 C 
BRANCH  14  15
ATOM     15  C   UNL d   1      53.157  31.642  53.036  0.00  0.00     0.231 C 
ATOM     16  O   UNL d   1      52.698  31.530  52.356  0.00  0.00    -0.283 OA
BRANCH  15  17
ATOM     17  C   UNL d   1      52.934  31.141  53.653  0.00  0.00     0.124 C 
BRANCH  17  18
ATOM     18  N   UNL d   1      52.773  30.350  53.502  0.00  0.00    -0.300 N 
BRANCH  18  19
ATOM     19  C   UNL d   1      53.362  29.782  53.614  0.00  0.00     0.080 C 
BRANCH  19  20
ATOM     20  C   UNL d   1      53.400  29.356  54.321  0.00  0.00     0.019 C 
ATOM     21  C   UNL d   1      53.839  28.712  54.588  0.00  0.00     0.002 C 
ENDBRANCH  19  20
ENDBRANCH  18  19
BRANCH  18  22
ATOM     22  C   UNL d   1      52.030  30.122  53.241  0.00  0.00     0.080 C 
BRANCH  22  23
ATOM     23  C   UNL d   1      51.416  30.014  53.780  0.00  0.00     0.019 C 
ATOM     24  C   UNL d   1      50.609  29.857  53.715  0.00  0.00     0.002 C 
ENDBRANCH  22  23
ENDBRANCH  18  22
ENDBRANCH  17  18
ENDBRANCH  15  17
ENDBRANCH  14  15
ENDBRANCH   1  14
TORSDOF 8
ENDMDL
MODEL 4
REMARK VINA RESULT:      -7.1      1.928      4.086
REMARK  8 active torsions:
REMARK  status: ('A' for Active; 'I' for Inactive)
REMARK    1  A    between atoms: C_6  and  N_1 
REMARK    2  A    between atoms: C_7  and  C_6 
REMARK    3  A    between atoms: C_12  and  C_7 
REMARK    4  A    between atoms: C_8  and  C_19 
REMARK    5  A    between atoms: C_9  and  C_20 
REMARK    6  A    between atoms: N_13  and  C_12 
REMARK    7  A    between atoms: C_19  and  N_13 
REMARK    8  A    between atoms: C_20  and  N_13 
ROOT
ATOM      1  N   UNL d   1      53.493  32.880  53.361  0.00  0.00    -0.303 N 
ATOM      2  C   UNL d   1      53.832  33.134  54.076  0.00  0.00     0.064 A 
ATOM      3  C   UNL d   1      52.879  33.408  53.170  0.00  0.00     0.064 A 
ATOM      4  C   UNL d   1      52.837  33.985  53.762  0.00  0.00     0.018 A 
ATOM      5  C   UNL d   1      53.427  33.821  54.327  0.00  0.00     0.018 A 
ATOM      6  C   UNL d   1      52.356  33.433  52.534  0.00  0.00     0.018 A 
ATOM      7  C   UNL d   1      54.452  32.834  54.530  0.00  0.00     0.018 A 
ATOM      8  C   UNL d   1      52.273  34.588  53.717  0.00  0.00     0.002 A 
ATOM      9  C   UNL d   1      53.647  34.193  55.022  0.00  0.00     0.002 A 
ATOM     10  C   UNL d   1      54.263  33.898  55.476  0.00  0.00     0.000 A 
ATOM     11  C   UNL d   1      54.667  33.217  55.230  0.00  0.00     0.002 A 
ATOM     12  C   UNL d   1      51.785  34.041  52.486  0.00  0.00     0.002 A 
ATOM     13  C   UNL d   1      51.749  34.615  53.082  0.00  0.00     0.000 A 
ENDROOT
BRANCH   1  14
ATOM     14  C   UNL d   1      53.720  32.226  52.919  0.00  0.00     0.124 C 
BRANCH  14  15
ATOM     15  C   UNL d   1      53.155  31.639  53.032  0.00  0.00     0.231 C 
ATOM     16  O   UNL d   1      52.687  31.527  52.357  0.00  0.00    -0.283 OA
BRANCH  15  17
ATOM     17  C   UNL d   1      52.941  31.136  53.650  0.00  0.00     0.124 C 
BRANCH  17  18
ATOM     18  N   UNL d   1      52.768  30.348  53.498  0.00  0.00    -0.300 N 
BRANCH  18  19
ATOM     19  C   UNL d   1      53.350  29.771  53.607  0.00  0.00     0.080 C 
BRANCH  19  20
ATOM     20  C   UNL d   1      53.402  29.365  54.326  0.00  0.00     0.019 C 
ATOM     21  C   UNL d   1      53.841  28.723  54.598  0.00  0.00     0.002 C 
ENDBRANCH  19  20
ENDBRANCH  18  19
BRANCH  18  22
ATOM     22  C   UNL d   1      52.021  30.131  53.238  0.00  0.00     0.080 C 
BRANCH  22  23
ATOM     23  C   UNL d   1      51.413  30.011  53.780  0.00  0.00     0.019 C 
ATOM     24  C   UNL d   1      50.609  29.838  53.719  0.00  0.00     0.002 C 
ENDBRANCH  22  23
ENDBRANCH  18  22
ENDBRANCH  17  18
ENDBRANCH  15  17
ENDBRANCH  14  15
ENDBRANCH   1  14
TORSDOF 8
ENDMDL
MODEL 5
REMARK VINA RESULT:      -6.4      1.174      2.991
REMARK  8 active torsions:
REMARK  status: ('A' for Active; 'I' for Inactive)
REMARK    1  A    between atoms: C_6  and  N_1 
REMARK    2  A    between atoms: C_7  and  C_6 
REMARK    3  A    between atoms: C_12  and  C_7 
REMARK    4  A    between atoms: C_8  and  C_19 
REMARK    5  A    between atoms: C_9  and  C_20 
REMARK    6  A    between atoms: N_13  and  C_12 
REMARK    7  A    between atoms: C_19  and  N_13 
REMARK    8  A    between atoms: C_20  and  N_13 
ROOT
ATOM      1  N   UNL d   1      53.463  32.096  53.407  0.00  0.00    -0.303 N 
ATOM      2  C   UNL d   1      53.244  31.300  53.308  0.00  0.00     0.064 A 
ATOM      3  C   UNL d   1      53.735  32.189  54.187  0.00  0.00     0.064 A 
ATOM      4  C   UNL d   1      53.686  31.457  54.570  0.00  0.00     0.018 A 
ATOM      5  C   UNL d   1      53.382  30.901  54.028  0.00  0.00     0.018 A 
ATOM      6  C   UNL d   1      54.019  32.847  54.594  0.00  0.00     0.018 A 
ATOM      7  C   UNL d   1      52.940  30.888  52.661  0.00  0.00     0.018 A 
ATOM      8  C   UNL d   1      53.922  31.383  55.359  0.00  0.00     0.002 A 
ATOM      9  C   UNL d   1      53.215  30.102  54.091  0.00  0.00     0.002 A 
ATOM     10  C   UNL d   1      52.912  29.689  53.450  0.00  0.00     0.000 A 
ATOM     11  C   UNL d   1      52.775  30.081  52.734  0.00  0.00     0.002 A 
ATOM     12  C   UNL d   1      54.258  32.775  55.391  0.00  0.00     0.002 A 
ATOM     13  C   UNL d   1      54.206  32.039  55.767  0.00  0.00     0.000 A 
ENDROOT
BRANCH   1  14
ATOM     14  C   UNL d   1      53.419  32.688  52.838  0.00  0.00     0.124 C 
BRANCH  14  15
ATOM     15  C   UNL d   1      52.648  32.975  52.833  0.00  0.00     0.231 C 
ATOM     16  O   UNL d   1      52.199  32.646  52.219  0.00  0.00    -0.283 OA
BRANCH  15  17
ATOM     17  C   UNL d   1      52.214  33.508  53.289  0.00  0.00     0.124 C 
BRANCH  17  18
ATOM     18  N   UNL d   1      51.912  34.190  52.947  0.00  0.00    -0.300 N 
BRANCH  18  19
ATOM     19  C   UNL d   1      52.306  34.910  53.051  0.00  0.00     0.080 C 
BRANCH  19  20
ATOM     20  C   UNL d   1      52.345  35.259  53.799  0.00  0.00     0.019 C 
ATOM     21  C   UNL d   1      52.823  35.831  54.148  0.00  0.00     0.002 C 
ENDBRANCH  19  20
ENDBRANCH  18  19
BRANCH  18  22
ATOM     22  C   UNL d   1      51.223  34.162  52.504  0.00  0.00     0.080 C 
BRANCH  22  23
ATOM     23  C   UNL d   1      50.510  34.414  52.831  0.00  0.00     0.019 C 
ATOM     24  C   UNL d   1      49.742  34.506  52.545  0.00  0.00     0.002 C 
ENDBRANCH  22  23
ENDBRANCH  18  22
ENDBRANCH  17  18
ENDBRANCH  15  17
ENDBRANCH  14  15
ENDBRANCH   1  14
TORSDOF 8
ENDMDL
