MODEL 1
REMARK VINA RESULT:      79.9      0.000      0.000
REMARK  5 active torsions:
REMARK  status: ('A' for Active; 'I' for Inactive)
REMARK    1  A    between atoms: C_3  and  S_1 
REMARK    2  A    between atoms: C_7  and  S_1 
REMARK    3  A    between atoms: C_2  and  C_3 
REMARK    4  A    between atoms: C_9  and  C_3 
REMARK    5  A    between atoms: N_8  and  C_4 
ROOT
ATOM      1  C   UNL d   1     -51.442  25.192  33.683  0.00  0.00     0.128 A 
ATOM      2  C   UNL d   1     -51.094  24.459  33.582  0.00  0.00     0.166 A 
ATOM      3  N   UNL d   1     -52.266  25.273  33.667  0.00  0.00    -0.240 NA
ATOM      4  N   UNL d   1     -51.571  23.788  33.460  0.00  0.00    -0.225 NA
ATOM      5  C   UNL d   1     -52.732  24.607  33.546  0.00  0.00     0.099 A 
ATOM      6  C   UNL d   1     -52.388  23.872  33.444  0.00  0.00     0.101 A 
ATOM      7  C   UNL d   1     -52.869  23.208  33.324  0.00  0.00     0.021 A 
ATOM      8  C   UNL d   1     -53.550  24.690  33.530  0.00  0.00     0.021 A 
ATOM      9  C   UNL d   1     -53.683  23.284  33.307  0.00  0.00     0.002 A 
ATOM     10  C   UNL d   1     -54.021  24.026  33.410  0.00  0.00     0.002 A 
ENDROOT
BRANCH   1  11
ATOM     11  C   UNL d   1     -50.975  25.858  33.804  0.00  0.00     0.129 C 
BRANCH  11  12
ATOM     12  S   UNL d   1     -51.287  26.505  34.342  0.00  0.00     0.213 S 
ATOM     13  O   UNL d   1     -51.746  27.161  33.965  0.00  0.00    -0.217 OA
ATOM     14  O   UNL d   1     -51.530  26.708  33.571  0.00  0.00    -0.217 OA
BRANCH  12  15
ATOM     15  C   UNL d   1     -51.234  26.625  35.161  0.00  0.00     0.088 A 
ATOM     16  C   UNL d   1     -50.582  27.039  35.469  0.00  0.00     0.011 A 
ATOM     17  C   UNL d   1     -50.521  27.164  36.289  0.00  0.00     0.001 A 
ATOM     18  C   UNL d   1     -49.997  27.325  34.967  0.00  0.00     0.001 C 
ATOM     19  C   UNL d   1     -51.115  26.873  36.792  0.00  0.00     0.000 A 
ATOM     20  C   UNL d   1     -51.764  26.460  36.476  0.00  0.00     0.001 A 
ATOM     21  C   UNL d   1     -51.818  26.340  35.662  0.00  0.00     0.011 A 
ATOM     22  C   UNL d   1     -52.349  26.175  36.978  0.00  0.00     0.000 C 
ENDBRANCH  12  15
ENDBRANCH  11  12
BRANCH  11  23
ATOM     23  C   UNL d   1     -50.197  26.053  33.484  0.00  0.00     0.135 C 
ATOM     24  N   UNL d   1     -49.864  26.864  33.307  0.00  0.00    -0.146 N 
ENDBRANCH  11  23
ENDBRANCH   1  11
BRANCH   2  25
ATOM     25  N   UNL d   1     -50.265  24.381  33.599  0.00  0.00    -0.284 N 
ATOM     26  C   UNL d   1     -49.917  23.687  33.904  0.00  0.00     0.108 A 
ATOM     27  C   UNL d   1     -49.092  23.615  33.919  0.00  0.00     0.142 A 
ATOM     28  O   UNL d   1     -48.607  24.224  33.634  0.00  0.00    -0.300 OA
ATOM     29  C   UNL d   1     -48.955  24.918  33.329  0.00  0.00     0.142 A 
ATOM     30  C   UNL d   1     -49.788  25.004  33.308  0.00  0.00     0.108 A 
ENDBRANCH   2  25
TORSDOF 5
ENDMDL
