MODEL 1
REMARK VINA RESULT:      41.5      0.000      0.000
REMARK  5 active torsions:
REMARK  status: ('A' for Active; 'I' for Inactive)
REMARK       I    between atoms: C_2  and  N_1 
REMARK    1  A    between atoms: C_3  and  N_1 
REMARK    2  A    between atoms: C_7  and  C_2 
REMARK    3  A    between atoms: N_5  and  C_3 
REMARK    4  A    between atoms: C_8  and  N_5 
REMARK    5  A    between atoms: C_9  and  C_8 
ROOT
ATOM      1  C   UNL d   1     -49.778  27.393  33.684  0.00  0.00     0.179 C 
ATOM      2  S   UNL d   1     -50.337  27.896  33.324  0.00  0.00    -0.040 SA
ENDROOT
BRANCH   1   3
ATOM      3  N   UNL d   1     -49.868  26.581  33.639  0.00  0.00    -0.299 N 
ATOM      4  C   UNL d   1     -50.610  26.251  33.451  0.00  0.00     0.259 C 
ATOM      5  O   UNL d   1     -51.254  26.752  33.311  0.00  0.00    -0.267 OA
ATOM      6  H   UNL d   1     -49.222  26.091  33.780  0.00  0.00     0.171 HD
BRANCH   4   7
ATOM      7  C   UNL d   1     -50.695  25.431  33.406  0.00  0.00     0.056 A 
ATOM      8  C   UNL d   1     -50.029  24.953  33.414  0.00  0.00     0.005 A 
ATOM      9  C   UNL d   1     -50.119  24.128  33.369  0.00  0.00     0.000 A 
ATOM     10  C   UNL d   1     -50.875  23.792  33.316  0.00  0.00     0.000 A 
ATOM     11  C   UNL d   1     -51.545  24.283  33.309  0.00  0.00     0.000 A 
ATOM     12  C   UNL d   1     -51.453  25.114  33.355  0.00  0.00     0.005 A 
ENDBRANCH   4   7
ENDBRANCH   1   3
BRANCH   1  13
ATOM     13  N   UNL d   1     -49.134  27.721  34.088  0.00  0.00    -0.330 N 
ATOM     14  H   UNL d   1     -48.373  27.470  33.900  0.00  0.00     0.168 HD
BRANCH  13  15
ATOM     15  C   UNL d   1     -49.253  28.284  34.664  0.00  0.00     0.074 C 
BRANCH  15  16
ATOM     16  C   UNL d   1     -48.622  28.800  34.880  0.00  0.00     0.017 A 
ATOM     17  C   UNL d   1     -48.620  29.575  34.611  0.00  0.00     0.002 A 
ATOM     18  C   UNL d   1     -48.014  30.076  34.818  0.00  0.00     0.000 A 
ATOM     19  C   UNL d   1     -47.401  29.810  35.296  0.00  0.00     0.000 A 
ATOM     20  C   UNL d   1     -47.403  29.019  35.570  0.00  0.00     0.000 A 
ATOM     21  C   UNL d   1     -48.018  28.522  35.357  0.00  0.00     0.002 A 
ENDBRANCH  15  16
ENDBRANCH  13  15
ENDBRANCH   1  13
TORSDOF 5
ENDMDL
