MODEL 1
REMARK VINA RESULT:      54.3      0.000      0.000
REMARK  6 active torsions:
REMARK  status: ('A' for Active; 'I' for Inactive)
REMARK    1  A    between atoms: C_7  and  N_1 
REMARK    2  A    between atoms: S_10  and  C_2 
REMARK    3  A    between atoms: C_22  and  S_10 
REMARK    4  A    between atoms: C_13  and  C_22 
REMARK       I    between atoms: N_17  and  C_13 
REMARK    5  A    between atoms: C_14  and  C_23 
REMARK    6  A    between atoms: C_23  and  N_17 
ROOT
ATOM      1  N   UNL d   1      13.862  13.152  -2.944  0.00  0.00    -0.254 N 
ATOM      2  C   UNL d   1      13.891  13.813  -3.439  0.00  0.00     0.183 A 
ATOM      3  N   UNL d   1      13.613  13.768  -4.212  0.00  0.00    -0.201 NA
ATOM      4  C   UNL d   1      13.548  12.444  -3.240  0.00  0.00     0.271 A 
ATOM      5  C   UNL d   1      13.274  12.405  -4.008  0.00  0.00     0.115 A 
ATOM      6  C   UNL d   1      13.306  13.065  -4.495  0.00  0.00     0.192 A 
ATOM      7  N   UNL d   1      12.769  12.067  -5.189  0.00  0.00    -0.145 NA
ATOM      8  N   UNL d   1      12.992  12.854  -5.227  0.00  0.00    -0.128 NA
ATOM      9  C   UNL d   1      12.942  11.781  -4.433  0.00  0.00     0.130 A 
ATOM     10  O   UNL d   1      13.517  11.779  -2.747  0.00  0.00    -0.266 OA
ENDROOT
BRANCH   2  11
ATOM     11  S   UNL d   1      14.203  14.528  -3.154  0.00  0.00    -0.044 SA
BRANCH  11  12
ATOM     12  C   UNL d   1      14.147  15.210  -3.612  0.00  0.00     0.101 C 
BRANCH  12  13
ATOM     13  C   UNL d   1      14.590  15.879  -3.418  0.00  0.00     0.286 C 
ATOM     14  N   UNL d   1      14.669  16.101  -2.624  0.00  0.00    -0.204 NA
ATOM     15  O   UNL d   1      14.954  16.327  -4.009  0.00  0.00    -0.265 OA
BRANCH  14  16
ATOM     16  C   UNL d   1      15.112  16.769  -2.427  0.00  0.00     0.127 C 
BRANCH  16  17
ATOM     17  C   UNL d   1      15.320  16.907  -1.638  0.00  0.00     0.119 A 
ATOM     18  O   UNL d   1      15.958  16.586  -1.239  0.00  0.00    -0.304 OA
ATOM     19  C   UNL d   1      15.956  16.871  -0.465  0.00  0.00     0.123 A 
ATOM     20  C   UNL d   1      15.314  17.370  -0.384  0.00  0.00     0.029 A 
ATOM     21  C   UNL d   1      14.917  17.398  -1.100  0.00  0.00     0.028 A 
ENDBRANCH  16  17
ENDBRANCH  14  16
ENDBRANCH  12  13
ENDBRANCH  11  12
ENDBRANCH   2  11
BRANCH   1  22
ATOM     22  C   UNL d   1      14.138  13.196  -2.176  0.00  0.00     0.075 A 
ATOM     23  C   UNL d   1      14.665  12.623  -1.893  0.00  0.00     0.051 A 
ATOM     24 BR   UNL d   1      14.908  12.012  -2.384  0.00  0.00    -0.048 Br
ATOM     25  C   UNL d   1      14.943  12.668  -1.119  0.00  0.00     0.008 A 
ATOM     26  C   UNL d   1      14.696  13.284  -0.626  0.00  0.00     0.001 A 
ATOM     27  C   UNL d   1      14.170  13.854  -0.913  0.00  0.00     0.002 A 
ATOM     28  C   UNL d   1      13.892  13.810  -1.687  0.00  0.00     0.018 A 
ENDBRANCH   1  22
TORSDOF 6
ENDMDL
