MODEL 1
REMARK VINA RESULT:      54.2      0.000      0.000
REMARK  6 active torsions:
REMARK  status: ('A' for Active; 'I' for Inactive)
REMARK    1  A    between atoms: C_2  and  N_1 
REMARK    2  A    between atoms: C_6  and  C_2 
REMARK    3  A    between atoms: O_5  and  C_12 
REMARK    4  A    between atoms: C_11  and  O_5 
REMARK    5  A    between atoms: C_12  and  C_9 
REMARK    6  A    between atoms: C_10  and  C_11 
ROOT
ATOM      1  N   UNL d   1     -54.945-102.158 -41.397  0.00  0.00    -0.302 N 
ATOM      2  C   UNL d   1     -55.126-102.242 -42.199  0.00  0.00     0.080 A 
ATOM      3  C   UNL d   1     -54.745-101.413 -41.094  0.00  0.00     0.080 A 
ATOM      4  C   UNL d   1     -55.110-101.594 -42.697  0.00  0.00     0.021 A 
ATOM      5  C   UNL d   1     -54.728-100.756 -41.593  0.00  0.00     0.021 A 
ATOM      6  C   UNL d   1     -54.912-100.845 -42.403  0.00  0.00     0.028 A 
ENDROOT
BRANCH   6   7
ATOM      7  C   UNL d   1     -54.894-100.188 -42.901  0.00  0.00     0.123 C 
BRANCH   7   8
ATOM      8  O   UNL d   1     -55.544 -99.671 -42.931  0.00  0.00    -0.303 OA
BRANCH   8   9
ATOM      9  C   UNL d   1     -55.492 -98.965 -43.339  0.00  0.00     0.123 C 
BRANCH   9  10
ATOM     10  C   UNL d   1     -55.693 -98.928 -44.136  0.00  0.00     0.025 A 
ATOM     11  C   UNL d   1     -56.484 -98.932 -44.355  0.00  0.00     0.002 A 
ATOM     12  C   UNL d   1     -56.684 -98.896 -45.152  0.00  0.00     0.000 A 
ATOM     13  C   UNL d   1     -56.093 -98.855 -45.729  0.00  0.00     0.000 A 
ATOM     14  C   UNL d   1     -55.299 -98.852 -45.498  0.00  0.00     0.000 A 
ATOM     15  C   UNL d   1     -55.099 -98.888 -44.701  0.00  0.00     0.002 A 
ENDBRANCH   9  10
ENDBRANCH   8   9
ENDBRANCH   7   8
ENDBRANCH   6   7
BRANCH   1  16
ATOM     16  C   UNL d   1     -54.963-102.812 -40.907  0.00  0.00     0.080 C 
BRANCH  16  17
ATOM     17  C   UNL d   1     -55.413-102.800 -40.215  0.00  0.00     0.018 A 
ATOM     18  C   UNL d   1     -55.040-102.715 -39.478  0.00  0.00     0.002 A 
ATOM     19  C   UNL d   1     -55.493-102.703 -38.784  0.00  0.00     0.000 A 
ATOM     20  C   UNL d   1     -56.313-102.777 -38.826  0.00  0.00     0.000 A 
ATOM     21  C   UNL d   1     -56.684-102.862 -39.559  0.00  0.00     0.000 A 
ATOM     22  C   UNL d   1     -56.237-102.874 -40.255  0.00  0.00     0.002 A 
ENDBRANCH  16  17
ENDBRANCH   1  16
TORSDOF 6
ENDMDL
