MODEL 1
REMARK VINA RESULT:      -6.2      0.000      0.000
REMARK  2 active torsions:
REMARK  status: ('A' for Active; 'I' for Inactive)
REMARK    1  A    between atoms: C_6  and  C_1 
REMARK    2  A    between atoms: O_10  and  C_6 
ROOT
ATOM      1  C   UNL d   1      55.621   0.084  33.382  0.00  0.00     0.096 A 
ATOM      2  S   UNL d   1      55.619  -0.745  33.293  0.00  0.00    -0.040 SA
ATOM      3  C   UNL d   1      56.065  -1.096  32.687  0.00  0.00     0.226 A 
ATOM      4  C   UNL d   1      56.069   0.553  32.865  0.00  0.00     0.012 A 
ATOM      5  C   UNL d   1      56.511   0.202  32.265  0.00  0.00     0.004 A 
ATOM      6  C   UNL d   1      56.509  -0.618  32.176  0.00  0.00     0.045 A 
ATOM      7  O   UNL d   1      56.063  -1.916  32.598  0.00  0.00    -0.279 OA
ATOM      8  C   UNL d   1      56.954   0.670  31.754  0.00  0.00     0.000 A 
ATOM      9  C   UNL d   1      56.949  -0.978  31.576  0.00  0.00     0.004 A 
ATOM     10  C   UNL d   1      57.395   0.319  31.153  0.00  0.00     0.000 A 
ATOM     11  C   UNL d   1      57.393  -0.510  31.064  0.00  0.00     0.000 A 
ENDROOT
BRANCH   1  12
ATOM     12  C   UNL d   1      55.178   0.426  33.984  0.00  0.00     0.302 C 
ATOM     13  O   UNL d   1      54.364   0.518  33.886  0.00  0.00    -0.259 OA
BRANCH  12  14
ATOM     14  O   UNL d   1      55.531   0.678  34.680  0.00  0.00    -0.295 OA
ATOM     15  C   UNL d   1      55.090   0.682  35.387  0.00  0.00     0.185 C 
ENDBRANCH  12  14
ENDBRANCH   1  12
TORSDOF 2
ENDMDL
MODEL 2
REMARK VINA RESULT:      -5.8      1.579      3.118
REMARK  2 active torsions:
REMARK  status: ('A' for Active; 'I' for Inactive)
REMARK    1  A    between atoms: C_6  and  C_1 
REMARK    2  A    between atoms: O_10  and  C_6 
ROOT
ATOM      1  C   UNL d   1      57.082   0.040  31.578  0.00  0.00     0.096 A 
ATOM      2  S   UNL d   1      57.008  -0.789  31.633  0.00  0.00    -0.040 SA
ATOM      3  C   UNL d   1      56.489  -1.121  32.188  0.00  0.00     0.226 A 
ATOM      4  C   UNL d   1      56.635   0.527  32.080  0.00  0.00     0.012 A 
ATOM      5  C   UNL d   1      56.121   0.194  32.630  0.00  0.00     0.004 A 
ATOM      6  C   UNL d   1      56.048  -0.626  32.684  0.00  0.00     0.045 A 
ATOM      7  O   UNL d   1      56.417  -1.941  32.242  0.00  0.00    -0.279 OA
ATOM      8  C   UNL d   1      55.680   0.681  33.125  0.00  0.00     0.000 A 
ATOM      9  C   UNL d   1      55.534  -0.967  33.234  0.00  0.00     0.004 A 
ATOM     10  C   UNL d   1      55.165   0.348  33.676  0.00  0.00     0.000 A 
ATOM     11  C   UNL d   1      55.092  -0.481  33.730  0.00  0.00     0.000 A 
ENDROOT
BRANCH   1  12
ATOM     12  C   UNL d   1      57.598   0.364  31.025  0.00  0.00     0.302 C 
ATOM     13  O   UNL d   1      58.330   0.653  31.275  0.00  0.00    -0.259 OA
BRANCH  12  14
ATOM     14  O   UNL d   1      57.398   0.405  30.232  0.00  0.00    -0.295 OA
ATOM     15  C   UNL d   1      57.959   0.679  29.679  0.00  0.00     0.185 C 
ENDBRANCH  12  14
ENDBRANCH   1  12
TORSDOF 2
ENDMDL
MODEL 3
REMARK VINA RESULT:      -4.8      1.370      3.262
REMARK  2 active torsions:
REMARK  status: ('A' for Active; 'I' for Inactive)
REMARK    1  A    between atoms: C_6  and  C_1 
REMARK    2  A    between atoms: O_10  and  C_6 
ROOT
ATOM      1  C   UNL d   1      56.766  -0.037  32.208  0.00  0.00     0.096 A 
ATOM      2  S   UNL d   1      57.326   0.204  32.778  0.00  0.00    -0.040 SA
ATOM      3  C   UNL d   1      57.072   0.443  33.530  0.00  0.00     0.226 A 
ATOM      4  C   UNL d   1      55.959  -0.036  32.399  0.00  0.00     0.012 A 
ATOM      5  C   UNL d   1      55.710   0.203  33.146  0.00  0.00     0.004 A 
ATOM      6  C   UNL d   1      56.264   0.441  33.709  0.00  0.00     0.045 A 
ATOM      7  O   UNL d   1      57.626   0.681  34.093  0.00  0.00    -0.279 OA
ATOM      8  C   UNL d   1      54.908   0.203  33.331  0.00  0.00     0.000 A 
ATOM      9  C   UNL d   1      56.021   0.681  34.463  0.00  0.00     0.004 A 
ATOM     10  C   UNL d   1      54.659   0.441  34.079  0.00  0.00     0.000 A 
ATOM     11  C   UNL d   1      55.219   0.682  34.648  0.00  0.00     0.000 A 
ENDROOT
BRANCH   1  12
ATOM     12  C   UNL d   1      57.023  -0.274  31.463  0.00  0.00     0.302 C 
ATOM     13  O   UNL d   1      57.072  -1.078  31.288  0.00  0.00    -0.259 OA
BRANCH  12  14
ATOM     14  O   UNL d   1      57.232   0.277  30.893  0.00  0.00    -0.295 OA
ATOM     15  C   UNL d   1      57.745   0.055  30.275  0.00  0.00     0.185 C 
ENDBRANCH  12  14
ENDBRANCH   1  12
TORSDOF 2
ENDMDL
MODEL 4
REMARK VINA RESULT:      -3.3      9.294      9.920
REMARK  2 active torsions:
REMARK  status: ('A' for Active; 'I' for Inactive)
REMARK    1  A    between atoms: C_6  and  C_1 
REMARK    2  A    between atoms: O_10  and  C_6 
ROOT
ATOM      1  C   UNL d   1      59.494  -9.109  34.542  0.00  0.00     0.096 A 
ATOM      2  S   UNL d   1      58.819  -9.332  34.106  0.00  0.00    -0.040 SA
ATOM      3  C   UNL d   1      58.899  -9.565  33.314  0.00  0.00     0.226 A 
ATOM      4  C   UNL d   1      60.241  -9.120  34.180  0.00  0.00     0.012 A 
ATOM      5  C   UNL d   1      60.316  -9.352  33.393  0.00  0.00     0.004 A 
ATOM      6  C   UNL d   1      59.648  -9.573  32.962  0.00  0.00     0.045 A 
ATOM      7  O   UNL d   1      58.231  -9.786  32.883  0.00  0.00    -0.279 OA
ATOM      8  C   UNL d   1      61.058  -9.362  33.038  0.00  0.00     0.000 A 
ATOM      9  C   UNL d   1      59.716  -9.807  32.172  0.00  0.00     0.004 A 
ATOM     10  C   UNL d   1      61.133  -9.593  32.251  0.00  0.00     0.000 A 
ATOM     11  C   UNL d   1      60.458  -9.817  31.815  0.00  0.00     0.000 A 
ENDROOT
BRANCH   1  12
ATOM     12  C   UNL d   1      59.410  -8.879  35.327  0.00  0.00     0.302 C 
ATOM     13  O   UNL d   1      59.190  -9.439  35.892  0.00  0.00    -0.259 OA
BRANCH  12  14
ATOM     14  O   UNL d   1      59.542  -8.103  35.558  0.00  0.00    -0.295 OA
ATOM     15  C   UNL d   1      59.310  -7.856  36.320  0.00  0.00     0.185 C 
ENDBRANCH  12  14
ENDBRANCH   1  12
TORSDOF 2
ENDMDL
