MODEL 1
REMARK VINA RESULT:       3.7      0.000      0.000
REMARK  4 active torsions:
REMARK  status: ('A' for Active; 'I' for Inactive)
REMARK    1  A    between atoms: N_10  and  C_3 
REMARK    2  A    between atoms: C_13  and  C_5 
REMARK    3  A    between atoms: C_12  and  C_9 
REMARK    4  A    between atoms: C_19  and  N_11 
ROOT
ATOM      1  N   UNL d   1     -41.795-122.631 -51.876  0.00  0.00    -0.196 N 
ATOM      2  C   UNL d   1     -41.759-122.224 -52.596  0.00  0.00     0.167 A 
ATOM      3  C   UNL d   1     -41.665-122.224 -51.182  0.00  0.00     0.152 A 
ATOM      4  N   UNL d   1     -42.086-123.816 -52.576  0.00  0.00    -0.163 NA
ATOM      5  C   UNL d   1     -41.885-122.610 -53.291  0.00  0.00     0.055 A 
ATOM      6  N   UNL d   1     -41.594-121.420 -52.603  0.00  0.00    -0.231 NA
ATOM      7  C   UNL d   1     -41.499-121.416 -51.188  0.00  0.00     0.052 A 
ATOM      8  C   UNL d   1     -42.050-123.415 -53.285  0.00  0.00     0.104 A 
ATOM      9  C   UNL d   1     -41.464-121.014 -51.896  0.00  0.00     0.063 A 
ATOM     10  C   UNL d   1     -42.179-123.817 -53.980  0.00  0.00     0.023 C 
ENDROOT
BRANCH   3  11
ATOM     11  N   UNL d   1     -41.702-122.644 -50.440  0.00  0.00    -0.286 N 
ATOM     12  C   UNL d   1     -41.130-123.215 -50.198  0.00  0.00     0.101 A 
ATOM     13  C   UNL d   1     -41.214-123.602 -49.454  0.00  0.00     0.100 A 
ATOM     14  N   UNL d   1     -41.871-123.422 -48.943  0.00  0.00    -0.300 N 
ATOM     15  C   UNL d   1     -42.439-122.849 -49.193  0.00  0.00     0.100 A 
ATOM     16  C   UNL d   1     -42.359-122.454 -49.947  0.00  0.00     0.101 A 
BRANCH  14  17
ATOM     17  C   UNL d   1     -41.962-123.804 -48.197  0.00  0.00     0.080 C 
ATOM     18  C   UNL d   1     -42.127-123.335 -47.512  0.00  0.00     0.021 C 
ENDBRANCH  14  17
ENDBRANCH   3  11
BRANCH   9  19
ATOM     19  C   UNL d   1     -41.293-120.180 -51.907  0.00  0.00     0.036 C 
ATOM     20  C   UNL d   1     -41.124-119.356 -51.911  0.00  0.00     0.006 C 
ATOM     21  C   UNL d   1     -41.207-119.774 -52.651  0.00  0.00     0.006 C 
ATOM     22  C   UNL d   1     -41.210-119.765 -51.170  0.00  0.00     0.006 C 
ENDBRANCH   9  19
BRANCH   5  23
ATOM     23  C   UNL d   1     -41.849-122.207 -54.004  0.00  0.00     0.004 A 
ATOM     24  C   UNL d   1     -41.166-122.242 -54.451  0.00  0.00     0.000 A 
ATOM     25  C   UNL d   1     -41.130-121.834 -55.171  0.00  0.00     0.000 A 
ATOM     26  C   UNL d   1     -41.778-121.404 -55.422  0.00  0.00     0.000 A 
ATOM     27  C   UNL d   1     -42.457-121.377 -54.964  0.00  0.00     0.000 A 
ATOM     28  C   UNL d   1     -42.493-121.779 -54.255  0.00  0.00     0.000 A 
ENDBRANCH   5  23
TORSDOF 4
ENDMDL
