MODEL 1
REMARK VINA RESULT:      -5.2      0.000      0.000
REMARK  5 active torsions:
REMARK  status: ('A' for Active; 'I' for Inactive)
REMARK    1  A    between atoms: C_4  and  S_1 
REMARK    2  A    between atoms: N_5  and  S_1 
REMARK    3  A    between atoms: C_2  and  C_9 
REMARK       I    between atoms: N_3  and  C_2 
REMARK    4  A    between atoms: C_14  and  N_5 
REMARK    5  A    between atoms: C_15  and  C_14 
ROOT
ATOM      1  C   UNL d   1     -41.480-123.087 -53.653  0.00  0.00     0.057 A 
ATOM      2  C   UNL d   1     -41.727-123.771 -53.256  0.00  0.00     0.005 A 
ATOM      3  C   UNL d   1     -41.178-122.452 -53.225  0.00  0.00     0.005 A 
ATOM      4  C   UNL d   1     -41.368-123.173 -52.013  0.00  0.00     0.020 A 
ATOM      5  C   UNL d   1     -41.673-123.817 -52.442  0.00  0.00     0.002 A 
ATOM      6  C   UNL d   1     -41.123-122.496 -52.402  0.00  0.00     0.002 A 
ENDROOT
BRANCH   4   7
ATOM      7  C   UNL d   1     -41.313-123.219 -51.185  0.00  0.00     0.112 C 
BRANCH   7   8
ATOM      8  N   UNL d   1     -42.002-123.259 -50.727  0.00  0.00    -0.157 NA
BRANCH   8   9
ATOM      9  S   UNL d   1     -41.946-123.311 -49.899  0.00  0.00     0.285 S 
ATOM     10  O   UNL d   1     -42.749-123.106 -49.833  0.00  0.00    -0.198 OA
ATOM     11  O   UNL d   1     -41.144-123.517 -49.966  0.00  0.00    -0.198 OA
BRANCH   9  12
ATOM     12  C   UNL d   1     -41.892-123.364 -49.071  0.00  0.00     0.106 A 
ATOM     13  C   UNL d   1     -42.551-123.206 -48.610  0.00  0.00     0.024 A 
ATOM     14  C   UNL d   1     -42.508-123.256 -47.785  0.00  0.00     0.059 A 
ATOM     15 CL   UNL d   1     -43.169-123.098 -47.320  0.00  0.00    -0.082 Cl
ATOM     16  C   UNL d   1     -41.795-123.465 -47.433  0.00  0.00     0.011 A 
ATOM     17  C   UNL d   1     -41.143-123.620 -47.897  0.00  0.00     0.002 A 
ATOM     18  C   UNL d   1     -41.187-123.571 -48.717  0.00  0.00     0.013 A 
ENDBRANCH   9  12
ENDBRANCH   8   9
ENDBRANCH   7   8
ENDBRANCH   4   7
BRANCH   1  19
ATOM     19  C   UNL d   1     -41.533-123.037 -54.483  0.00  0.00     0.265 C 
ATOM     20  N   UNL d   1     -41.996-122.443 -54.834  0.00  0.00    -0.272 N 
ATOM     21  C   UNL d   1     -42.429-121.871 -54.433  0.00  0.00     0.083 A 
ATOM     22  C   UNL d   1     -42.101-122.326 -55.645  0.00  0.00     0.083 A 
ATOM     23  C   UNL d   1     -42.804-121.397 -54.995  0.00  0.00     0.021 A 
ATOM     24  C   UNL d   1     -42.603-121.675 -55.738  0.00  0.00     0.021 A 
ATOM     25  O   UNL d   1     -41.123-123.583 -54.963  0.00  0.00    -0.267 OA
ENDBRANCH   1  19
TORSDOF 5
ENDMDL
MODEL 2
REMARK VINA RESULT:      -2.8      0.981      1.182
REMARK  5 active torsions:
REMARK  status: ('A' for Active; 'I' for Inactive)
REMARK    1  A    between atoms: C_4  and  S_1 
REMARK    2  A    between atoms: N_5  and  S_1 
REMARK    3  A    between atoms: C_2  and  C_9 
REMARK       I    between atoms: N_3  and  C_2 
REMARK    4  A    between atoms: C_14  and  N_5 
REMARK    5  A    between atoms: C_15  and  C_14 
ROOT
ATOM      1  C   UNL d   1     -42.007-121.906 -53.154  0.00  0.00     0.057 A 
ATOM      2  C   UNL d   1     -42.649-122.007 -52.641  0.00  0.00     0.005 A 
ATOM      3  C   UNL d   1     -41.245-122.082 -52.896  0.00  0.00     0.005 A 
ATOM      4  C   UNL d   1     -41.760-122.457 -51.622  0.00  0.00     0.020 A 
ATOM      5  C   UNL d   1     -42.531-122.280 -51.880  0.00  0.00     0.002 A 
ATOM      6  C   UNL d   1     -41.123-122.359 -52.127  0.00  0.00     0.002 A 
ENDROOT
BRANCH   4   7
ATOM      7  C   UNL d   1     -41.638-122.735 -50.849  0.00  0.00     0.112 C 
BRANCH   7   8
ATOM      8  N   UNL d   1     -42.240-122.665 -50.286  0.00  0.00    -0.157 NA
BRANCH   8   9
ATOM      9  S   UNL d   1     -42.122-122.955 -49.515  0.00  0.00     0.285 S 
ATOM     10  O   UNL d   1     -42.647-123.580 -49.670  0.00  0.00    -0.198 OA
ATOM     11  O   UNL d   1     -41.597-122.329 -49.360  0.00  0.00    -0.198 OA
BRANCH   9  12
ATOM     12  C   UNL d   1     -42.004-123.244 -48.745  0.00  0.00     0.106 A 
ATOM     13  C   UNL d   1     -42.648-123.358 -48.251  0.00  0.00     0.024 A 
ATOM     14  C   UNL d   1     -42.544-123.646 -47.482  0.00  0.00     0.059 A 
ATOM     15 CL   UNL d   1     -43.189-123.761 -46.985  0.00  0.00    -0.082 Cl
ATOM     16  C   UNL d   1     -41.783-123.818 -47.219  0.00  0.00     0.011 A 
ATOM     17  C   UNL d   1     -41.147-123.702 -47.716  0.00  0.00     0.002 A 
ATOM     18  C   UNL d   1     -41.253-123.416 -48.480  0.00  0.00     0.013 A 
ENDBRANCH   9  12
ENDBRANCH   8   9
ENDBRANCH   7   8
ENDBRANCH   4   7
BRANCH   1  19
ATOM     19  C   UNL d   1     -42.125-121.628 -53.931  0.00  0.00     0.265 C 
ATOM     20  N   UNL d   1     -42.188-122.168 -54.559  0.00  0.00    -0.272 N 
ATOM     21  C   UNL d   1     -42.145-122.986 -54.498  0.00  0.00     0.083 A 
ATOM     22  C   UNL d   1     -42.305-121.974 -55.354  0.00  0.00     0.083 A 
ATOM     23  C   UNL d   1     -42.235-123.303 -55.255  0.00  0.00     0.021 A 
ATOM     24  C   UNL d   1     -42.333-122.684 -55.780  0.00  0.00     0.021 A 
ATOM     25  O   UNL d   1     -42.180-120.809 -54.078  0.00  0.00    -0.267 OA
ENDBRANCH   1  19
TORSDOF 5
ENDMDL
