MODEL 1
REMARK VINA RESULT:      -2.9      0.000      0.000
REMARK  7 active torsions:
REMARK  status: ('A' for Active; 'I' for Inactive)
REMARK    1  A    between atoms: C_4  and  N_1 
REMARK       I    between atoms: C_2  and  N_6 
REMARK    2  A    between atoms: C_3  and  C_2 
REMARK    3  A    between atoms: C_5  and  C_3 
REMARK    4  A    between atoms: C_12  and  C_5 
REMARK    5  A    between atoms: N_6  and  C_11 
REMARK    6  A    between atoms: O_22  and  C_13 
REMARK    7  A    between atoms: C_25  and  O_22 
ROOT
ATOM      1  C   UNL d   1      32.758  17.922 -22.930  0.00  0.00     0.328 C 
ATOM      2  N   UNL d   1      32.822  18.718 -22.741  0.00  0.00    -0.365 NA
ATOM      3  O   UNL d   1      33.241  17.367 -22.556  0.00  0.00    -0.251 OA
ENDROOT
BRANCH   1   4
ATOM      4  C   UNL d   1      32.212  17.674 -23.495  0.00  0.00     0.076 C 
BRANCH   4   5
ATOM      5  C   UNL d   1      32.144  16.871 -23.678  0.00  0.00     0.006 C 
BRANCH   5   6
ATOM      6  C   UNL d   1      31.399  16.553 -23.847  0.00  0.00     0.000 A 
ATOM      7  C   UNL d   1      31.151  15.859 -23.463  0.00  0.00     0.002 A 
ATOM      8  C   UNL d   1      30.410  15.539 -23.628  0.00  0.00     0.025 A 
ATOM      9  C   UNL d   1      29.910  15.907 -24.176  0.00  0.00     0.100 A 
ATOM     10  C   UNL d   1      30.152  16.595 -24.559  0.00  0.00     0.025 A 
ATOM     11  C   UNL d   1      30.898  16.922 -24.396  0.00  0.00     0.002 A 
BRANCH   9  12
ATOM     12  O   UNL d   1      29.169  15.586 -24.340  0.00  0.00    -0.305 OA
BRANCH  12  13
ATOM     13  C   UNL d   1      28.512  15.833 -23.910  0.00  0.00     0.123 C 
ATOM     14  C   UNL d   1      27.768  15.519 -24.075  0.00  0.00     0.029 C 
ENDBRANCH  12  13
ENDBRANCH   9  12
ENDBRANCH   5   6
ENDBRANCH   4   5
ENDBRANCH   1   4
BRANCH   2  15
ATOM     15  C   UNL d   1      32.891  19.519 -22.546  0.00  0.00     0.135 A 
ATOM     16  C   UNL d   1      33.012  20.087 -23.138  0.00  0.00     0.034 A 
ATOM     17  C   UNL d   1      33.079  20.883 -22.929  0.00  0.00     0.020 A 
ATOM     18  C   UNL d   1      33.027  21.112 -22.138  0.00  0.00     0.064 A 
ATOM     19  C   UNL d   1      32.906  20.547 -21.552  0.00  0.00     0.020 A 
ATOM     20  C   UNL d   1      32.839  19.752 -21.756  0.00  0.00     0.034 A 
BRANCH  18  21
ATOM     21  N   UNL d   1      33.094  21.907 -21.934  0.00  0.00    -0.300 N 
ATOM     22  C   UNL d   1      33.123  22.483 -22.523  0.00  0.00     0.107 A 
ATOM     23  C   UNL d   1      33.190  23.275 -22.323  0.00  0.00     0.142 A 
ATOM     24  O   UNL d   1      33.229  23.497 -21.527  0.00  0.00    -0.300 OA
ATOM     25  C   UNL d   1      33.200  22.920 -20.937  0.00  0.00     0.142 A 
ATOM     26  C   UNL d   1      33.133  22.122 -21.138  0.00  0.00     0.107 A 
ENDBRANCH  18  21
ENDBRANCH   2  15
TORSDOF 7
ENDMDL
MODEL 2
REMARK VINA RESULT:      -2.3      2.188      6.696
REMARK  7 active torsions:
REMARK  status: ('A' for Active; 'I' for Inactive)
REMARK    1  A    between atoms: C_4  and  N_1 
REMARK       I    between atoms: C_2  and  N_6 
REMARK    2  A    between atoms: C_3  and  C_2 
REMARK    3  A    between atoms: C_5  and  C_3 
REMARK    4  A    between atoms: C_12  and  C_5 
REMARK    5  A    between atoms: N_6  and  C_11 
REMARK    6  A    between atoms: O_22  and  C_13 
REMARK    7  A    between atoms: C_25  and  O_22 
ROOT
ATOM      1  C   UNL d   1      32.861  21.771 -21.926  0.00  0.00     0.328 C 
ATOM      2  N   UNL d   1      32.903  20.988 -22.168  0.00  0.00    -0.365 NA
ATOM      3  O   UNL d   1      32.924  22.380 -22.480  0.00  0.00    -0.251 OA
ENDROOT
BRANCH   1   4
ATOM      4  C   UNL d   1      32.756  21.953 -21.129  0.00  0.00     0.076 C 
BRANCH   4   5
ATOM      5  C   UNL d   1      33.186  22.570 -20.787  0.00  0.00     0.006 C 
BRANCH   5   6
ATOM      6  C   UNL d   1      33.055  22.766 -19.993  0.00  0.00     0.000 A 
ATOM      7  C   UNL d   1      33.213  22.206 -19.400  0.00  0.00     0.002 A 
ATOM      8  C   UNL d   1      33.084  22.395 -18.609  0.00  0.00     0.025 A 
ATOM      9  C   UNL d   1      32.796  23.145 -18.402  0.00  0.00     0.100 A 
ATOM     10  C   UNL d   1      32.638  23.702 -18.987  0.00  0.00     0.025 A 
ATOM     11  C   UNL d   1      32.767  23.515 -19.786  0.00  0.00     0.002 A 
BRANCH   9  12
ATOM     12  O   UNL d   1      32.668  23.334 -17.611  0.00  0.00    -0.305 OA
BRANCH  12  13
ATOM     13  C   UNL d   1      32.932  22.824 -17.020  0.00  0.00     0.123 C 
ATOM     14  C   UNL d   1      32.526  22.776 -16.303  0.00  0.00     0.029 C 
ENDBRANCH  12  13
ENDBRANCH   9  12
ENDBRANCH   5   6
ENDBRANCH   4   5
ENDBRANCH   1   4
BRANCH   2  15
ATOM     15  C   UNL d   1      32.945  20.201 -22.419  0.00  0.00     0.135 A 
ATOM     16  C   UNL d   1      33.196  19.607 -21.898  0.00  0.00     0.034 A 
ATOM     17  C   UNL d   1      33.234  18.826 -22.161  0.00  0.00     0.020 A 
ATOM     18  C   UNL d   1      33.025  18.637 -22.936  0.00  0.00     0.064 A 
ATOM     19  C   UNL d   1      32.777  19.228 -23.452  0.00  0.00     0.020 A 
ATOM     20  C   UNL d   1      32.737  20.008 -23.193  0.00  0.00     0.034 A 
BRANCH  18  21
ATOM     21  N   UNL d   1      33.064  17.856 -23.195  0.00  0.00    -0.300 N 
ATOM     22  C   UNL d   1      32.985  17.682 -23.997  0.00  0.00     0.107 A 
ATOM     23  C   UNL d   1      33.024  16.906 -24.258  0.00  0.00     0.142 A 
ATOM     24  O   UNL d   1      33.143  16.295 -23.713  0.00  0.00    -0.300 OA
ATOM     25  C   UNL d   1      33.222  16.468 -22.910  0.00  0.00     0.142 A 
ATOM     26  C   UNL d   1      33.183  17.250 -22.647  0.00  0.00     0.107 A 
ENDBRANCH  18  21
ENDBRANCH   2  15
TORSDOF 7
ENDMDL
