MODEL 1
REMARK VINA RESULT:      51.6      0.000      0.000
REMARK  9 active torsions:
REMARK  status: ('A' for Active; 'I' for Inactive)
REMARK    1  A    between atoms: C_6  and  N_1 
REMARK    2  A    between atoms: C_2  and  O_5 
REMARK    3  A    between atoms: C_8  and  C_3 
REMARK    4  A    between atoms: C_4  and  C_9 
REMARK    5  A    between atoms: O_5  and  C_4 
REMARK    6  A    between atoms: C_7  and  C_8 
REMARK    7  A    between atoms: C_13  and  C_7 
REMARK    8  A    between atoms: C_10  and  C_13 
REMARK    9  A    between atoms: O_25  and  C_23 
ROOT
ATOM      1  C   UNL d   1     -55.158-101.049 -44.035  0.00  0.00     0.108 A 
ATOM      2  C   UNL d   1     -54.963-101.622 -43.473  0.00  0.00     0.062 A 
ATOM      3  C   UNL d   1     -55.140-101.241 -44.846  0.00  0.00     0.049 A 
ATOM      4  C   UNL d   1     -54.750-102.389 -43.721  0.00  0.00     0.007 A 
ATOM      5  C   UNL d   1     -54.929-102.002 -45.086  0.00  0.00     0.096 A 
ATOM      6  C   UNL d   1     -54.734-102.575 -44.524  0.00  0.00     0.024 A 
ENDROOT
BRANCH   1   7
ATOM      7  O   UNL d   1     -55.370-100.285 -43.798  0.00  0.00    -0.273 OA
BRANCH   7   8
ATOM      8  C   UNL d   1     -55.405 -99.677 -44.356  0.00  0.00     0.300 C 
ATOM      9  O   UNL d   1     -54.715 -99.374 -44.687  0.00  0.00    -0.259 OA
BRANCH   8  10
ATOM     10  C   UNL d   1     -56.139 -99.374 -44.581  0.00  0.00     0.065 A 
ATOM     11  C   UNL d   1     -56.715 -99.251 -44.006  0.00  0.00     0.029 A 
ATOM     12  C   UNL d   1     -57.446 -98.950 -44.227  0.00  0.00     0.127 A 
ATOM     13  C   UNL d   1     -57.600 -98.773 -45.020  0.00  0.00     0.024 A 
ATOM     14  C   UNL d   1     -57.019 -98.900 -45.583  0.00  0.00     0.002 A 
ATOM     15  C   UNL d   1     -56.290 -99.200 -45.365  0.00  0.00     0.005 A 
BRANCH  12  16
ATOM     16  N   UNL d   1     -58.028 -98.825 -43.652  0.00  0.00    -0.114 N 
ATOM     17  O   UNL d   1     -57.814 -98.760 -42.859  0.00  0.00    -0.532 OA
ATOM     18  O   UNL d   1     -58.831 -98.765 -43.873  0.00  0.00    -0.532 OA
ENDBRANCH  12  16
ENDBRANCH   8  10
ENDBRANCH   7   8
ENDBRANCH   1   7
BRANCH   2  19
ATOM     19  C   UNL d   1     -54.979-101.433 -42.667  0.00  0.00     0.198 C 
ATOM     20  O   UNL d   1     -55.155-100.662 -42.427  0.00  0.00    -0.286 OA
BRANCH  19  21
ATOM     21  C   UNL d   1     -54.819-102.015 -42.104  0.00  0.00     0.043 C 
BRANCH  21  22
ATOM     22  C   UNL d   1     -54.712-101.804 -41.314  0.00  0.00     0.010 C 
BRANCH  22  23
ATOM     23  C   UNL d   1     -55.148-102.182 -40.724  0.00  0.00     0.030 A 
ATOM     24  S   UNL d   1     -54.929-102.281 -39.933  0.00  0.00    -0.086 SA
ATOM     25  C   UNL d   1     -55.529-102.689 -39.542  0.00  0.00     0.035 A 
ATOM     26  C   UNL d   1     -56.128-102.848 -40.087  0.00  0.00     0.007 A 
ATOM     27  C   UNL d   1     -55.894-102.535 -40.818  0.00  0.00     0.007 A 
ENDBRANCH  22  23
ENDBRANCH  21  22
ENDBRANCH  19  21
ENDBRANCH   2  19
BRANCH   5  28
ATOM     28  O   UNL d   1     -54.913-102.188 -45.890  0.00  0.00    -0.328 OA
ATOM     29  C   UNL d   1     -55.410-102.782 -46.187  0.00  0.00     0.181 C 
ENDBRANCH   5  28
TORSDOF 9
ENDMDL
