MODEL 1
REMARK VINA RESULT:      -3.3      0.000      0.000
REMARK  7 active torsions:
REMARK  status: ('A' for Active; 'I' for Inactive)
REMARK    1  A    between atoms: C_19  and  N_1 
REMARK    2  A    between atoms: C_6  and  C_3 
REMARK    3  A    between atoms: C_9  and  C_6 
REMARK    4  A    between atoms: C_7  and  N_8 
REMARK       I    between atoms: N_8  and  C_11 
REMARK    5  A    between atoms: C_11  and  C_23 
REMARK    6  A    between atoms: C_22  and  C_19 
REMARK    7  A    between atoms: C_23  and  C_22 
ROOT
ATOM      1  C   UNL d   1      58.080  -0.286  31.074  0.00  0.00     0.024 C 
ENDROOT
BRANCH   1   2
ATOM      2  C   UNL d   1      58.285  -0.057  30.324  0.00  0.00     0.084 C 
BRANCH   2   3
ATOM      3  N   UNL d   1      58.597  -0.581  29.767  0.00  0.00    -0.259 N 
ATOM      4  C   UNL d   1      59.154  -0.373  29.184  0.00  0.00     0.153 A 
ATOM      5  S   UNL d   1      59.310  -1.057  28.754  0.00  0.00    -0.053 SA
ATOM      6  S   UNL d   1      59.484   0.384  29.068  0.00  0.00    -0.052 SA
ATOM      7  C   UNL d   1      58.879  -1.689  29.034  0.00  0.00     0.090 A 
ATOM      8  C   UNL d   1      58.440  -1.392  29.659  0.00  0.00     0.272 A 
ATOM      9  O   UNL d   1      57.904  -1.858  30.123  0.00  0.00    -0.266 OA
BRANCH   7  10
ATOM     10  C   UNL d   1      58.886  -2.476  28.742  0.00  0.00     0.036 C 
BRANCH  10  11
ATOM     11  C   UNL d   1      59.556  -2.944  28.795  0.00  0.00     0.101 A 
ATOM     12  O   UNL d   1      60.344  -2.814  29.050  0.00  0.00    -0.305 OA
ATOM     13  C   UNL d   1      60.756  -3.536  28.960  0.00  0.00     0.123 A 
ATOM     14  C   UNL d   1      60.263  -4.084  28.668  0.00  0.00     0.029 A 
ATOM     15  C   UNL d   1      59.527  -3.734  28.563  0.00  0.00     0.027 A 
ENDBRANCH  10  11
ENDBRANCH   7  10
ENDBRANCH   2   3
ENDBRANCH   1   2
BRANCH   1  16
ATOM     16  C   UNL d   1      57.729   0.244  31.628  0.00  0.00     0.064 C 
BRANCH  16  17
ATOM     17  C   UNL d   1      58.104   0.471  32.308  0.00  0.00     0.279 C 
ATOM     18  N   UNL d   1      57.674   0.682  32.980  0.00  0.00    -0.208 NA
ATOM     19  O   UNL d   1      58.935   0.494  32.333  0.00  0.00    -0.265 OA
BRANCH  18  20
ATOM     20  C   UNL d   1      56.832   0.660  32.959  0.00  0.00     0.085 A 
ATOM     21  C   UNL d   1      56.419   0.630  33.667  0.00  0.00     0.018 A 
ATOM     22  C   UNL d   1      55.588   0.608  33.659  0.00  0.00     0.002 A 
ATOM     23  C   UNL d   1      56.830   0.622  34.382  0.00  0.00     0.002 A 
ATOM     24  C   UNL d   1      55.172   0.578  34.361  0.00  0.00     0.000 A 
ATOM     25  C   UNL d   1      55.178   0.617  32.930  0.00  0.00     0.000 A 
ATOM     26  C   UNL d   1      55.570   0.569  35.089  0.00  0.00     0.000 A 
ATOM     27  C   UNL d   1      56.409   0.591  35.098  0.00  0.00     0.000 A 
ATOM     28  C   UNL d   1      55.589   0.647  32.232  0.00  0.00     0.002 A 
ATOM     29  C   UNL d   1      56.420   0.668  32.244  0.00  0.00     0.019 A 
ENDBRANCH  18  20
ENDBRANCH  16  17
ENDBRANCH   1  16
TORSDOF 7
ENDMDL
MODEL 2
REMARK VINA RESULT:      -2.6      1.621      5.748
REMARK  7 active torsions:
REMARK  status: ('A' for Active; 'I' for Inactive)
REMARK    1  A    between atoms: C_19  and  N_1 
REMARK    2  A    between atoms: C_6  and  C_3 
REMARK    3  A    between atoms: C_9  and  C_6 
REMARK    4  A    between atoms: C_7  and  N_8 
REMARK       I    between atoms: N_8  and  C_11 
REMARK    5  A    between atoms: C_11  and  C_23 
REMARK    6  A    between atoms: C_22  and  C_19 
REMARK    7  A    between atoms: C_23  and  C_22 
ROOT
ATOM      1  C   UNL d   1      58.528  -0.197  30.222  0.00  0.00     0.024 C 
ENDROOT
BRANCH   1   2
ATOM      2  C   UNL d   1      58.308   0.513  30.545  0.00  0.00     0.084 C 
BRANCH   2   3
ATOM      3  N   UNL d   1      57.899   0.571  31.260  0.00  0.00    -0.259 N 
ATOM      4  C   UNL d   1      58.262   0.641  32.006  0.00  0.00     0.153 A 
ATOM      5  S   UNL d   1      57.653   0.682  32.559  0.00  0.00    -0.053 SA
ATOM      6  S   UNL d   1      59.082   0.663  32.154  0.00  0.00    -0.052 SA
ATOM      7  C   UNL d   1      56.922   0.642  32.202  0.00  0.00     0.090 A 
ATOM      8  C   UNL d   1      57.077   0.573  31.400  0.00  0.00     0.272 A 
ATOM      9  O   UNL d   1      56.474   0.514  30.806  0.00  0.00    -0.266 OA
BRANCH   7  10
ATOM     10  C   UNL d   1      56.173   0.666  32.578  0.00  0.00     0.036 C 
BRANCH  10  11
ATOM     11  C   UNL d   1      55.854   0.001  32.934  0.00  0.00     0.101 A 
ATOM     12  O   UNL d   1      55.983  -0.825  32.861  0.00  0.00    -0.305 OA
ATOM     13  C   UNL d   1      55.465  -1.206  33.394  0.00  0.00     0.123 A 
ATOM     14  C   UNL d   1      55.038  -0.660  33.779  0.00  0.00     0.029 A 
ATOM     15  C   UNL d   1      55.266   0.080  33.507  0.00  0.00     0.027 A 
ENDBRANCH  10  11
ENDBRANCH   7  10
ENDBRANCH   2   3
ENDBRANCH   1   2
BRANCH   1  16
ATOM     16  C   UNL d   1      59.040  -0.251  29.554  0.00  0.00     0.064 C 
BRANCH  16  17
ATOM     17  C   UNL d   1      58.785  -0.519  28.834  0.00  0.00     0.279 C 
ATOM     18  N   UNL d   1      59.167  -1.145  28.455  0.00  0.00    -0.208 NA
ATOM     19  O   UNL d   1      58.129  -0.161  28.468  0.00  0.00    -0.265 OA
BRANCH  18  20
ATOM     20  C   UNL d   1      59.832  -1.511  28.822  0.00  0.00     0.085 A 
ATOM     21  C   UNL d   1      59.883  -2.329  28.824  0.00  0.00     0.018 A 
ATOM     22  C   UNL d   1      60.533  -2.700  29.183  0.00  0.00     0.002 A 
ATOM     23  C   UNL d   1      59.289  -2.778  28.469  0.00  0.00     0.002 A 
ATOM     24  C   UNL d   1      60.589  -3.516  29.187  0.00  0.00     0.000 A 
ATOM     25  C   UNL d   1      61.132  -2.239  29.540  0.00  0.00     0.000 A 
ATOM     26  C   UNL d   1      60.000  -3.982  28.835  0.00  0.00     0.000 A 
ATOM     27  C   UNL d   1      59.343  -3.608  28.472  0.00  0.00     0.000 A 
ATOM     28  C   UNL d   1      61.079  -1.430  29.537  0.00  0.00     0.002 A 
ATOM     29  C   UNL d   1      60.426  -1.062  29.177  0.00  0.00     0.019 A 
ENDBRANCH  18  20
ENDBRANCH  16  17
ENDBRANCH   1  16
TORSDOF 7
ENDMDL
