MODEL 1
REMARK VINA RESULT:      21.5      0.000      0.000
REMARK  2 active torsions:
REMARK  status: ('A' for Active; 'I' for Inactive)
REMARK    1  A    between atoms: C_10  and  N_1 
REMARK    2  A    between atoms: C_11  and  C_10 
ROOT
ATOM      1  N   UNL d   1     -52.334  24.311  33.327  0.00  0.00    -0.187 N 
ATOM      2  N   UNL d   1     -52.511  25.232  33.325  0.00  0.00    -0.162 NA
ATOM      3  C   UNL d   1     -51.880  25.848  33.319  0.00  0.00     0.102 A 
ATOM      4  C   UNL d   1     -51.152  25.464  33.317  0.00  0.00     0.024 A 
ATOM      5  C   UNL d   1     -51.539  24.088  33.324  0.00  0.00     0.281 A 
ATOM      6  C   UNL d   1     -50.948  24.664  33.319  0.00  0.00     0.059 A 
ATOM      7  C   UNL d   1     -50.556  26.044  33.312  0.00  0.00     0.002 A 
ATOM      8  C   UNL d   1     -51.734  26.658  33.315  0.00  0.00     0.019 A 
ATOM      9  C   UNL d   1     -50.922  26.782  33.311  0.00  0.00     0.002 A 
ATOM     10  O   UNL d   1     -51.338  23.273  33.326  0.00  0.00    -0.265 OA
ATOM     11  C   UNL d   1     -50.150  24.436  33.316  0.00  0.00     0.005 A 
ATOM     12  C   UNL d   1     -49.764  25.818  33.309  0.00  0.00     0.000 A 
ATOM     13  C   UNL d   1     -52.244  27.307  33.315  0.00  0.00     0.002 A 
ATOM     14  C   UNL d   1     -50.611  27.548  33.306  0.00  0.00     0.000 A 
ATOM     15  C   UNL d   1     -49.555  25.017  33.311  0.00  0.00     0.000 A 
ATOM     16  C   UNL d   1     -51.126  28.191  33.307  0.00  0.00     0.000 A 
ATOM     17  C   UNL d   1     -51.940  28.078  33.311  0.00  0.00     0.000 A 
ENDROOT
BRANCH   1  18
ATOM     18  C   UNL d   1     -52.776  23.606  33.332  0.00  0.00     0.174 C 
BRANCH  18  19
ATOM     19  C   UNL d   1     -53.515  23.573  33.710  0.00  0.00     0.231 C 
ATOM     20  O   UNL d   1     -54.177  23.859  33.328  0.00  0.00    -0.643 OA
ATOM     21  O   UNL d   1     -53.912  23.351  34.376  0.00  0.00    -0.643 OA
ENDBRANCH  18  19
ENDBRANCH   1  18
TORSDOF 2
ENDMDL
