MODEL 1
REMARK VINA RESULT:      36.0      0.000      0.000
REMARK  3 active torsions:
REMARK  status: ('A' for Active; 'I' for Inactive)
REMARK    1  A    between atoms: C_5  and  N_1 
REMARK    2  A    between atoms: C_8  and  C_2 
REMARK    3  A    between atoms: C_7  and  C_5 
ROOT
ATOM      1  N   UNL d   1      14.327  13.347  -2.591  0.00  0.00    -0.287 N 
ATOM      2  C   UNL d   1      14.211  14.148  -2.768  0.00  0.00     0.187 A 
ATOM      3  N   UNL d   1      13.652  14.206  -3.386  0.00  0.00    -0.224 NA
ATOM      4  C   UNL d   1      13.841  12.896  -3.099  0.00  0.00     0.083 A 
ATOM      5  C   UNL d   1      13.429  13.428  -3.585  0.00  0.00     0.099 A 
ATOM      6  C   UNL d   1      13.716  12.076  -3.186  0.00  0.00     0.019 A 
ATOM      7  C   UNL d   1      12.891  13.144  -4.160  0.00  0.00     0.021 A 
ATOM      8  C   UNL d   1      13.186  11.794  -3.752  0.00  0.00     0.002 A 
ATOM      9  C   UNL d   1      12.775  12.327  -4.238  0.00  0.00     0.002 A 
ENDROOT
BRANCH   1  10
ATOM     10  C   UNL d   1      14.869  13.204  -1.986  0.00  0.00     0.082 C 
BRANCH  10  11
ATOM     11  C   UNL d   1      14.652  12.754  -1.336  0.00  0.00     0.018 A 
ATOM     12  C   UNL d   1      15.188  12.240  -0.994  0.00  0.00     0.001 A 
ATOM     13  C   UNL d   1      14.971  11.788  -0.343  0.00  0.00     0.000 A 
ATOM     14  C   UNL d   1      15.948  12.179  -1.309  0.00  0.00     0.000 C 
ATOM     15  C   UNL d   1      14.210  11.852  -0.031  0.00  0.00     0.000 A 
ATOM     16  C   UNL d   1      13.669  12.371  -0.374  0.00  0.00     0.000 A 
ATOM     17  C   UNL d   1      13.890  12.821  -1.027  0.00  0.00     0.002 A 
ATOM     18  C   UNL d   1      12.906  12.437  -0.064  0.00  0.00     0.000 C 
ENDBRANCH  10  11
ENDBRANCH   1  10
BRANCH   2  19
ATOM     19  C   UNL d   1      14.329  14.954  -2.687  0.00  0.00     0.230 C 
ATOM     20  O   UNL d   1      14.405  15.289  -1.937  0.00  0.00    -0.283 OA
ATOM     21  C   UNL d   1      14.371  15.434  -3.352  0.00  0.00     0.049 C 
ENDBRANCH   2  19
TORSDOF 3
ENDMDL
