MODEL 1
REMARK VINA RESULT:      -2.5      0.000      0.000
REMARK  3 active torsions:
REMARK  status: ('A' for Active; 'I' for Inactive)
REMARK    1  A    between atoms: C_8  and  N_2 
REMARK    2  A    between atoms: C_14  and  C_8 
REMARK    3  A    between atoms: N_13  and  C_14 
ROOT
ATOM      1  C   UNL d   1      33.236  21.167 -22.941  0.00  0.00     0.166 A 
ATOM      2  N   UNL d   1      33.238  20.481 -22.499  0.00  0.00    -0.288 N 
ATOM      3  C   UNL d   1      33.235  21.843 -22.462  0.00  0.00     0.117 A 
ATOM      4  C   UNL d   1      33.237  21.564 -21.716  0.00  0.00     0.037 A 
ATOM      5  C   UNL d   1      33.239  20.706 -21.736  0.00  0.00     0.067 A 
ATOM      6  N   UNL d   1      33.235  21.282 -23.725  0.00  0.00    -0.225 NA
ATOM      7  N   UNL d   1      33.232  22.617 -22.759  0.00  0.00    -0.241 NA
ATOM      8  C   UNL d   1      33.232  22.061 -24.021  0.00  0.00     0.101 A 
ATOM      9  C   UNL d   1      33.231  22.727 -23.534  0.00  0.00     0.099 A 
ATOM     10  C   UNL d   1      33.241  20.266 -21.060  0.00  0.00     0.018 A 
ATOM     11  C   UNL d   1      33.237  21.961 -21.020  0.00  0.00     0.010 A 
ATOM     12  C   UNL d   1      33.239  21.531 -20.344  0.00  0.00     0.035 A 
ATOM     13  C   UNL d   1      33.241  20.673 -20.364  0.00  0.00     0.008 A 
ATOM     14 BR   UNL d   1      33.239  21.900 -19.629  0.00  0.00    -0.049 Br
ATOM     15  C   UNL d   1      33.229  23.501 -23.840  0.00  0.00     0.021 A 
ATOM     16  C   UNL d   1      33.231  22.169 -24.800  0.00  0.00     0.021 A 
ATOM     17  C   UNL d   1      33.229  22.945 -25.096  0.00  0.00     0.002 A 
ATOM     18  C   UNL d   1      33.227  23.609 -24.614  0.00  0.00     0.002 A 
ENDROOT
BRANCH   2  19
ATOM     19  C   UNL d   1      33.240  19.677 -22.771  0.00  0.00     0.101 C 
BRANCH  19  20
ATOM     20  C   UNL d   1      32.494  19.287 -22.826  0.00  0.00     0.100 C 
BRANCH  20  21
ATOM     21  N   UNL d   1      32.657  18.573 -23.240  0.00  0.00    -0.298 N 
ATOM     22  C   UNL d   1      32.388  18.479 -24.036  0.00  0.00     0.107 A 
ATOM     23  C   UNL d   1      32.548  17.772 -24.447  0.00  0.00     0.142 A 
ATOM     24  O   UNL d   1      32.975  17.154 -24.072  0.00  0.00    -0.300 OA
ATOM     25  C   UNL d   1      33.240  17.255 -23.280  0.00  0.00     0.142 A 
ATOM     26  C   UNL d   1      33.080  17.965 -22.865  0.00  0.00     0.107 A 
ENDBRANCH  20  21
ENDBRANCH  19  20
ENDBRANCH   2  19
TORSDOF 3
ENDMDL
MODEL 2
REMARK VINA RESULT:      -2.0      1.310      2.866
REMARK  3 active torsions:
REMARK  status: ('A' for Active; 'I' for Inactive)
REMARK    1  A    between atoms: C_8  and  N_2 
REMARK    2  A    between atoms: C_14  and  C_8 
REMARK    3  A    between atoms: N_13  and  C_14 
ROOT
ATOM      1  C   UNL d   1      33.204  21.496 -22.297  0.00  0.00     0.166 A 
ATOM      2  N   UNL d   1      33.224  21.059 -22.987  0.00  0.00    -0.288 N 
ATOM      3  C   UNL d   1      33.192  22.311 -22.447  0.00  0.00     0.117 A 
ATOM      4  C   UNL d   1      33.204  22.371 -23.242  0.00  0.00     0.037 A 
ATOM      5  C   UNL d   1      33.225  21.585 -23.585  0.00  0.00     0.067 A 
ATOM      6  N   UNL d   1      33.195  21.270 -21.538  0.00  0.00    -0.225 NA
ATOM      7  N   UNL d   1      33.171  22.888 -21.852  0.00  0.00    -0.241 NA
ATOM      8  C   UNL d   1      33.174  21.852 -20.942  0.00  0.00     0.101 A 
ATOM      9  C   UNL d   1      33.162  22.661 -21.104  0.00  0.00     0.099 A 
ATOM     10  C   UNL d   1      33.241  21.470 -24.383  0.00  0.00     0.018 A 
ATOM     11  C   UNL d   1      33.201  23.025 -23.706  0.00  0.00     0.010 A 
ATOM     12  C   UNL d   1      33.217  22.919 -24.500  0.00  0.00     0.035 A 
ATOM     13  C   UNL d   1      33.237  22.133 -24.842  0.00  0.00     0.008 A 
ATOM     14 BR   UNL d   1      33.214  23.555 -24.993  0.00  0.00    -0.049 Br
ATOM     15  C   UNL d   1      33.141  23.234 -20.501  0.00  0.00     0.021 A 
ATOM     16  C   UNL d   1      33.165  21.622 -20.189  0.00  0.00     0.021 A 
ATOM     17  C   UNL d   1      33.144  22.201 -19.595  0.00  0.00     0.002 A 
ATOM     18  C   UNL d   1      33.132  23.006 -19.752  0.00  0.00     0.002 A 
ENDROOT
BRANCH   2  19
ATOM     19  C   UNL d   1      33.241  20.216 -23.078  0.00  0.00     0.101 C 
BRANCH  19  20
ATOM     20  C   UNL d   1      32.501  19.824 -23.177  0.00  0.00     0.100 C 
BRANCH  20  21
ATOM     21  N   UNL d   1      32.701  19.013 -23.279  0.00  0.00    -0.298 N 
ATOM     22  C   UNL d   1      32.560  18.636 -24.023  0.00  0.00     0.107 A 
ATOM     23  C   UNL d   1      32.758  17.833 -24.125  0.00  0.00     0.142 A 
ATOM     24  O   UNL d   1      33.096  17.399 -23.491  0.00  0.00    -0.300 OA
ATOM     25  C   UNL d   1      33.234  17.780 -22.754  0.00  0.00     0.142 A 
ATOM     26  C   UNL d   1      33.036  18.588 -22.650  0.00  0.00     0.107 A 
ENDBRANCH  20  21
ENDBRANCH  19  20
ENDBRANCH   2  19
TORSDOF 3
ENDMDL
MODEL 3
REMARK VINA RESULT:      -1.8      2.088      4.326
REMARK  3 active torsions:
REMARK  status: ('A' for Active; 'I' for Inactive)
REMARK    1  A    between atoms: C_8  and  N_2 
REMARK    2  A    between atoms: C_14  and  C_8 
REMARK    3  A    between atoms: N_13  and  C_14 
ROOT
ATOM      1  C   UNL d   1      33.191  20.570 -22.628  0.00  0.00     0.166 A 
ATOM      2  N   UNL d   1      33.216  21.321 -22.308  0.00  0.00    -0.288 N 
ATOM      3  C   UNL d   1      33.177  20.587 -23.456  0.00  0.00     0.117 A 
ATOM      4  C   UNL d   1      33.195  21.361 -23.644  0.00  0.00     0.037 A 
ATOM      5  C   UNL d   1      33.219  21.826 -22.924  0.00  0.00     0.067 A 
ATOM      6  N   UNL d   1      33.178  19.858 -22.282  0.00  0.00    -0.225 NA
ATOM      7  N   UNL d   1      33.151  19.906 -23.929  0.00  0.00    -0.241 NA
ATOM      8  C   UNL d   1      33.151  19.176 -22.760  0.00  0.00     0.101 A 
ATOM      9  C   UNL d   1      33.138  19.204 -23.584  0.00  0.00     0.099 A 
ATOM     10  C   UNL d   1      33.241  22.632 -22.940  0.00  0.00     0.018 A 
ATOM     11  C   UNL d   1      33.192  21.713 -24.364  0.00  0.00     0.010 A 
ATOM     12  C   UNL d   1      33.213  22.513 -24.389  0.00  0.00     0.035 A 
ATOM     13  C   UNL d   1      33.237  22.978 -23.668  0.00  0.00     0.008 A 
ATOM     14 BR   UNL d   1      33.211  22.897 -25.096  0.00  0.00    -0.049 Br
ATOM     15  C   UNL d   1      33.112  18.516 -24.052  0.00  0.00     0.021 A 
ATOM     16  C   UNL d   1      33.138  18.470 -22.411  0.00  0.00     0.021 A 
ATOM     17  C   UNL d   1      33.112  17.790 -22.885  0.00  0.00     0.002 A 
ATOM     18  C   UNL d   1      33.099  17.815 -23.706  0.00  0.00     0.002 A 
ENDROOT
BRANCH   2  19
ATOM     19  C   UNL d   1      33.237  21.548 -21.491  0.00  0.00     0.101 C 
BRANCH  19  20
ATOM     20  C   UNL d   1      32.527  21.449 -21.046  0.00  0.00     0.100 C 
BRANCH  20  21
ATOM     21  N   UNL d   1      32.641  21.918 -20.357  0.00  0.00    -0.298 N 
ATOM     22  C   UNL d   1      33.086  21.609 -19.708  0.00  0.00     0.107 A 
ATOM     23  C   UNL d   1      33.199  22.073 -19.024  0.00  0.00     0.142 A 
ATOM     24  O   UNL d   1      32.871  22.844 -18.980  0.00  0.00    -0.300 OA
ATOM     25  C   UNL d   1      32.429  23.145 -19.629  0.00  0.00     0.142 A 
ATOM     26  C   UNL d   1      32.314  22.680 -20.318  0.00  0.00     0.107 A 
ENDBRANCH  20  21
ENDBRANCH  19  20
ENDBRANCH   2  19
TORSDOF 3
ENDMDL
MODEL 4
REMARK VINA RESULT:      -0.3      2.218      3.842
REMARK  3 active torsions:
REMARK  status: ('A' for Active; 'I' for Inactive)
REMARK    1  A    between atoms: C_8  and  N_2 
REMARK    2  A    between atoms: C_14  and  C_8 
REMARK    3  A    between atoms: N_13  and  C_14 
ROOT
ATOM      1  C   UNL d   1      33.154  21.992 -22.296  0.00  0.00     0.166 A 
ATOM      2  N   UNL d   1      33.188  21.712 -21.530  0.00  0.00    -0.288 N 
ATOM      3  C   UNL d   1      33.146  21.376 -22.850  0.00  0.00     0.117 A 
ATOM      4  C   UNL d   1      33.175  20.709 -22.414  0.00  0.00     0.037 A 
ATOM      5  C   UNL d   1      33.202  20.918 -21.582  0.00  0.00     0.067 A 
ATOM      6  N   UNL d   1      33.128  22.731 -22.580  0.00  0.00    -0.225 NA
ATOM      7  N   UNL d   1      33.113  21.495 -23.670  0.00  0.00    -0.241 NA
ATOM      8  C   UNL d   1      33.096  22.848 -23.404  0.00  0.00     0.101 A 
ATOM      9  C   UNL d   1      33.088  22.227 -23.946  0.00  0.00     0.099 A 
ATOM     10  C   UNL d   1      33.234  20.356 -21.005  0.00  0.00     0.018 A 
ATOM     11  C   UNL d   1      33.182  19.944 -22.649  0.00  0.00     0.010 A 
ATOM     12  C   UNL d   1      33.214  19.379 -22.081  0.00  0.00     0.035 A 
ATOM     13  C   UNL d   1      33.241  19.587 -21.250  0.00  0.00     0.008 A 
ATOM     14 BR   UNL d   1      33.222  18.600 -22.285  0.00  0.00    -0.049 Br
ATOM     15  C   UNL d   1      33.055  22.354 -24.769  0.00  0.00     0.021 A 
ATOM     16  C   UNL d   1      33.071  23.584 -23.681  0.00  0.00     0.021 A 
ATOM     17  C   UNL d   1      33.038  23.702 -24.501  0.00  0.00     0.002 A 
ATOM     18  C   UNL d   1      33.030  23.086 -25.044  0.00  0.00     0.002 A 
ENDROOT
BRANCH   2  19
ATOM     19  C   UNL d   1      33.205  22.154 -20.806  0.00  0.00     0.101 C 
BRANCH  19  20
ATOM     20  C   UNL d   1      32.876  21.787 -20.122  0.00  0.00     0.100 C 
BRANCH  20  21
ATOM     21  N   UNL d   1      32.828  22.404 -19.551  0.00  0.00    -0.298 N 
ATOM     22  C   UNL d   1      33.223  22.320 -18.809  0.00  0.00     0.107 A 
ATOM     23  C   UNL d   1      33.176  22.930 -18.242  0.00  0.00     0.142 A 
ATOM     24  O   UNL d   1      32.737  23.626 -18.409  0.00  0.00    -0.300 OA
ATOM     25  C   UNL d   1      32.347  23.702 -19.150  0.00  0.00     0.142 A 
ATOM     26  C   UNL d   1      32.393  23.090 -19.721  0.00  0.00     0.107 A 
ENDBRANCH  20  21
ENDBRANCH  19  20
ENDBRANCH   2  19
TORSDOF 3
ENDMDL
