MODEL 1
REMARK VINA RESULT:      -4.0      0.000      0.000
REMARK  5 active torsions:
REMARK  status: ('A' for Active; 'I' for Inactive)
REMARK    1  A    between atoms: C_14  and  N_3 
REMARK    2  A    between atoms: C_13  and  N_7 
REMARK    3  A    between atoms: C_10  and  C_13 
REMARK       I    between atoms: N_11  and  C_10 
REMARK    4  A    between atoms: C_21  and  N_12 
REMARK    5  A    between atoms: C_22  and  C_14 
ROOT
ATOM      1  C   UNL d   1      59.810  -0.909  29.412  0.00  0.00     0.191 A 
ATOM      2  C   UNL d   1      60.218  -0.374  29.903  0.00  0.00     0.196 A 
ATOM      3  N   UNL d   1      60.380  -1.359  29.011  0.00  0.00    -0.191 N 
ATOM      4  N   UNL d   1      58.994  -0.908  29.403  0.00  0.00    -0.204 NA
ATOM      5  N   UNL d   1      61.029  -0.506  29.793  0.00  0.00    -0.122 NA
ATOM      6  N   UNL d   1      61.117  -1.102  29.253  0.00  0.00    -0.058 NA
ATOM      7  N   UNL d   1      58.973   0.151  30.364  0.00  0.00    -0.249 N 
ATOM      8  C   UNL d   1      59.797   0.147  30.370  0.00  0.00     0.289 A 
ATOM      9  C   UNL d   1      58.566  -0.385  29.873  0.00  0.00     0.187 A 
ATOM     10  O   UNL d   1      60.204   0.682  30.861  0.00  0.00    -0.265 OA
ENDROOT
BRANCH   7  11
ATOM     11  C   UNL d   1      58.538   0.677  30.837  0.00  0.00     0.146 C 
BRANCH  11  12
ATOM     12  C   UNL d   1      57.707   0.679  30.812  0.00  0.00     0.283 C 
ATOM     13  N   UNL d   1      57.282   0.679  31.513  0.00  0.00    -0.268 N 
ATOM     14  C   UNL d   1      57.692   0.678  32.230  0.00  0.00     0.102 A 
ATOM     15  C   UNL d   1      56.470   0.681  31.488  0.00  0.00     0.102 A 
ATOM     16  C   UNL d   1      57.260   0.678  32.935  0.00  0.00     0.100 A 
ATOM     17  N   UNL d   1      56.432   0.680  32.918  0.00  0.00    -0.301 N 
ATOM     18  C   UNL d   1      56.037   0.682  32.194  0.00  0.00     0.100 A 
ATOM     19  O   UNL d   1      57.319   0.680  30.084  0.00  0.00    -0.265 OA
BRANCH  17  20
ATOM     20  C   UNL d   1      56.008   0.680  33.619  0.00  0.00     0.064 A 
ATOM     21  C   UNL d   1      56.407   0.680  34.327  0.00  0.00     0.018 A 
ATOM     22  C   UNL d   1      55.982   0.681  35.038  0.00  0.00     0.002 A 
ATOM     23  C   UNL d   1      55.157   0.681  35.023  0.00  0.00     0.000 A 
ATOM     24  C   UNL d   1      54.758   0.681  34.298  0.00  0.00     0.002 A 
ATOM     25  C   UNL d   1      55.183   0.681  33.588  0.00  0.00     0.018 A 
ENDBRANCH  17  20
ENDBRANCH  11  12
ENDBRANCH   7  11
BRANCH   3  26
ATOM     26  C   UNL d   1      60.230  -1.968  28.456  0.00  0.00     0.104 C 
BRANCH  26  27
ATOM     27  C   UNL d   1      60.289  -2.764  28.689  0.00  0.00     0.019 A 
ATOM     28  C   UNL d   1      61.027  -3.107  28.822  0.00  0.00     0.002 A 
ATOM     29  C   UNL d   1      61.063  -3.884  29.049  0.00  0.00     0.000 A 
ATOM     30  C   UNL d   1      60.393  -4.335  29.149  0.00  0.00     0.000 A 
ATOM     31  C   UNL d   1      59.636  -3.981  29.012  0.00  0.00     0.000 A 
ATOM     32  C   UNL d   1      59.597  -3.196  28.783  0.00  0.00     0.002 A 
ENDBRANCH  26  27
ENDBRANCH   3  26
TORSDOF 5
ENDMDL
MODEL 2
REMARK VINA RESULT:      -2.0      1.155      6.594
REMARK  5 active torsions:
REMARK  status: ('A' for Active; 'I' for Inactive)
REMARK    1  A    between atoms: C_14  and  N_3 
REMARK    2  A    between atoms: C_13  and  N_7 
REMARK    3  A    between atoms: C_10  and  C_13 
REMARK       I    between atoms: N_11  and  C_10 
REMARK    4  A    between atoms: C_21  and  N_12 
REMARK    5  A    between atoms: C_22  and  C_14 
ROOT
ATOM      1  C   UNL d   1      56.270   0.025  32.860  0.00  0.00     0.191 A 
ATOM      2  C   UNL d   1      56.157  -0.734  32.534  0.00  0.00     0.196 A 
ATOM      3  N   UNL d   1      55.896   0.035  33.600  0.00  0.00    -0.191 N 
ATOM      4  N   UNL d   1      56.691   0.585  32.441  0.00  0.00    -0.204 NA
ATOM      5  N   UNL d   1      55.715  -1.173  33.082  0.00  0.00    -0.122 NA
ATOM      6  N   UNL d   1      55.563  -0.701  33.721  0.00  0.00    -0.058 NA
ATOM      7  N   UNL d   1      56.892  -0.346  31.374  0.00  0.00    -0.249 N 
ATOM      8  C   UNL d   1      56.467  -0.909  31.800  0.00  0.00     0.289 A 
ATOM      9  C   UNL d   1      57.006   0.412  31.700  0.00  0.00     0.187 A 
ATOM     10  O   UNL d   1      56.353  -1.667  31.475  0.00  0.00    -0.265 OA
ENDROOT
BRANCH   7  11
ATOM     11  C   UNL d   1      57.210  -0.517  30.627  0.00  0.00     0.146 C 
BRANCH  11  12
ATOM     12  C   UNL d   1      58.006  -0.345  30.457  0.00  0.00     0.283 C 
ATOM     13  N   UNL d   1      58.483  -0.923  30.124  0.00  0.00    -0.268 N 
ATOM     14  C   UNL d   1      58.159  -1.665  29.964  0.00  0.00     0.102 A 
ATOM     15  C   UNL d   1      59.260  -0.753  29.959  0.00  0.00     0.102 A 
ATOM     16  C   UNL d   1      58.643  -2.246  29.628  0.00  0.00     0.100 A 
ATOM     17  N   UNL d   1      59.436  -2.081  29.457  0.00  0.00    -0.301 N 
ATOM     18  C   UNL d   1      59.745  -1.334  29.622  0.00  0.00     0.100 A 
ATOM     19  O   UNL d   1      58.308   0.404  30.626  0.00  0.00    -0.265 OA
BRANCH  17  20
ATOM     20  C   UNL d   1      59.912  -2.659  29.123  0.00  0.00     0.064 A 
ATOM     21  C   UNL d   1      59.642  -3.425  29.085  0.00  0.00     0.018 A 
ATOM     22  C   UNL d   1      60.119  -4.012  28.749  0.00  0.00     0.002 A 
ATOM     23  C   UNL d   1      60.865  -3.817  28.456  0.00  0.00     0.000 A 
ATOM     24  C   UNL d   1      61.133  -3.034  28.498  0.00  0.00     0.002 A 
ATOM     25  C   UNL d   1      60.655  -2.448  28.834  0.00  0.00     0.018 A 
ENDBRANCH  17  20
ENDBRANCH  11  12
ENDBRANCH   7  11
BRANCH   3  26
ATOM     26  C   UNL d   1      55.864   0.682  34.130  0.00  0.00     0.104 C 
BRANCH  26  27
ATOM     27  C   UNL d   1      55.329   0.669  34.767  0.00  0.00     0.019 A 
ATOM     28  C   UNL d   1      54.516   0.678  34.630  0.00  0.00     0.002 A 
ATOM     29  C   UNL d   1      54.011   0.665  35.264  0.00  0.00     0.000 A 
ATOM     30  C   UNL d   1      54.284   0.643  36.031  0.00  0.00     0.000 A 
ATOM     31  C   UNL d   1      55.119   0.633  36.170  0.00  0.00     0.000 A 
ATOM     32  C   UNL d   1      55.631   0.646  35.530  0.00  0.00     0.002 A 
ENDBRANCH  26  27
ENDBRANCH   3  26
TORSDOF 5
ENDMDL
