MODEL 1
REMARK VINA RESULT:      -2.7      0.000      0.000
REMARK  4 active torsions:
REMARK  status: ('A' for Active; 'I' for Inactive)
REMARK    1  A    between atoms: C_12  and  N_1 
REMARK    2  A    between atoms: N_2  and  C_11 
REMARK    3  A    between atoms: C_11  and  C_15 
REMARK    4  A    between atoms: C_15  and  C_12 
ROOT
ATOM      1  N   UNL d   1     -42.442-122.898 -49.722  0.00  0.00    -0.303 N 
ATOM      2  C   UNL d   1     -43.240-123.155 -49.692  0.00  0.00     0.064 A 
ATOM      3  C   UNL d   1     -43.368-123.490 -48.932  0.00  0.00     0.018 A 
ATOM      4  C   UNL d   1     -42.655-123.437 -48.507  0.00  0.00     0.018 A 
ATOM      5  C   UNL d   1     -42.089-123.075 -48.990  0.00  0.00     0.064 A 
ATOM      6  C   UNL d   1     -41.324-122.951 -48.707  0.00  0.00     0.018 A 
ATOM      7  C   UNL d   1     -42.455-123.673 -47.743  0.00  0.00     0.002 A 
ATOM      8  C   UNL d   1     -41.125-123.188 -47.943  0.00  0.00     0.002 A 
ATOM      9  C   UNL d   1     -41.691-123.549 -47.460  0.00  0.00     0.000 A 
ATOM     10  C   UNL d   1     -43.799-123.089 -50.298  0.00  0.00     0.019 C 
ATOM     11  C   UNL d   1     -44.072-123.811 -48.661  0.00  0.00     0.002 C 
ATOM     12  C   UNL d   1     -41.491-123.786 -46.696  0.00  0.00     0.000 C 
ENDROOT
BRANCH   1  13
ATOM     13  C   UNL d   1     -42.082-122.534 -50.373  0.00  0.00     0.124 C 
BRANCH  13  14
ATOM     14  C   UNL d   1     -41.799-123.002 -50.994  0.00  0.00     0.232 C 
ATOM     15  O   UNL d   1     -42.147-123.736 -51.154  0.00  0.00    -0.283 OA
BRANCH  14  16
ATOM     16  C   UNL d   1     -41.171-122.736 -51.452  0.00  0.00     0.144 C 
BRANCH  16  17
ATOM     17  N   UNL d   1     -41.205-122.790 -52.279  0.00  0.00    -0.225 N 
ATOM     18  N   UNL d   1     -41.177-123.486 -52.718  0.00  0.00    -0.165 NA
ATOM     19  C   UNL d   1     -41.227-123.287 -53.522  0.00  0.00     0.109 A 
ATOM     20  C   UNL d   1     -41.220-123.817 -54.152  0.00  0.00     0.023 C 
ATOM     21  C   UNL d   1     -41.285-122.462 -53.572  0.00  0.00     0.072 A 
ATOM     22  C   UNL d   1     -41.272-122.153 -52.810  0.00  0.00     0.091 A 
ATOM     23 BR   UNL d   1     -41.347-122.024 -54.269  0.00  0.00    -0.046 Br
ATOM     24  C   UNL d   1     -41.317-121.355 -52.605  0.00  0.00     0.021 C 
ENDBRANCH  16  17
ENDBRANCH  14  16
ENDBRANCH  13  14
ENDBRANCH   1  13
TORSDOF 4
ENDMDL
MODEL 2
REMARK VINA RESULT:      -1.9      1.617      4.857
REMARK  4 active torsions:
REMARK  status: ('A' for Active; 'I' for Inactive)
REMARK    1  A    between atoms: C_12  and  N_1 
REMARK    2  A    between atoms: N_2  and  C_11 
REMARK    3  A    between atoms: C_11  and  C_15 
REMARK    4  A    between atoms: C_15  and  C_12 
ROOT
ATOM      1  N   UNL d   1     -41.277-122.492 -52.206  0.00  0.00    -0.303 N 
ATOM      2  C   UNL d   1     -41.460-121.678 -52.292  0.00  0.00     0.064 A 
ATOM      3  C   UNL d   1     -41.564-121.529 -53.112  0.00  0.00     0.018 A 
ATOM      4  C   UNL d   1     -41.445-122.246 -53.518  0.00  0.00     0.018 A 
ATOM      5  C   UNL d   1     -41.270-122.834 -52.964  0.00  0.00     0.064 A 
ATOM      6  C   UNL d   1     -41.125-123.607 -53.214  0.00  0.00     0.018 A 
ATOM      7  C   UNL d   1     -41.475-122.430 -54.321  0.00  0.00     0.002 A 
ATOM      8  C   UNL d   1     -41.155-123.792 -54.017  0.00  0.00     0.002 A 
ATOM      9  C   UNL d   1     -41.330-123.203 -54.571  0.00  0.00     0.000 A 
ATOM     10  C   UNL d   1     -41.526-121.124 -51.682  0.00  0.00     0.019 C 
ATOM     11  C   UNL d   1     -41.749-120.805 -53.450  0.00  0.00     0.002 C 
ATOM     12  C   UNL d   1     -41.360-123.388 -55.375  0.00  0.00     0.000 C 
ENDROOT
BRANCH   1  13
ATOM     13  C   UNL d   1     -41.132-122.875 -51.486  0.00  0.00     0.124 C 
BRANCH  13  14
ATOM     14  C   UNL d   1     -41.771-123.144 -51.034  0.00  0.00     0.232 C 
ATOM     15  O   UNL d   1     -42.541-122.900 -51.215  0.00  0.00    -0.283 OA
BRANCH  14  16
ATOM     16  C   UNL d   1     -41.639-123.654 -50.403  0.00  0.00     0.144 C 
BRANCH  16  17
ATOM     17  N   UNL d   1     -42.127-123.626 -49.734  0.00  0.00    -0.225 N 
ATOM     18  N   UNL d   1     -42.932-123.798 -49.716  0.00  0.00    -0.165 NA
ATOM     19  C   UNL d   1     -43.200-123.700 -48.937  0.00  0.00     0.109 A 
ATOM     20  C   UNL d   1     -43.972-123.816 -48.674  0.00  0.00     0.023 C 
ATOM     21  C   UNL d   1     -42.552-123.466 -48.476  0.00  0.00     0.072 A 
ATOM     22  C   UNL d   1     -41.891-123.420 -48.963  0.00  0.00     0.091 A 
ATOM     23 BR   UNL d   1     -42.568-123.307 -47.667  0.00  0.00    -0.046 Br
ATOM     24  C   UNL d   1     -41.128-123.206 -48.731  0.00  0.00     0.021 C 
ENDBRANCH  16  17
ENDBRANCH  14  16
ENDBRANCH  13  14
ENDBRANCH   1  13
TORSDOF 4
ENDMDL
MODEL 3
REMARK VINA RESULT:      -0.5      1.709      5.001
REMARK  4 active torsions:
REMARK  status: ('A' for Active; 'I' for Inactive)
REMARK    1  A    between atoms: C_12  and  N_1 
REMARK    2  A    between atoms: N_2  and  C_11 
REMARK    3  A    between atoms: C_11  and  C_15 
REMARK    4  A    between atoms: C_15  and  C_12 
ROOT
ATOM      1  N   UNL d   1     -41.612-122.327 -52.665  0.00  0.00    -0.303 N 
ATOM      2  C   UNL d   1     -41.385-123.099 -52.902  0.00  0.00     0.064 A 
ATOM      3  C   UNL d   1     -41.466-123.139 -53.737  0.00  0.00     0.018 A 
ATOM      4  C   UNL d   1     -41.738-122.400 -54.003  0.00  0.00     0.018 A 
ATOM      5  C   UNL d   1     -41.827-121.903 -53.348  0.00  0.00     0.064 A 
ATOM      6  C   UNL d   1     -42.092-121.129 -53.450  0.00  0.00     0.018 A 
ATOM      7  C   UNL d   1     -41.914-122.122 -54.759  0.00  0.00     0.002 A 
ATOM      8  C   UNL d   1     -42.268-120.850 -54.206  0.00  0.00     0.002 A 
ATOM      9  C   UNL d   1     -42.179-121.347 -54.861  0.00  0.00     0.000 A 
ATOM     10  C   UNL d   1     -41.130-123.708 -52.405  0.00  0.00     0.019 C 
ATOM     11  C   UNL d   1     -41.304-123.794 -54.204  0.00  0.00     0.002 C 
ATOM     12  C   UNL d   1     -42.355-121.069 -55.618  0.00  0.00     0.000 C 
ENDROOT
BRANCH   1  13
ATOM     13  C   UNL d   1     -41.616-122.049 -51.885  0.00  0.00     0.124 C 
BRANCH  13  14
ATOM     14  C   UNL d   1     -42.091-122.426 -51.322  0.00  0.00     0.232 C 
ATOM     15  O   UNL d   1     -42.916-122.373 -51.371  0.00  0.00    -0.283 OA
BRANCH  14  16
ATOM     16  C   UNL d   1     -41.742-122.853 -50.713  0.00  0.00     0.144 C 
BRANCH  16  17
ATOM     17  N   UNL d   1     -42.195-123.106 -50.068  0.00  0.00    -0.225 N 
ATOM     18  N   UNL d   1     -42.986-123.338 -50.094  0.00  0.00    -0.165 NA
ATOM     19  C   UNL d   1     -43.220-123.547 -49.326  0.00  0.00     0.109 A 
ATOM     20  C   UNL d   1     -43.968-123.811 -49.104  0.00  0.00     0.023 C 
ATOM     21  C   UNL d   1     -42.566-123.443 -48.828  0.00  0.00     0.072 A 
ATOM     22  C   UNL d   1     -41.935-123.172 -49.280  0.00  0.00     0.091 A 
ATOM     23 BR   UNL d   1     -42.550-123.587 -48.015  0.00  0.00    -0.046 Br
ATOM     24  C   UNL d   1     -41.177-122.996 -49.005  0.00  0.00     0.021 C 
ENDBRANCH  16  17
ENDBRANCH  14  16
ENDBRANCH  13  14
ENDBRANCH   1  13
TORSDOF 4
ENDMDL
