MODEL 1
REMARK VINA RESULT:      -4.6      0.000      0.000
REMARK  3 active torsions:
REMARK  status: ('A' for Active; 'I' for Inactive)
REMARK    1  A    between atoms: C_4  and  S_13 
REMARK    2  A    between atoms: C_16  and  C_6 
REMARK    3  A    between atoms: S_13  and  C_16 
ROOT
ATOM      1  C   UNL d   1      57.048  -0.284  31.879  0.00  0.00     0.059 C 
ENDROOT
BRANCH   1   2
ATOM      2  S   UNL d   1      57.297   0.290  31.365  0.00  0.00    -0.046 SA
BRANCH   2   3
ATOM      3  C   UNL d   1      57.777   0.076  30.730  0.00  0.00     0.194 A 
ATOM      4  N   UNL d   1      57.911  -0.637  30.338  0.00  0.00    -0.220 NA
ATOM      5  C   UNL d   1      58.455  -0.503  29.742  0.00  0.00     0.101 A 
ATOM      6  C   UNL d   1      58.785  -1.006  29.189  0.00  0.00     0.021 A 
ATOM      7  C   UNL d   1      58.657   0.269  29.760  0.00  0.00     0.101 A 
ATOM      8  C   UNL d   1      59.325  -0.737  28.643  0.00  0.00     0.002 A 
ATOM      9  C   UNL d   1      59.552   0.066  28.641  0.00  0.00     0.002 A 
ATOM     10  C   UNL d   1      59.206   0.581  29.218  0.00  0.00     0.021 A 
ATOM     11  N   UNL d   1      58.247   0.663  30.371  0.00  0.00    -0.220 NA
ENDBRANCH   2   3
ENDBRANCH   1   2
BRANCH   1  12
ATOM     12  C   UNL d   1      56.596  -0.076  32.526  0.00  0.00     0.107 A 
ATOM     13  C   UNL d   1      56.868   0.146  33.261  0.00  0.00     0.101 A 
ATOM     14  N   UNL d   1      56.242   0.313  33.766  0.00  0.00    -0.289 N 
ATOM     15  C   UNL d   1      55.548   0.191  33.329  0.00  0.00     0.148 A 
ATOM     16  C   UNL d   1      56.187   0.560  34.563  0.00  0.00     0.066 A 
ATOM     17  N   UNL d   1      55.758  -0.050  32.560  0.00  0.00    -0.226 NA
ATOM     18  C   UNL d   1      54.812   0.312  33.680  0.00  0.00     0.037 A 
ATOM     19  C   UNL d   1      54.765   0.559  34.477  0.00  0.00     0.005 A 
ATOM     20  C   UNL d   1      55.458   0.681  34.913  0.00  0.00     0.018 A 
ATOM     21  C   UNL d   1      56.889   0.682  35.000  0.00  0.00     0.019 C 
ENDBRANCH   1  12
TORSDOF 3
ENDMDL
MODEL 2
REMARK VINA RESULT:      -4.5      0.614      5.209
REMARK  3 active torsions:
REMARK  status: ('A' for Active; 'I' for Inactive)
REMARK    1  A    between atoms: C_4  and  S_13 
REMARK    2  A    between atoms: C_16  and  C_6 
REMARK    3  A    between atoms: S_13  and  C_16 
ROOT
ATOM      1  C   UNL d   1      57.392  -0.010  30.959  0.00  0.00     0.059 C 
ENDROOT
BRANCH   1   2
ATOM      2  S   UNL d   1      57.577  -0.002  31.747  0.00  0.00    -0.046 SA
BRANCH   2   3
ATOM      3  C   UNL d   1      56.969   0.053  32.301  0.00  0.00     0.194 A 
ATOM      4  N   UNL d   1      56.184  -0.198  32.304  0.00  0.00    -0.220 NA
ATOM      5  C   UNL d   1      55.849   0.018  33.018  0.00  0.00     0.101 A 
ATOM      6  C   UNL d   1      55.095  -0.089  33.316  0.00  0.00     0.021 A 
ATOM      7  C   UNL d   1      56.406   0.392  33.450  0.00  0.00     0.101 A 
ATOM      8  C   UNL d   1      54.891   0.180  34.055  0.00  0.00     0.002 A 
ATOM      9  C   UNL d   1      55.456   0.575  34.526  0.00  0.00     0.002 A 
ATOM     10  C   UNL d   1      56.235   0.682  34.211  0.00  0.00     0.021 A 
ATOM     11  N   UNL d   1      57.125   0.432  33.027  0.00  0.00    -0.220 NA
ENDBRANCH   2   3
ENDBRANCH   1   2
BRANCH   1  12
ATOM     12  C   UNL d   1      57.989  -0.061  30.406  0.00  0.00     0.107 A 
ATOM     13  C   UNL d   1      58.213  -0.724  29.990  0.00  0.00     0.101 A 
ATOM     14  N   UNL d   1      58.837  -0.554  29.483  0.00  0.00    -0.289 N 
ATOM     15  C   UNL d   1      59.011   0.251  29.586  0.00  0.00     0.148 A 
ATOM     16  C   UNL d   1      59.283  -1.003  28.936  0.00  0.00     0.066 A 
ATOM     17  N   UNL d   1      58.490   0.564  30.156  0.00  0.00    -0.226 NA
ATOM     18  C   UNL d   1      59.619   0.601  29.152  0.00  0.00     0.037 A 
ATOM     19  C   UNL d   1      60.060   0.146  28.608  0.00  0.00     0.005 A 
ATOM     20  C   UNL d   1      59.886  -0.658  28.505  0.00  0.00     0.018 A 
ATOM     21  C   UNL d   1      59.105  -1.813  28.836  0.00  0.00     0.019 C 
ENDBRANCH   1  12
TORSDOF 3
ENDMDL
MODEL 3
REMARK VINA RESULT:      -4.2      0.651      5.097
REMARK  3 active torsions:
REMARK  status: ('A' for Active; 'I' for Inactive)
REMARK    1  A    between atoms: C_4  and  S_13 
REMARK    2  A    between atoms: C_16  and  C_6 
REMARK    3  A    between atoms: S_13  and  C_16 
ROOT
ATOM      1  C   UNL d   1      57.183  -0.114  31.249  0.00  0.00     0.059 C 
ENDROOT
BRANCH   1   2
ATOM      2  S   UNL d   1      56.977  -0.652  31.818  0.00  0.00    -0.046 SA
BRANCH   2   3
ATOM      3  C   UNL d   1      56.517  -0.404  32.456  0.00  0.00     0.194 A 
ATOM      4  N   UNL d   1      55.716  -0.472  32.635  0.00  0.00    -0.220 NA
ATOM      5  C   UNL d   1      55.583  -0.112  33.356  0.00  0.00     0.101 A 
ATOM      6  C   UNL d   1      54.899  -0.016  33.795  0.00  0.00     0.021 A 
ATOM      7  C   UNL d   1      56.279   0.174  33.622  0.00  0.00     0.101 A 
ATOM      8  C   UNL d   1      54.908   0.370  34.511  0.00  0.00     0.002 A 
ATOM      9  C   UNL d   1      55.624   0.678  34.810  0.00  0.00     0.002 A 
ATOM     10  C   UNL d   1      56.327   0.575  34.350  0.00  0.00     0.021 A 
ATOM     11  N   UNL d   1      56.889   0.007  33.078  0.00  0.00    -0.220 NA
ENDBRANCH   2   3
ENDBRANCH   1   2
BRANCH   1  12
ATOM     12  C   UNL d   1      57.768  -0.299  30.712  0.00  0.00     0.107 A 
ATOM     13  C   UNL d   1      58.425   0.147  30.531  0.00  0.00     0.101 A 
ATOM     14  N   UNL d   1      58.884  -0.227  29.962  0.00  0.00    -0.289 N 
ATOM     15  C   UNL d   1      58.500  -0.938  29.778  0.00  0.00     0.148 A 
ATOM     16  C   UNL d   1      59.600  -0.036  29.574  0.00  0.00     0.066 A 
ATOM     17  N   UNL d   1      57.807  -0.991  30.239  0.00  0.00    -0.226 NA
ATOM     18  C   UNL d   1      58.822  -1.450  29.218  0.00  0.00     0.037 A 
ATOM     19  C   UNL d   1      59.537  -1.253  28.835  0.00  0.00     0.005 A 
ATOM     20  C   UNL d   1      59.922  -0.542  29.018  0.00  0.00     0.018 A 
ATOM     21  C   UNL d   1      59.985   0.681  29.761  0.00  0.00     0.019 C 
ENDBRANCH   1  12
TORSDOF 3
ENDMDL
MODEL 4
REMARK VINA RESULT:      -3.0      9.907     10.140
REMARK  3 active torsions:
REMARK  status: ('A' for Active; 'I' for Inactive)
REMARK    1  A    between atoms: C_4  and  S_13 
REMARK    2  A    between atoms: C_16  and  C_6 
REMARK    3  A    between atoms: S_13  and  C_16 
ROOT
ATOM      1  C   UNL d   1      58.532  -9.340  33.104  0.00  0.00     0.059 C 
ENDROOT
BRANCH   1   2
ATOM      2  S   UNL d   1      58.720  -9.818  32.477  0.00  0.00    -0.046 SA
BRANCH   2   3
ATOM      3  C   UNL d   1      58.236  -9.810  31.810  0.00  0.00     0.194 A 
ATOM      4  N   UNL d   1      57.419  -9.818  31.704  0.00  0.00    -0.220 NA
ATOM      5  C   UNL d   1      57.264  -9.802  30.901  0.00  0.00     0.101 A 
ATOM      6  C   UNL d   1      56.560  -9.802  30.486  0.00  0.00     0.021 A 
ATOM      7  C   UNL d   1      57.962  -9.784  30.515  0.00  0.00     0.101 A 
ATOM      8  C   UNL d   1      56.548  -9.784  29.673  0.00  0.00     0.002 A 
ATOM      9  C   UNL d   1      57.266  -9.765  29.247  0.00  0.00     0.002 A 
ATOM     10  C   UNL d   1      57.991  -9.766  29.683  0.00  0.00     0.021 A 
ATOM     11  N   UNL d   1      58.596  -9.788  31.058  0.00  0.00    -0.220 NA
ENDBRANCH   2   3
ENDBRANCH   1   2
BRANCH   1  12
ATOM     12  C   UNL d   1      59.061  -9.256  33.719  0.00  0.00     0.107 A 
ATOM     13  C   UNL d   1      58.922  -9.403  34.507  0.00  0.00     0.101 A 
ATOM     14  N   UNL d   1      59.593  -9.253  34.956  0.00  0.00    -0.289 N 
ATOM     15  C   UNL d   1      60.180  -9.002  34.426  0.00  0.00     0.148 A 
ATOM     16  C   UNL d   1      59.773  -9.303  35.771  0.00  0.00     0.066 A 
ATOM     17  N   UNL d   1      59.859  -9.001  33.657  0.00  0.00    -0.226 NA
ATOM     18  C   UNL d   1      60.931  -8.805  34.702  0.00  0.00     0.037 A 
ATOM     19  C   UNL d   1      61.102  -8.858  35.519  0.00  0.00     0.005 A 
ATOM     20  C   UNL d   1      60.517  -9.109  36.048  0.00  0.00     0.018 A 
ATOM     21  C   UNL d   1      59.179  -9.556  36.302  0.00  0.00     0.019 C 
ENDBRANCH   1  12
TORSDOF 3
ENDMDL
