MODEL 1
REMARK VINA RESULT:      -7.4      0.000      0.000
REMARK  4 active torsions:
REMARK  status: ('A' for Active; 'I' for Inactive)
REMARK    1  A    between atoms: C_2  and  C_1 
REMARK    2  A    between atoms: N_12  and  C_6 
REMARK    3  A    between atoms: C_16  and  N_12 
REMARK    4  A    between atoms: O_25  and  C_17 
ROOT
ATOM      1  C   UNL d   1     -46.062  13.032  22.574  0.00  0.00     0.082 A 
ATOM      2  C   UNL d   1     -45.919  12.444  23.134  0.00  0.00     0.302 A 
ATOM      3  C   UNL d   1     -45.482  13.219  22.018  0.00  0.00     0.009 A 
ATOM      4  O   UNL d   1     -45.194  12.040  23.142  0.00  0.00    -0.273 OA
ATOM      5  C   UNL d   1     -44.756  12.821  22.019  0.00  0.00     0.025 A 
ATOM      6  C   UNL d   1     -44.619  12.229  22.587  0.00  0.00     0.103 A 
ATOM      7  O   UNL d   1     -46.501  12.251  23.697  0.00  0.00    -0.259 OA
ATOM      8  C   UNL d   1     -44.180  13.012  21.460  0.00  0.00     0.026 A 
ATOM      9  C   UNL d   1     -43.893  11.835  22.583  0.00  0.00     0.027 A 
ATOM     10  C   UNL d   1     -43.461  12.611  21.468  0.00  0.00     0.094 A 
ATOM     11  C   UNL d   1     -43.316  12.018  22.033  0.00  0.00     0.026 A 
ENDROOT
BRANCH   1  12
ATOM     12  C   UNL d   1     -46.788  13.430  22.573  0.00  0.00     0.095 A 
ATOM     13  N   UNL d   1     -47.483  13.175  22.208  0.00  0.00    -0.221 NA
ATOM     14  C   UNL d   1     -48.063  13.745  22.351  0.00  0.00     0.194 A 
ATOM     15  S   UNL d   1     -47.730  14.353  22.804  0.00  0.00    -0.046 SA
ATOM     16  C   UNL d   1     -46.935  14.157  22.942  0.00  0.00     0.058 A 
BRANCH  14  17
ATOM     17  N   UNL d   1     -48.847  13.712  22.085  0.00  0.00    -0.221 NA
BRANCH  17  18
ATOM     18  C   UNL d   1     -49.403  13.255  22.488  0.00  0.00     0.084 A 
ATOM     19  C   UNL d   1     -49.771  13.564  23.155  0.00  0.00     0.020 A 
ATOM     20  C   UNL d   1     -50.331  13.100  23.560  0.00  0.00     0.013 A 
ATOM     21  C   UNL d   1     -50.512  12.338  23.291  0.00  0.00     0.058 A 
ATOM     22  C   UNL d   1     -50.132  12.046  22.620  0.00  0.00     0.013 A 
ATOM     23 CL   UNL d   1     -51.064  11.877  23.688  0.00  0.00    -0.082 Cl
ATOM     24  C   UNL d   1     -49.579  12.499  22.217  0.00  0.00     0.020 A 
ENDBRANCH  17  18
ENDBRANCH  14  17
ENDBRANCH   1  12
BRANCH  10  25
ATOM     25  O   UNL d   1     -42.881  12.799  20.912  0.00  0.00    -0.328 OA
ATOM     26  C   UNL d   1     -42.209  13.221  21.134  0.00  0.00     0.181 C 
ENDBRANCH  10  25
TORSDOF 4
ENDMDL
MODEL 2
REMARK VINA RESULT:      -6.8      2.472      5.405
REMARK  4 active torsions:
REMARK  status: ('A' for Active; 'I' for Inactive)
REMARK    1  A    between atoms: C_2  and  C_1 
REMARK    2  A    between atoms: N_12  and  C_6 
REMARK    3  A    between atoms: C_16  and  N_12 
REMARK    4  A    between atoms: O_25  and  C_17 
ROOT
ATOM      1  C   UNL d   1     -48.724  12.754  22.624  0.00  0.00     0.082 A 
ATOM      2  C   UNL d   1     -49.054  12.359  21.980  0.00  0.00     0.302 A 
ATOM      3  C   UNL d   1     -49.061  13.459  22.890  0.00  0.00     0.009 A 
ATOM      4  O   UNL d   1     -49.724  12.666  21.597  0.00  0.00    -0.273 OA
ATOM      5  C   UNL d   1     -49.729  13.772  22.514  0.00  0.00     0.025 A 
ATOM      6  C   UNL d   1     -50.057  13.368  21.865  0.00  0.00     0.103 A 
ATOM      7  O   UNL d   1     -48.719  11.647  21.707  0.00  0.00    -0.259 OA
ATOM      8  C   UNL d   1     -50.061  14.477  22.785  0.00  0.00     0.026 A 
ATOM      9  C   UNL d   1     -50.722  13.686  21.494  0.00  0.00     0.027 A 
ATOM     10  C   UNL d   1     -50.725  14.782  22.406  0.00  0.00     0.094 A 
ATOM     11  C   UNL d   1     -51.058  14.384  21.756  0.00  0.00     0.026 A 
ENDROOT
BRANCH   1  12
ATOM     12  C   UNL d   1     -48.056  12.440  23.000  0.00  0.00     0.095 A 
ATOM     13  N   UNL d   1     -47.311  12.791  23.039  0.00  0.00    -0.221 NA
ATOM     14  C   UNL d   1     -46.819  12.284  23.466  0.00  0.00     0.194 A 
ATOM     15  S   UNL d   1     -47.258  11.618  23.691  0.00  0.00    -0.046 SA
ATOM     16  C   UNL d   1     -48.030  11.716  23.400  0.00  0.00     0.058 A 
BRANCH  14  17
ATOM     17  N   UNL d   1     -46.020  12.418  23.639  0.00  0.00    -0.221 NA
BRANCH  17  18
ATOM     18  C   UNL d   1     -45.480  12.549  23.029  0.00  0.00     0.084 A 
ATOM     19  C   UNL d   1     -45.493  13.267  22.627  0.00  0.00     0.020 A 
ATOM     20  C   UNL d   1     -44.947  13.396  22.012  0.00  0.00     0.013 A 
ATOM     21  C   UNL d   1     -44.400  12.808  21.811  0.00  0.00     0.058 A 
ATOM     22  C   UNL d   1     -44.403  12.095  22.227  0.00  0.00     0.013 A 
ATOM     23 CL   UNL d   1     -43.859  12.931  21.205  0.00  0.00    -0.082 Cl
ATOM     24  C   UNL d   1     -44.939  11.962  22.834  0.00  0.00     0.020 A 
ENDBRANCH  17  18
ENDBRANCH  14  17
ENDBRANCH   1  12
BRANCH  10  25
ATOM     25  O   UNL d   1     -51.061  15.487  22.672  0.00  0.00    -0.328 OA
ATOM     26  C   UNL d   1     -51.064  15.671  23.476  0.00  0.00     0.181 C 
ENDBRANCH  10  25
TORSDOF 4
ENDMDL
MODEL 3
REMARK VINA RESULT:      -6.4      1.033      1.827
REMARK  4 active torsions:
REMARK  status: ('A' for Active; 'I' for Inactive)
REMARK    1  A    between atoms: C_2  and  C_1 
REMARK    2  A    between atoms: N_12  and  C_6 
REMARK    3  A    between atoms: C_16  and  N_12 
REMARK    4  A    between atoms: O_25  and  C_17 
ROOT
ATOM      1  C   UNL d   1     -46.174  13.066  22.629  0.00  0.00     0.082 A 
ATOM      2  C   UNL d   1     -45.500  13.365  22.261  0.00  0.00     0.302 A 
ATOM      3  C   UNL d   1     -46.150  12.322  22.987  0.00  0.00     0.009 A 
ATOM      4  O   UNL d   1     -44.797  12.924  22.249  0.00  0.00    -0.273 OA
ATOM      5  C   UNL d   1     -45.453  11.875  22.980  0.00  0.00     0.025 A 
ATOM      6  C   UNL d   1     -44.777  12.184  22.606  0.00  0.00     0.103 A 
ATOM      7  O   UNL d   1     -45.517  14.114  21.898  0.00  0.00    -0.259 OA
ATOM      8  C   UNL d   1     -45.436  11.134  23.340  0.00  0.00     0.026 A 
ATOM      9  C   UNL d   1     -44.085  11.734  22.602  0.00  0.00     0.027 A 
ATOM     10  C   UNL d   1     -44.738  10.695  23.328  0.00  0.00     0.094 A 
ATOM     11  C   UNL d   1     -44.058  10.997  22.956  0.00  0.00     0.026 A 
ENDROOT
BRANCH   1  12
ATOM     12  C   UNL d   1     -46.871  13.513  22.637  0.00  0.00     0.095 A 
ATOM     13  N   UNL d   1     -47.606  13.272  22.351  0.00  0.00    -0.221 NA
ATOM     14  C   UNL d   1     -48.136  13.892  22.472  0.00  0.00     0.194 A 
ATOM     15  S   UNL d   1     -47.731  14.519  22.833  0.00  0.00    -0.046 SA
ATOM     16  C   UNL d   1     -46.942  14.281  22.935  0.00  0.00     0.058 A 
BRANCH  14  17
ATOM     17  N   UNL d   1     -48.939  13.889  22.268  0.00  0.00    -0.221 NA
BRANCH  17  18
ATOM     18  C   UNL d   1     -49.454  13.349  22.619  0.00  0.00     0.084 A 
ATOM     19  C   UNL d   1     -49.625  12.644  22.231  0.00  0.00     0.020 A 
ATOM     20  C   UNL d   1     -50.144  12.101  22.588  0.00  0.00     0.013 A 
ATOM     21  C   UNL d   1     -50.483  12.271  23.324  0.00  0.00     0.058 A 
ATOM     22  C   UNL d   1     -50.300  12.984  23.697  0.00  0.00     0.013 A 
ATOM     23 CL   UNL d   1     -50.997  11.739  23.680  0.00  0.00    -0.082 Cl
ATOM     24  C   UNL d   1     -49.788  13.523  23.349  0.00  0.00     0.020 A 
ENDBRANCH  17  18
ENDBRANCH  14  17
ENDBRANCH   1  12
BRANCH  10  25
ATOM     25  O   UNL d   1     -44.715   9.953  23.686  0.00  0.00    -0.328 OA
ATOM     26  C   UNL d   1     -44.023   9.506  23.680  0.00  0.00     0.181 C 
ENDBRANCH  10  25
TORSDOF 4
ENDMDL
MODEL 4
REMARK VINA RESULT:      -6.0      7.755     10.060
REMARK  4 active torsions:
REMARK  status: ('A' for Active; 'I' for Inactive)
REMARK    1  A    between atoms: C_2  and  C_1 
REMARK    2  A    between atoms: N_12  and  C_6 
REMARK    3  A    between atoms: C_16  and  N_12 
REMARK    4  A    between atoms: O_25  and  C_17 
ROOT
ATOM      1  C   UNL d   1     -39.911  14.907  18.422  0.00  0.00     0.082 A 
ATOM      2  C   UNL d   1     -40.544  14.380  18.427  0.00  0.00     0.302 A 
ATOM      3  C   UNL d   1     -39.646  15.239  19.130  0.00  0.00     0.009 A 
ATOM      4  O   UNL d   1     -40.918  14.181  19.141  0.00  0.00    -0.273 OA
ATOM      5  C   UNL d   1     -40.013  15.046  19.846  0.00  0.00     0.025 A 
ATOM      6  C   UNL d   1     -40.652  14.513  19.844  0.00  0.00     0.103 A 
ATOM      7  O   UNL d   1     -40.816  14.043  17.716  0.00  0.00    -0.259 OA
ATOM      8  C   UNL d   1     -39.744  15.380  20.550  0.00  0.00     0.026 A 
ATOM      9  C   UNL d   1     -41.014  14.324  20.561  0.00  0.00     0.027 A 
ATOM     10  C   UNL d   1     -40.115  15.183  21.259  0.00  0.00     0.094 A 
ATOM     11  C   UNL d   1     -40.755  14.651  21.265  0.00  0.00     0.026 A 
ENDROOT
BRANCH   1  12
ATOM     12  C   UNL d   1     -39.544  15.101  17.705  0.00  0.00     0.095 A 
ATOM     13  N   UNL d   1     -38.784  14.879  17.472  0.00  0.00    -0.221 NA
ATOM     14  C   UNL d   1     -38.651  15.194  16.721  0.00  0.00     0.194 A 
ATOM     15  S   UNL d   1     -39.328  15.612  16.487  0.00  0.00    -0.046 SA
ATOM     16  C   UNL d   1     -39.884  15.553  17.101  0.00  0.00     0.058 A 
BRANCH  14  17
ATOM     17  N   UNL d   1     -37.958  15.107  16.276  0.00  0.00    -0.221 NA
BRANCH  17  18
ATOM     18  C   UNL d   1     -37.956  14.633  15.600  0.00  0.00     0.084 A 
ATOM     19  C   UNL d   1     -37.968  14.989  14.859  0.00  0.00     0.020 A 
ATOM     20  C   UNL d   1     -37.966  14.509  14.179  0.00  0.00     0.013 A 
ATOM     21  C   UNL d   1     -37.952  13.685  14.253  0.00  0.00     0.058 A 
ATOM     22  C   UNL d   1     -37.940  13.346  15.006  0.00  0.00     0.013 A 
ATOM     23 CL   UNL d   1     -37.950  13.207  13.585  0.00  0.00    -0.082 Cl
ATOM     24  C   UNL d   1     -37.941  13.815  15.679  0.00  0.00     0.020 A 
ENDBRANCH  17  18
ENDBRANCH  14  17
ENDBRANCH   1  12
BRANCH  10  25
ATOM     25  O   UNL d   1     -39.850  15.514  21.966  0.00  0.00    -0.328 OA
ATOM     26  C   UNL d   1     -39.464  15.050  22.527  0.00  0.00     0.181 C 
ENDBRANCH  10  25
TORSDOF 4
ENDMDL
MODEL 5
REMARK VINA RESULT:      -5.7      7.914      9.414
REMARK  4 active torsions:
REMARK  status: ('A' for Active; 'I' for Inactive)
REMARK    1  A    between atoms: C_2  and  C_1 
REMARK    2  A    between atoms: N_12  and  C_6 
REMARK    3  A    between atoms: C_16  and  N_12 
REMARK    4  A    between atoms: O_25  and  C_17 
ROOT
ATOM      1  C   UNL d   1     -39.270  14.330  18.040  0.00  0.00     0.082 A 
ATOM      2  C   UNL d   1     -39.073  13.560  17.826  0.00  0.00     0.302 A 
ATOM      3  C   UNL d   1     -39.091  14.957  17.534  0.00  0.00     0.009 A 
ATOM      4  O   UNL d   1     -38.694  13.409  17.103  0.00  0.00    -0.273 OA
ATOM      5  C   UNL d   1     -38.713  14.815  16.810  0.00  0.00     0.025 A 
ATOM      6  C   UNL d   1     -38.516  14.034  16.601  0.00  0.00     0.103 A 
ATOM      7  O   UNL d   1     -39.252  12.924  18.333  0.00  0.00    -0.259 OA
ATOM      8  C   UNL d   1     -38.536  15.445  16.308  0.00  0.00     0.026 A 
ATOM      9  C   UNL d   1     -38.140  13.900  15.879  0.00  0.00     0.027 A 
ATOM     10  C   UNL d   1     -38.159  15.296  15.591  0.00  0.00     0.094 A 
ATOM     11  C   UNL d   1     -37.960  14.518  15.374  0.00  0.00     0.026 A 
ENDROOT
BRANCH   1  12
ATOM     12  C   UNL d   1     -39.648  14.472  18.764  0.00  0.00     0.095 A 
ATOM     13  N   UNL d   1     -39.295  14.770  19.447  0.00  0.00    -0.221 NA
ATOM     14  C   UNL d   1     -39.879  14.819  20.028  0.00  0.00     0.194 A 
ATOM     15  S   UNL d   1     -40.595  14.552  19.707  0.00  0.00    -0.046 SA
ATOM     16  C   UNL d   1     -40.450  14.336  18.918  0.00  0.00     0.058 A 
BRANCH  14  17
ATOM     17  N   UNL d   1     -39.767  15.090  20.803  0.00  0.00    -0.221 NA
BRANCH  17  18
ATOM     18  C   UNL d   1     -39.327  14.643  21.339  0.00  0.00     0.084 A 
ATOM     19  C   UNL d   1     -38.525  14.801  21.433  0.00  0.00     0.020 A 
ATOM     20  C   UNL d   1     -38.084  14.349  21.974  0.00  0.00     0.013 A 
ATOM     21  C   UNL d   1     -38.450  13.749  22.410  0.00  0.00     0.058 A 
ATOM     22  C   UNL d   1     -39.256  13.605  22.303  0.00  0.00     0.013 A 
ATOM     23 CL   UNL d   1     -38.019  13.299  22.946  0.00  0.00    -0.082 Cl
ATOM     24  C   UNL d   1     -39.696  14.049  21.770  0.00  0.00     0.020 A 
ENDBRANCH  17  18
ENDBRANCH  14  17
ENDBRANCH   1  12
BRANCH  10  25
ATOM     25  O   UNL d   1     -37.980  15.922  15.085  0.00  0.00    -0.328 OA
ATOM     26  C   UNL d   1     -37.959  15.808  14.269  0.00  0.00     0.181 C 
ENDBRANCH  10  25
TORSDOF 4
ENDMDL
MODEL 6
REMARK VINA RESULT:      -5.2      2.452      5.202
REMARK  4 active torsions:
REMARK  status: ('A' for Active; 'I' for Inactive)
REMARK    1  A    between atoms: C_2  and  C_1 
REMARK    2  A    between atoms: N_12  and  C_6 
REMARK    3  A    between atoms: C_16  and  N_12 
REMARK    4  A    between atoms: O_25  and  C_17 
ROOT
ATOM      1  C   UNL d   1     -47.793  13.170  22.427  0.00  0.00     0.082 A 
ATOM      2  C   UNL d   1     -48.348  12.626  22.153  0.00  0.00     0.302 A 
ATOM      3  C   UNL d   1     -48.039  13.920  22.669  0.00  0.00     0.009 A 
ATOM      4  O   UNL d   1     -49.153  12.826  22.120  0.00  0.00    -0.273 OA
ATOM      5  C   UNL d   1     -48.840  14.129  22.639  0.00  0.00     0.025 A 
ATOM      6  C   UNL d   1     -49.394  13.574  22.362  0.00  0.00     0.103 A 
ATOM      7  O   UNL d   1     -48.106  11.868  21.908  0.00  0.00    -0.259 OA
ATOM      8  C   UNL d   1     -49.079  14.880  22.883  0.00  0.00     0.026 A 
ATOM      9  C   UNL d   1     -50.191  13.787  22.335  0.00  0.00     0.027 A 
ATOM     10  C   UNL d   1     -49.878  15.080  22.850  0.00  0.00     0.094 A 
ATOM     11  C   UNL d   1     -50.437  14.529  22.574  0.00  0.00     0.026 A 
ENDROOT
BRANCH   1  12
ATOM     12  C   UNL d   1     -46.992  12.962  22.457  0.00  0.00     0.095 A 
ATOM     13  N   UNL d   1     -46.577  12.722  23.128  0.00  0.00    -0.221 NA
ATOM     14  C   UNL d   1     -45.799  12.571  22.899  0.00  0.00     0.194 A 
ATOM     15  S   UNL d   1     -45.730  12.717  22.085  0.00  0.00    -0.046 SA
ATOM     16  C   UNL d   1     -46.475  12.961  21.811  0.00  0.00     0.058 A 
BRANCH  14  17
ATOM     17  N   UNL d   1     -45.188  12.316  23.398  0.00  0.00    -0.221 NA
BRANCH  17  18
ATOM     18  C   UNL d   1     -44.958  11.524  23.399  0.00  0.00     0.084 A 
ATOM     19  C   UNL d   1     -45.472  10.955  23.698  0.00  0.00     0.020 A 
ATOM     20  C   UNL d   1     -45.236  10.157  23.698  0.00  0.00     0.013 A 
ATOM     21  C   UNL d   1     -44.494   9.943  23.401  0.00  0.00     0.058 A 
ATOM     22  C   UNL d   1     -43.992  10.528  23.106  0.00  0.00     0.013 A 
ATOM     23 CL   UNL d   1     -44.257   9.156  23.399  0.00  0.00    -0.082 Cl
ATOM     24  C   UNL d   1     -44.220  11.316  23.104  0.00  0.00     0.020 A 
ENDBRANCH  17  18
ENDBRANCH  14  17
ENDBRANCH   1  12
BRANCH  10  25
ATOM     25  O   UNL d   1     -50.122  15.829  23.092  0.00  0.00    -0.328 OA
ATOM     26  C   UNL d   1     -50.783  15.917  23.576  0.00  0.00     0.181 C 
ENDBRANCH  10  25
TORSDOF 4
ENDMDL
MODEL 7
REMARK VINA RESULT:      -4.5      8.256      9.112
REMARK  4 active torsions:
REMARK  status: ('A' for Active; 'I' for Inactive)
REMARK    1  A    between atoms: C_2  and  C_1 
REMARK    2  A    between atoms: N_12  and  C_6 
REMARK    3  A    between atoms: C_16  and  N_12 
REMARK    4  A    between atoms: O_25  and  C_17 
ROOT
ATOM      1  C   UNL d   1     -39.169  15.000  18.928  0.00  0.00     0.082 A 
ATOM      2  C   UNL d   1     -38.969  14.258  18.630  0.00  0.00     0.302 A 
ATOM      3  C   UNL d   1     -39.698  15.480  18.514  0.00  0.00     0.009 A 
ATOM      4  O   UNL d   1     -39.296  13.991  17.916  0.00  0.00    -0.273 OA
ATOM      5  C   UNL d   1     -40.029  15.221  17.801  0.00  0.00     0.025 A 
ATOM      6  C   UNL d   1     -39.822  14.471  17.506  0.00  0.00     0.103 A 
ATOM      7  O   UNL d   1     -38.436  13.770  19.043  0.00  0.00    -0.259 OA
ATOM      8  C   UNL d   1     -40.557  15.705  17.392  0.00  0.00     0.026 A 
ATOM      9  C   UNL d   1     -40.155  14.218  16.794  0.00  0.00     0.027 A 
ATOM     10  C   UNL d   1     -40.882  15.440  16.683  0.00  0.00     0.094 A 
ATOM     11  C   UNL d   1     -40.679  14.691  16.382  0.00  0.00     0.026 A 
ENDROOT
BRANCH   1  12
ATOM     12  C   UNL d   1     -38.838  15.259  19.642  0.00  0.00     0.095 A 
ATOM     13  N   UNL d   1     -39.194  15.221  20.385  0.00  0.00    -0.221 NA
ATOM     14  C   UNL d   1     -38.665  15.541  20.932  0.00  0.00     0.194 A 
ATOM     15  S   UNL d   1     -37.980  15.778  20.529  0.00  0.00    -0.046 SA
ATOM     16  C   UNL d   1     -38.089  15.602  19.724  0.00  0.00     0.058 A 
BRANCH  14  17
ATOM     17  N   UNL d   1     -38.796  15.613  21.747  0.00  0.00    -0.221 NA
BRANCH  17  18
ATOM     18  C   UNL d   1     -38.749  14.949  22.234  0.00  0.00     0.084 A 
ATOM     19  C   UNL d   1     -39.319  14.360  22.169  0.00  0.00     0.020 A 
ATOM     20  C   UNL d   1     -39.269  13.691  22.662  0.00  0.00     0.013 A 
ATOM     21  C   UNL d   1     -38.652  13.623  23.209  0.00  0.00     0.058 A 
ATOM     22  C   UNL d   1     -38.089  14.226  23.260  0.00  0.00     0.013 A 
ATOM     23 CL   UNL d   1     -38.598  12.966  23.698  0.00  0.00    -0.082 Cl
ATOM     24  C   UNL d   1     -38.134  14.887  22.776  0.00  0.00     0.020 A 
ENDBRANCH  17  18
ENDBRANCH  14  17
ENDBRANCH   1  12
BRANCH  10  25
ATOM     25  O   UNL d   1     -41.410  15.920  16.270  0.00  0.00    -0.328 OA
ATOM     26  C   UNL d   1     -42.214  15.738  16.251  0.00  0.00     0.181 C 
ENDBRANCH  10  25
TORSDOF 4
ENDMDL
