MODEL 1
REMARK VINA RESULT:      -5.3      0.000      0.000
REMARK  3 active torsions:
REMARK  status: ('A' for Active; 'I' for Inactive)
REMARK    1  A    between atoms: N_2  and  S_1 
REMARK    2  A    between atoms: C_3  and  S_1 
REMARK    3  A    between atoms: C_5  and  N_4 
ROOT
ATOM      1  N   UNL d   1     -41.706-123.112 -50.832  0.00  0.00    -0.226 N 
ATOM      2  N   UNL d   1     -41.605-122.860 -52.449  0.00  0.00    -0.286 N 
ATOM      3  C   UNL d   1     -41.497-123.729 -51.331  0.00  0.00     0.111 A 
ATOM      4  C   UNL d   1     -41.864-122.369 -51.140  0.00  0.00     0.111 A 
ATOM      5  C   UNL d   1     -41.813-122.243 -51.949  0.00  0.00     0.101 A 
ATOM      6  C   UNL d   1     -41.446-123.604 -52.141  0.00  0.00     0.101 A 
ENDROOT
BRANCH   1   7
ATOM      7  S   UNL d   1     -41.759-123.236 -50.006  0.00  0.00     0.277 S 
ATOM      8  O   UNL d   1     -41.129-122.706 -49.883  0.00  0.00    -0.199 OA
ATOM      9  O   UNL d   1     -42.393-123.770 -50.127  0.00  0.00    -0.199 OA
BRANCH   7  10
ATOM     10  C   UNL d   1     -41.813-123.361 -49.180  0.00  0.00     0.133 A 
ATOM     11  S   UNL d   1     -41.175-123.443 -48.658  0.00  0.00    -0.074 SA
ATOM     12  C   UNL d   1     -41.489-123.557 -47.890  0.00  0.00     0.036 A 
ATOM     13  C   UNL d   1     -42.319-123.545 -47.949  0.00  0.00     0.008 A 
ATOM     14  C   UNL d   1     -42.524-123.424 -48.743  0.00  0.00     0.020 A 
ENDBRANCH   7  10
ENDBRANCH   1   7
BRANCH   2  15
ATOM     15  C   UNL d   1     -41.551-122.744 -53.260  0.00  0.00     0.148 A 
ATOM     16  N   UNL d   1     -41.881-122.070 -53.590  0.00  0.00    -0.227 NA
ATOM     17  C   UNL d   1     -41.832-121.946 -54.398  0.00  0.00     0.101 A 
ATOM     18  C   UNL d   1     -41.453-122.498 -54.880  0.00  0.00     0.021 A 
ATOM     19  C   UNL d   1     -41.123-123.174 -54.541  0.00  0.00     0.005 A 
ATOM     20  C   UNL d   1     -41.171-123.298 -53.732  0.00  0.00     0.037 A 
ENDBRANCH   2  15
TORSDOF 3
ENDMDL
MODEL 2
REMARK VINA RESULT:      -4.6      1.568      4.497
REMARK  3 active torsions:
REMARK  status: ('A' for Active; 'I' for Inactive)
REMARK    1  A    between atoms: N_2  and  S_1 
REMARK    2  A    between atoms: C_3  and  S_1 
REMARK    3  A    between atoms: C_5  and  N_4 
ROOT
ATOM      1  N   UNL d   1     -41.580-122.911 -51.988  0.00  0.00    -0.226 N 
ATOM      2  N   UNL d   1     -41.729-123.015 -50.358  0.00  0.00    -0.286 N 
ATOM      3  C   UNL d   1     -41.450-123.627 -51.608  0.00  0.00     0.111 A 
ATOM      4  C   UNL d   1     -41.786-122.246 -51.553  0.00  0.00     0.111 A 
ATOM      5  C   UNL d   1     -41.860-122.299 -50.737  0.00  0.00     0.101 A 
ATOM      6  C   UNL d   1     -41.524-123.679 -50.793  0.00  0.00     0.101 A 
ENDROOT
BRANCH   1   7
ATOM      7  S   UNL d   1     -41.506-122.853 -52.819  0.00  0.00     0.277 S 
ATOM      8  O   UNL d   1     -41.365-122.035 -52.752  0.00  0.00    -0.199 OA
ATOM      9  O   UNL d   1     -41.647-123.675 -52.888  0.00  0.00    -0.199 OA
BRANCH   7  10
ATOM     10  C   UNL d   1     -41.431-122.796 -53.651  0.00  0.00     0.133 A 
ATOM     11  S   UNL d   1     -41.128-123.381 -54.154  0.00  0.00    -0.074 SA
ATOM     12  C   UNL d   1     -41.160-123.084 -54.936  0.00  0.00     0.036 A 
ATOM     13  C   UNL d   1     -41.482-122.317 -54.905  0.00  0.00     0.008 A 
ATOM     14  C   UNL d   1     -41.651-122.135 -54.115  0.00  0.00     0.020 A 
ENDBRANCH   7  10
ENDBRANCH   1   7
BRANCH   2  15
ATOM     15  C   UNL d   1     -41.801-123.077 -49.543  0.00  0.00     0.148 A 
ATOM     16  N   UNL d   1     -41.122-123.119 -49.084  0.00  0.00    -0.227 NA
ATOM     17  C   UNL d   1     -41.185-123.182 -48.269  0.00  0.00     0.101 A 
ATOM     18  C   UNL d   1     -41.928-123.202 -47.911  0.00  0.00     0.021 A 
ATOM     19  C   UNL d   1     -42.606-123.160 -48.379  0.00  0.00     0.005 A 
ATOM     20  C   UNL d   1     -42.544-123.097 -49.194  0.00  0.00     0.037 A 
ENDBRANCH   2  15
TORSDOF 3
ENDMDL
