MODEL 1
REMARK VINA RESULT:      65.9      0.000      0.000
REMARK  4 active torsions:
REMARK  status: ('A' for Active; 'I' for Inactive)
REMARK    1  A    between atoms: N_5  and  C_1 
REMARK    2  A    between atoms: S_2  and  N_5 
REMARK    3  A    between atoms: C_7  and  S_2 
REMARK    4  A    between atoms: N_10  and  C_3 
ROOT
ATOM      1  C   UNL d   1     -57.708 -98.986 -44.437  0.00  0.00     0.146 A 
ATOM      2  C   UNL d   1     -58.389 -98.913 -43.977  0.00  0.00     0.105 A 
ATOM      3  C   UNL d   1     -59.120 -98.842 -44.349  0.00  0.00     0.208 A 
ATOM      4  C   UNL d   1     -57.753 -98.987 -45.262  0.00  0.00     0.215 A 
ATOM      5  C   UNL d   1     -59.173 -98.843 -45.165  0.00  0.00     0.043 A 
ATOM      6  C   UNL d   1     -58.492 -98.915 -45.625  0.00  0.00     0.044 A 
ATOM      7  O   UNL d   1     -59.801 -98.770 -43.890  0.00  0.00    -0.285 OA
ATOM      8  O   UNL d   1     -57.063 -99.061 -45.708  0.00  0.00    -0.285 OA
ATOM      9  C   UNL d   1     -59.903 -98.772 -45.538  0.00  0.00     0.003 A 
ATOM     10  C   UNL d   1     -58.545 -98.916 -46.440  0.00  0.00     0.003 A 
ATOM     11  C   UNL d   1     -59.952 -98.773 -46.361  0.00  0.00     0.000 A 
ATOM     12  C   UNL d   1     -59.275 -98.845 -46.813  0.00  0.00     0.000 A 
ENDROOT
BRANCH   1  13
ATOM     13  N   UNL d   1     -56.967 -99.058 -44.071  0.00  0.00    -0.154 NA
BRANCH  13  14
ATOM     14  S   UNL d   1     -56.335 -99.410 -44.469  0.00  0.00     0.291 S 
ATOM     15  O   UNL d   1     -56.795 -99.462 -45.152  0.00  0.00    -0.198 OA
ATOM     16  O   UNL d   1     -55.706 -99.762 -44.870  0.00  0.00    -0.198 OA
BRANCH  14  17
ATOM     17  C   UNL d   1     -55.879 -99.356 -43.783  0.00  0.00     0.135 A 
ATOM     18  S   UNL d   1     -55.452 -98.756 -43.418  0.00  0.00    -0.073 SA
ATOM     19  C   UNL d   1     -55.112 -99.069 -42.731  0.00  0.00     0.036 A 
ATOM     20  C   UNL d   1     -55.330 -99.859 -42.674  0.00  0.00     0.008 A 
ATOM     21  C   UNL d   1     -55.807-100.042 -43.326  0.00  0.00     0.020 A 
ENDBRANCH  14  17
ENDBRANCH  13  14
ENDBRANCH   1  13
BRANCH   2  22
ATOM     22  N   UNL d   1     -58.331 -98.913 -43.155  0.00  0.00    -0.201 NA
ATOM     23  C   UNL d   1     -58.796 -98.926 -42.691  0.00  0.00     0.082 A 
ATOM     24  C   UNL d   1     -58.745 -98.926 -41.665  0.00  0.00     0.136 A 
ATOM     25  O   UNL d   1     -59.628 -98.950 -41.548  0.00  0.00    -0.301 OA
ATOM     26  C   UNL d   1     -59.119 -98.936 -41.986  0.00  0.00     0.136 A 
ATOM     27  C   UNL d   1     -59.143 -98.935 -43.088  0.00  0.00     0.082 A 
ENDBRANCH   2  22
TORSDOF 4
ENDMDL
MODEL 2
REMARK VINA RESULT:      68.9      1.252      2.882
REMARK  4 active torsions:
REMARK  status: ('A' for Active; 'I' for Inactive)
REMARK    1  A    between atoms: N_5  and  C_1 
REMARK    2  A    between atoms: S_2  and  N_5 
REMARK    3  A    between atoms: C_7  and  S_2 
REMARK    4  A    between atoms: N_10  and  C_3 
ROOT
ATOM      1  C   UNL d   1     -57.779 -99.271 -44.317  0.00  0.00     0.146 A 
ATOM      2  C   UNL d   1     -58.453 -99.132 -44.771  0.00  0.00     0.105 A 
ATOM      3  C   UNL d   1     -59.166 -98.968 -44.395  0.00  0.00     0.208 A 
ATOM      4  C   UNL d   1     -57.814 -99.248 -43.491  0.00  0.00     0.215 A 
ATOM      5  C   UNL d   1     -59.209 -98.943 -43.578  0.00  0.00     0.043 A 
ATOM      6  C   UNL d   1     -58.535 -99.082 -43.124  0.00  0.00     0.044 A 
ATOM      7  O   UNL d   1     -59.840 -98.829 -44.849  0.00  0.00    -0.285 OA
ATOM      8  O   UNL d   1     -57.132 -99.389 -43.049  0.00  0.00    -0.285 OA
ATOM      9  C   UNL d   1     -59.922 -98.779 -43.201  0.00  0.00     0.003 A 
ATOM     10  C   UNL d   1     -58.578 -99.057 -42.308  0.00  0.00     0.003 A 
ATOM     11  C   UNL d   1     -59.960 -98.755 -42.377  0.00  0.00     0.000 A 
ATOM     12  C   UNL d   1     -59.291 -98.894 -41.930  0.00  0.00     0.000 A 
ENDROOT
BRANCH   1  13
ATOM     13  N   UNL d   1     -57.056 -99.437 -44.687  0.00  0.00    -0.154 NA
BRANCH  13  14
ATOM     14  S   UNL d   1     -56.344 -99.338 -44.282  0.00  0.00     0.291 S 
ATOM     15  O   UNL d   1     -56.693 -98.755 -43.813  0.00  0.00    -0.198 OA
ATOM     16  O   UNL d   1     -55.634 -99.236 -43.874  0.00  0.00    -0.198 OA
BRANCH  14  17
ATOM     17  C   UNL d   1     -55.999 -99.922 -44.752  0.00  0.00     0.135 A 
ATOM     18  S   UNL d   1     -56.244-100.360 -45.403  0.00  0.00    -0.073 SA
ATOM     19  C   UNL d   1     -55.622-100.863 -45.618  0.00  0.00     0.036 A 
ATOM     20  C   UNL d   1     -54.998-100.735 -45.100  0.00  0.00     0.008 A 
ATOM     21  C   UNL d   1     -55.227-100.150 -44.560  0.00  0.00     0.020 A 
ENDBRANCH  14  17
ENDBRANCH  13  14
ENDBRANCH   1  13
BRANCH   2  22
ATOM     22  N   UNL d   1     -58.406 -99.158 -45.594  0.00  0.00    -0.201 NA
ATOM     23  C   UNL d   1     -58.850 -99.013 -46.056  0.00  0.00     0.082 A 
ATOM     24  C   UNL d   1     -58.810 -99.038 -47.082  0.00  0.00     0.136 A 
ATOM     25  O   UNL d   1     -59.648 -98.755 -47.193  0.00  0.00    -0.301 OA
ATOM     26  C   UNL d   1     -59.162 -98.915 -46.758  0.00  0.00     0.136 A 
ATOM     27  C   UNL d   1     -59.175 -98.897 -45.657  0.00  0.00     0.082 A 
ENDBRANCH   2  22
TORSDOF 4
ENDMDL
