MODEL 1
REMARK VINA RESULT:      47.7      0.000      0.000
REMARK  5 active torsions:
REMARK  status: ('A' for Active; 'I' for Inactive)
REMARK    1  A    between atoms: N_5  and  C_1 
REMARK       I    between atoms: C_9  and  N_5 
REMARK    2  A    between atoms: C_17  and  C_9 
REMARK    3  A    between atoms: C_12  and  C_10 
REMARK    4  A    between atoms: C_11  and  S_13 
REMARK    5  A    between atoms: S_13  and  C_17 
ROOT
ATOM      1  N   UNL d   1     -57.279-100.204 -44.829  0.00  0.00    -0.148 NA
ATOM      2  N   UNL d   1     -56.494-100.415 -44.688  0.00  0.00    -0.141 NA
ATOM      3  C   UNL d   1     -57.530 -99.425 -44.697  0.00  0.00     0.104 A 
ATOM      4  C   UNL d   1     -55.956 -99.860 -44.417  0.00  0.00     0.133 A 
ATOM      5  C   UNL d   1     -56.989 -98.863 -44.424  0.00  0.00     0.023 A 
ATOM      6  C   UNL d   1     -56.206 -99.077 -44.284  0.00  0.00     0.029 A 
ENDROOT
BRANCH   4   7
ATOM      7  S   UNL d   1     -55.171-100.071 -44.276  0.00  0.00    -0.061 SA
BRANCH   7   8
ATOM      8  C   UNL d   1     -54.985-100.824 -44.007  0.00  0.00     0.099 C 
BRANCH   8   9
ATOM      9  C   UNL d   1     -55.001-100.982 -43.195  0.00  0.00     0.288 C 
ATOM     10  N   UNL d   1     -54.724-101.704 -42.914  0.00  0.00    -0.181 NA
ATOM     11  O   UNL d   1     -55.293-100.421 -42.671  0.00  0.00    -0.265 OA
BRANCH  10  12
ATOM     12  C   UNL d   1     -54.738-101.864 -42.112  0.00  0.00     0.219 A 
ATOM     13  S   UNL d   1     -54.753-101.303 -41.502  0.00  0.00    -0.026 SA
ATOM     14  C   UNL d   1     -54.764-101.703 -40.792  0.00  0.00     0.135 A 
ATOM     15  C   UNL d   1     -54.780-101.359 -40.040  0.00  0.00     0.030 C 
ATOM     16  N   UNL d   1     -54.757-102.510 -40.953  0.00  0.00    -0.139 NA
ATOM     17  N   UNL d   1     -54.741-102.612 -41.770  0.00  0.00    -0.121 NA
ENDBRANCH  10  12
ENDBRANCH   8   9
ENDBRANCH   7   8
ENDBRANCH   4   7
BRANCH   3  18
ATOM     18  C   UNL d   1     -58.315 -99.214 -44.838  0.00  0.00     0.039 A 
ATOM     19  C   UNL d   1     -58.853 -99.229 -44.227  0.00  0.00     0.101 A 
ATOM     20  N   UNL d   1     -59.632 -99.020 -44.362  0.00  0.00    -0.242 NA
ATOM     21  C   UNL d   1     -59.874 -98.794 -45.126  0.00  0.00     0.099 A 
ATOM     22  C   UNL d   1     -59.330 -98.782 -45.737  0.00  0.00     0.021 A 
ATOM     23  C   UNL d   1     -58.542 -98.991 -45.605  0.00  0.00     0.005 A 
ENDBRANCH   3  18
TORSDOF 5
ENDMDL
