MODEL 1
REMARK VINA RESULT:      -6.0      0.000      0.000
REMARK  4 active torsions:
REMARK  status: ('A' for Active; 'I' for Inactive)
REMARK    1  A    between atoms: C_13  and  N_1 
REMARK    2  A    between atoms: N_6  and  C_15 
REMARK    3  A    between atoms: C_14  and  C_13 
REMARK    4  A    between atoms: C_15  and  C_14 
ROOT
ATOM      1  C   UNL d   1     -49.103  12.280  22.362  0.00  0.00     0.087 C 
ENDROOT
BRANCH   1   2
ATOM      2  N   UNL d   1     -49.827  12.200  22.753  0.00  0.00    -0.248 N 
ATOM      3  C   UNL d   1     -50.486  12.642  22.613  0.00  0.00     0.208 A 
ATOM      4  N   UNL d   1     -51.063  12.384  23.111  0.00  0.00    -0.212 NA
ATOM      5  S   UNL d   1     -50.662  13.215  22.137  0.00  0.00    -0.038 SA
ATOM      6  C   UNL d   1     -50.763  11.789  23.554  0.00  0.00     0.162 A 
ATOM      7  C   UNL d   1     -49.994  11.678  23.328  0.00  0.00     0.286 A 
ATOM      8  O   UNL d   1     -49.753  11.186  23.698  0.00  0.00    -0.265 OA
ENDBRANCH   1   2
BRANCH   1   9
ATOM      9  C   UNL d   1     -48.456  12.611  22.754  0.00  0.00     0.038 C 
BRANCH   9  10
ATOM     10  C   UNL d   1     -47.734  12.700  22.360  0.00  0.00     0.083 C 
BRANCH  10  11
ATOM     11  N   UNL d   1     -47.099  13.059  22.741  0.00  0.00    -0.285 N 
ATOM     12  C   UNL d   1     -46.544  12.681  23.214  0.00  0.00     0.183 A 
ATOM     13  N   UNL d   1     -46.006  13.254  23.482  0.00  0.00    -0.222 NA
ATOM     14  C   UNL d   1     -46.230  13.980  23.175  0.00  0.00     0.120 A 
ATOM     15  C   UNL d   1     -46.906  13.859  22.717  0.00  0.00     0.102 A 
ENDBRANCH  10  11
ENDBRANCH   9  10
ENDBRANCH   1   9
TORSDOF 4
ENDMDL
MODEL 2
REMARK VINA RESULT:      -6.0      2.224      3.492
REMARK  4 active torsions:
REMARK  status: ('A' for Active; 'I' for Inactive)
REMARK    1  A    between atoms: C_13  and  N_1 
REMARK    2  A    between atoms: N_6  and  C_15 
REMARK    3  A    between atoms: C_14  and  C_13 
REMARK    4  A    between atoms: C_15  and  C_14 
ROOT
ATOM      1  C   UNL d   1     -47.934  13.311  22.531  0.00  0.00     0.087 C 
ENDROOT
BRANCH   1   2
ATOM      2  N   UNL d   1     -47.348  12.906  22.951  0.00  0.00    -0.248 N 
ATOM      3  C   UNL d   1     -46.571  13.116  22.991  0.00  0.00     0.208 A 
ATOM      4  N   UNL d   1     -46.196  12.576  23.454  0.00  0.00    -0.212 NA
ATOM      5  S   UNL d   1     -46.148  13.684  22.699  0.00  0.00    -0.038 SA
ATOM      6  C   UNL d   1     -46.736  12.038  23.698  0.00  0.00     0.162 A 
ATOM      7  C   UNL d   1     -47.451  12.247  23.382  0.00  0.00     0.286 A 
ATOM      8  O   UNL d   1     -47.891  11.799  23.587  0.00  0.00    -0.265 OA
ENDBRANCH   1   2
BRANCH   1   9
ATOM      9  C   UNL d   1     -48.445  13.826  22.925  0.00  0.00     0.038 C 
BRANCH   9  10
ATOM     10  C   UNL d   1     -49.066  14.187  22.517  0.00  0.00     0.083 C 
BRANCH  10  11
ATOM     11  N   UNL d   1     -49.538  14.746  22.895  0.00  0.00    -0.285 N 
ATOM     12  C   UNL d   1     -49.431  15.560  22.875  0.00  0.00     0.183 A 
ATOM     13  N   UNL d   1     -50.032  15.906  23.332  0.00  0.00    -0.222 NA
ATOM     14  C   UNL d   1     -50.506  15.308  23.629  0.00  0.00     0.120 A 
ATOM     15  C   UNL d   1     -50.200  14.590  23.359  0.00  0.00     0.102 A 
ENDBRANCH  10  11
ENDBRANCH   9  10
ENDBRANCH   1   9
TORSDOF 4
ENDMDL
MODEL 3
REMARK VINA RESULT:      -5.8      1.955      2.228
REMARK  4 active torsions:
REMARK  status: ('A' for Active; 'I' for Inactive)
REMARK    1  A    between atoms: C_13  and  N_1 
REMARK    2  A    between atoms: N_6  and  C_15 
REMARK    3  A    between atoms: C_14  and  C_13 
REMARK    4  A    between atoms: C_15  and  C_14 
ROOT
ATOM      1  C   UNL d   1     -48.882  14.158  22.166  0.00  0.00     0.087 C 
ENDROOT
BRANCH   1   2
ATOM      2  N   UNL d   1     -49.554  14.542  22.457  0.00  0.00    -0.248 N 
ATOM      3  C   UNL d   1     -50.316  14.357  22.272  0.00  0.00     0.208 A 
ATOM      4  N   UNL d   1     -50.794  14.864  22.673  0.00  0.00    -0.212 NA
ATOM      5  S   UNL d   1     -50.653  13.835  21.824  0.00  0.00    -0.038 SA
ATOM      6  C   UNL d   1     -50.333  15.357  23.102  0.00  0.00     0.162 A 
ATOM      7  C   UNL d   1     -49.562  15.153  22.964  0.00  0.00     0.286 A 
ATOM      8  O   UNL d   1     -49.186  15.563  23.321  0.00  0.00    -0.265 OA
ENDBRANCH   1   2
BRANCH   1   9
ATOM      9  C   UNL d   1     -48.391  13.737  22.679  0.00  0.00     0.038 C 
BRANCH   9  10
ATOM     10  C   UNL d   1     -47.747  13.313  22.382  0.00  0.00     0.083 C 
BRANCH  10  11
ATOM     11  N   UNL d   1     -47.231  12.932  22.898  0.00  0.00    -0.285 N 
ATOM     12  C   UNL d   1     -46.536  13.245  23.204  0.00  0.00     0.183 A 
ATOM     13  N   UNL d   1     -46.194  12.671  23.698  0.00  0.00    -0.222 NA
ATOM     14  C   UNL d   1     -46.677  12.010  23.695  0.00  0.00     0.120 A 
ATOM     15  C   UNL d   1     -47.318  12.171  23.201  0.00  0.00     0.102 A 
ENDBRANCH  10  11
ENDBRANCH   9  10
ENDBRANCH   1   9
TORSDOF 4
ENDMDL
MODEL 4
REMARK VINA RESULT:      -4.1      9.075      9.862
REMARK  4 active torsions:
REMARK  status: ('A' for Active; 'I' for Inactive)
REMARK    1  A    between atoms: C_13  and  N_1 
REMARK    2  A    between atoms: N_6  and  C_15 
REMARK    3  A    between atoms: C_14  and  C_13 
REMARK    4  A    between atoms: C_15  and  C_14 
ROOT
ATOM      1  C   UNL d   1     -40.521  14.485  19.960  0.00  0.00     0.087 C 
ENDROOT
BRANCH   1   2
ATOM      2  N   UNL d   1     -40.350  14.936  20.631  0.00  0.00    -0.248 N 
ATOM      3  C   UNL d   1     -39.718  14.827  21.120  0.00  0.00     0.208 A 
ATOM      4  N   UNL d   1     -39.760  15.381  21.701  0.00  0.00    -0.212 NA
ATOM      5  S   UNL d   1     -39.129  14.338  21.142  0.00  0.00    -0.038 SA
ATOM      6  C   UNL d   1     -40.411  15.829  21.572  0.00  0.00     0.162 A 
ATOM      7  C   UNL d   1     -40.774  15.548  20.906  0.00  0.00     0.286 A 
ATOM      8  O   UNL d   1     -41.310  15.922  20.806  0.00  0.00    -0.265 OA
ENDBRANCH   1   2
BRANCH   1   9
ATOM      9  C   UNL d   1     -40.331  14.772  19.209  0.00  0.00     0.038 C 
BRANCH   9  10
ATOM     10  C   UNL d   1     -40.573  14.360  18.535  0.00  0.00     0.083 C 
BRANCH  10  11
ATOM     11  N   UNL d   1     -40.406  14.661  17.786  0.00  0.00    -0.285 N 
ATOM     12  C   UNL d   1     -39.722  14.521  17.353  0.00  0.00     0.183 A 
ATOM     13  N   UNL d   1     -39.789  14.932  16.634  0.00  0.00    -0.222 NA
ATOM     14  C   UNL d   1     -40.510  15.321  16.627  0.00  0.00     0.120 A 
ATOM     15  C   UNL d   1     -40.891  15.153  17.339  0.00  0.00     0.102 A 
ENDBRANCH  10  11
ENDBRANCH   9  10
ENDBRANCH   1   9
TORSDOF 4
ENDMDL
