MODEL 1
REMARK VINA RESULT:      24.2      0.000      0.000
REMARK  3 active torsions:
REMARK  status: ('A' for Active; 'I' for Inactive)
REMARK       I    between atoms: C_2  and  N_1 
REMARK    1  A    between atoms: C_4  and  N_1 
REMARK    2  A    between atoms: C_5  and  N_1 
REMARK    3  A    between atoms: C_6  and  C_2 
ROOT
ATOM      1  N   UNL d   1      59.214  49.481  50.667  0.00  0.00    -0.274 N 
ATOM      2  C   UNL d   1      59.467  49.351  51.457  0.00  0.00     0.276 C 
ATOM      3  O   UNL d   1      58.916  49.298  52.053  0.00  0.00    -0.266 OA
ENDROOT
BRANCH   1   4
ATOM      4  C   UNL d   1      58.412  49.555  50.495  0.00  0.00     0.067 A 
ATOM      5  C   UNL d   1      57.852  49.604  51.099  0.00  0.00     0.018 A 
ATOM      6  C   UNL d   1      57.052  49.678  50.891  0.00  0.00     0.002 A 
ATOM      7  C   UNL d   1      56.820  49.701  50.101  0.00  0.00     0.000 A 
ATOM      8  C   UNL d   1      57.380  49.651  49.513  0.00  0.00     0.002 A 
ATOM      9  C   UNL d   1      58.182  49.578  49.703  0.00  0.00     0.018 A 
ENDBRANCH   1   4
BRANCH   1  10
ATOM     10  C   UNL d   1      59.781  49.533  50.078  0.00  0.00     0.067 C 
ATOM     11  C   UNL d   1      60.578  49.706  50.300  0.00  0.00     0.019 C 
ATOM     12  C   UNL d   1      59.608  49.422  49.283  0.00  0.00     0.019 C 
ENDBRANCH   1  10
BRANCH   2  13
ATOM     13  C   UNL d   1      60.269  49.280  51.614  0.00  0.00     0.129 C 
ATOM     14 CL   UNL d   1      60.587  49.705  52.249  0.00  0.00    -0.076 Cl
ENDBRANCH   2  13
TORSDOF 3
ENDMDL
