MODEL 1
REMARK VINA RESULT:      39.6      0.000      0.000
REMARK  5 active torsions:
REMARK  status: ('A' for Active; 'I' for Inactive)
REMARK    1  A    between atoms: S_2  and  C_1 
REMARK    2  A    between atoms: N_8  and  S_2 
REMARK    3  A    between atoms: C_11  and  C_16 
REMARK    4  A    between atoms: O_22  and  C_11 
REMARK    5  A    between atoms: C_23  and  O_22 
ROOT
ATOM      1  S   UNL d   1      45.716 -15.322  44.250  0.00  0.00     0.277 S 
ATOM      2  O   UNL d   1      46.428 -15.203  43.843  0.00  0.00    -0.199 OA
ATOM      3  O   UNL d   1      45.013 -15.453  44.654  0.00  0.00    -0.199 OA
ENDROOT
BRANCH   1   4
ATOM      4  C   UNL d   1      45.581 -14.510  44.266  0.00  0.00     0.178 A 
ATOM      5  C   UNL d   1      44.885 -14.211  43.935  0.00  0.00     0.282 A 
ATOM      6  N   UNL d   1      44.752 -13.402  43.952  0.00  0.00    -0.224 N 
ATOM      7  O   UNL d   1      44.345 -14.710  43.601  0.00  0.00    -0.266 OA
ATOM      8  C   UNL d   1      44.056 -13.108  43.621  0.00  0.00     0.107 C 
ATOM      9  C   UNL d   1      45.301 -12.895  44.292  0.00  0.00     0.342 A 
ATOM     10  N   UNL d   1      45.987 -13.195  44.617  0.00  0.00    -0.255 N 
ATOM     11  O   UNL d   1      45.169 -12.082  44.309  0.00  0.00    -0.245 OA
ATOM     12  C   UNL d   1      46.130 -14.004  44.605  0.00  0.00     0.102 A 
ATOM     13  C   UNL d   1      46.533 -12.690  44.955  0.00  0.00     0.104 C 
ENDBRANCH   1   4
BRANCH   1  14
ATOM     14  N   UNL d   1      45.842 -16.139  44.240  0.00  0.00    -0.229 N 
ATOM     15  C   UNL d   1      46.017 -16.531  43.510  0.00  0.00     0.092 A 
ATOM     16  C   UNL d   1      46.141 -17.358  43.518  0.00  0.00     0.025 A 
ATOM     17  C   UNL d   1      46.096 -17.792  44.233  0.00  0.00     0.067 A 
ATOM     18  C   UNL d   1      45.924 -17.406  44.950  0.00  0.00     0.025 A 
ATOM     19  C   UNL d   1      45.797 -16.573  44.955  0.00  0.00     0.092 A 
BRANCH  17  20
ATOM     20  C   UNL d   1      46.219 -18.595  44.226  0.00  0.00     0.300 C 
ATOM     21  O   UNL d   1      46.206 -19.004  44.909  0.00  0.00    -0.259 OA
BRANCH  20  22
ATOM     22  O   UNL d   1      46.354 -18.967  43.521  0.00  0.00    -0.271 OA
BRANCH  22  23
ATOM     23  C   UNL d   1      46.511 -19.739  43.492  0.00  0.00     0.126 C 
ATOM     24  C   UNL d   1      46.512 -20.125  42.787  0.00  0.00     0.029 C 
ENDBRANCH  22  23
ENDBRANCH  20  22
ENDBRANCH  17  20
ENDBRANCH   1  14
TORSDOF 5
ENDMDL
