MODEL 1
REMARK VINA RESULT:      -1.5      0.000      0.000
REMARK  5 active torsions:
REMARK  status: ('A' for Active; 'I' for Inactive)
REMARK    1  A    between atoms: C_7  and  N_1 
REMARK    2  A    between atoms: C_15  and  C_5 
REMARK    3  A    between atoms: C_14  and  C_6 
REMARK    4  A    between atoms: C_8  and  C_7 
REMARK       I    between atoms: N_11  and  C_8 
REMARK    5  A    between atoms: C_13  and  N_11 
ROOT
ATOM      1  N   UNL d   1     -41.822-122.519 -50.870  0.00  0.00    -0.235 N 
ATOM      2  C   UNL d   1     -42.445-121.975 -50.796  0.00  0.00     0.273 A 
ATOM      3  C   UNL d   1     -41.747-123.137 -50.319  0.00  0.00     0.273 A 
ATOM      4  S   UNL d   1     -42.913-122.662 -49.636  0.00  0.00    -0.077 SA
ATOM      5  C   UNL d   1     -42.297-123.202 -49.706  0.00  0.00     0.086 A 
ATOM      6  C   UNL d   1     -42.981-122.053 -50.183  0.00  0.00     0.086 A 
ATOM      7  O   UNL d   1     -41.129-123.677 -50.392  0.00  0.00    -0.266 OA
ATOM      8  O   UNL d   1     -42.522-121.357 -51.343  0.00  0.00    -0.266 OA
ENDROOT
BRANCH   1   9
ATOM      9  C   UNL d   1     -41.280-122.440 -51.489  0.00  0.00     0.148 C 
BRANCH   9  10
ATOM     10  C   UNL d   1     -41.458-122.752 -52.232  0.00  0.00     0.297 C 
ATOM     11  N   UNL d   1     -41.141-122.407 -52.910  0.00  0.00    -0.207 NA
ATOM     12  O   UNL d   1     -41.956-123.411 -52.287  0.00  0.00    -0.264 OA
BRANCH  11  13
ATOM     13  C   UNL d   1     -41.320-122.719 -53.652  0.00  0.00     0.085 A 
ATOM     14  C   UNL d   1     -41.123-123.493 -53.829  0.00  0.00     0.019 A 
ATOM     15  C   UNL d   1     -41.304-123.799 -54.570  0.00  0.00     0.002 A 
ATOM     16  C   UNL d   1     -41.681-123.336 -55.139  0.00  0.00     0.000 A 
ATOM     17  C   UNL d   1     -41.879-122.551 -54.956  0.00  0.00     0.002 A 
ATOM     18  C   UNL d   1     -41.697-122.250 -54.216  0.00  0.00     0.019 A 
ENDBRANCH  11  13
ENDBRANCH   9  10
ENDBRANCH   1   9
BRANCH   6  19
ATOM     19  C   UNL d   1     -43.607-121.507 -50.109  0.00  0.00     0.011 C 
ATOM     20  C   UNL d   1     -44.363-121.705 -50.377  0.00  0.00     0.001 C 
ENDBRANCH   6  19
BRANCH   5  21
ATOM     21  C   UNL d   1     -42.222-123.817 -49.160  0.00  0.00     0.011 C 
ATOM     22  C   UNL d   1     -42.491-123.714 -48.384  0.00  0.00     0.001 C 
ENDBRANCH   5  21
TORSDOF 5
ENDMDL
MODEL 2
REMARK VINA RESULT:      -1.1      0.282      1.729
REMARK  5 active torsions:
REMARK  status: ('A' for Active; 'I' for Inactive)
REMARK    1  A    between atoms: C_7  and  N_1 
REMARK    2  A    between atoms: C_15  and  C_5 
REMARK    3  A    between atoms: C_14  and  C_6 
REMARK    4  A    between atoms: C_8  and  C_7 
REMARK       I    between atoms: N_11  and  C_8 
REMARK    5  A    between atoms: C_13  and  N_11 
ROOT
ATOM      1  N   UNL d   1     -41.846-122.538 -50.933  0.00  0.00    -0.235 N 
ATOM      2  C   UNL d   1     -41.761-123.141 -50.368  0.00  0.00     0.273 A 
ATOM      3  C   UNL d   1     -42.487-122.012 -50.880  0.00  0.00     0.273 A 
ATOM      4  S   UNL d   1     -42.944-122.695 -49.707  0.00  0.00    -0.077 SA
ATOM      5  C   UNL d   1     -43.031-122.096 -50.264  0.00  0.00     0.086 A 
ATOM      6  C   UNL d   1     -42.308-123.212 -49.764  0.00  0.00     0.086 A 
ATOM      7  O   UNL d   1     -42.572-121.413 -51.441  0.00  0.00    -0.266 OA
ATOM      8  O   UNL d   1     -41.123-123.668 -50.418  0.00  0.00    -0.266 OA
ENDROOT
BRANCH   1   9
ATOM      9  C   UNL d   1     -41.293-122.467 -51.543  0.00  0.00     0.148 C 
BRANCH   9  10
ATOM     10  C   UNL d   1     -41.501-122.680 -52.313  0.00  0.00     0.297 C 
ATOM     11  N   UNL d   1     -41.394-122.144 -52.931  0.00  0.00    -0.207 NA
ATOM     12  O   UNL d   1     -41.816-123.431 -52.456  0.00  0.00    -0.264 OA
BRANCH  11  13
ATOM     13  C   UNL d   1     -41.603-122.357 -53.700  0.00  0.00     0.085 A 
ATOM     14  C   UNL d   1     -41.449-123.114 -53.971  0.00  0.00     0.019 A 
ATOM     15  C   UNL d   1     -41.659-123.320 -54.738  0.00  0.00     0.002 A 
ATOM     16  C   UNL d   1     -42.024-122.775 -55.239  0.00  0.00     0.000 A 
ATOM     17  C   UNL d   1     -42.178-122.009 -54.960  0.00  0.00     0.002 A 
ATOM     18  C   UNL d   1     -41.967-121.807 -54.195  0.00  0.00     0.019 A 
ENDBRANCH  11  13
ENDBRANCH   9  10
ENDBRANCH   1   9
BRANCH   6  19
ATOM     19  C   UNL d   1     -42.223-123.817 -49.197  0.00  0.00     0.011 C 
ATOM     20  C   UNL d   1     -42.504-123.707 -48.428  0.00  0.00     0.001 C 
ENDBRANCH   6  19
BRANCH   5  21
ATOM     21  C   UNL d   1     -43.668-121.573 -50.213  0.00  0.00     0.011 C 
ATOM     22  C   UNL d   1     -44.430-121.832 -50.402  0.00  0.00     0.001 C 
ENDBRANCH   5  21
TORSDOF 5
ENDMDL
MODEL 3
REMARK VINA RESULT:       0.8      1.401      4.170
REMARK  5 active torsions:
REMARK  status: ('A' for Active; 'I' for Inactive)
REMARK    1  A    between atoms: C_7  and  N_1 
REMARK    2  A    between atoms: C_15  and  C_5 
REMARK    3  A    between atoms: C_14  and  C_6 
REMARK    4  A    between atoms: C_8  and  C_7 
REMARK       I    between atoms: N_11  and  C_8 
REMARK    5  A    between atoms: C_13  and  N_11 
ROOT
ATOM      1  N   UNL d   1     -41.286-122.705 -51.454  0.00  0.00    -0.235 N 
ATOM      2  C   UNL d   1     -41.287-121.884 -51.323  0.00  0.00     0.273 A 
ATOM      3  C   UNL d   1     -41.449-123.000 -52.214  0.00  0.00     0.273 A 
ATOM      4  S   UNL d   1     -41.610-121.660 -52.694  0.00  0.00    -0.077 SA
ATOM      5  C   UNL d   1     -41.610-122.471 -52.828  0.00  0.00     0.086 A 
ATOM      6  C   UNL d   1     -41.448-121.374 -51.941  0.00  0.00     0.086 A 
ATOM      7  O   UNL d   1     -41.449-123.814 -52.345  0.00  0.00    -0.266 OA
ATOM      8  O   UNL d   1     -41.124-121.587 -50.566  0.00  0.00    -0.266 OA
ENDROOT
BRANCH   1   9
ATOM      9  C   UNL d   1     -41.123-123.221 -50.829  0.00  0.00     0.148 C 
BRANCH   9  10
ATOM     10  C   UNL d   1     -41.718-123.412 -50.290  0.00  0.00     0.297 C 
ATOM     11  N   UNL d   1     -41.627-123.221 -49.493  0.00  0.00    -0.207 NA
ATOM     12  O   UNL d   1     -42.401-123.794 -50.556  0.00  0.00    -0.264 OA
BRANCH  11  13
ATOM     13  C   UNL d   1     -42.222-123.412 -48.954  0.00  0.00     0.085 A 
ATOM     14  C   UNL d   1     -43.006-123.395 -49.186  0.00  0.00     0.019 A 
ATOM     15  C   UNL d   1     -43.594-123.586 -48.646  0.00  0.00     0.002 A 
ATOM     16  C   UNL d   1     -43.405-123.795 -47.870  0.00  0.00     0.000 A 
ATOM     17  C   UNL d   1     -42.608-123.811 -47.638  0.00  0.00     0.002 A 
ATOM     18  C   UNL d   1     -42.025-123.620 -48.180  0.00  0.00     0.019 A 
ENDBRANCH  11  13
ENDBRANCH   9  10
ENDBRANCH   1   9
BRANCH   6  19
ATOM     19  C   UNL d   1     -41.448-120.551 -51.809  0.00  0.00     0.011 C 
ATOM     20  C   UNL d   1     -41.368-120.029 -52.444  0.00  0.00     0.001 C 
ENDBRANCH   6  19
BRANCH   5  21
ATOM     21  C   UNL d   1     -41.772-122.766 -53.583  0.00  0.00     0.011 C 
ATOM     22  C   UNL d   1     -42.093-122.267 -54.159  0.00  0.00     0.001 C 
ENDBRANCH   5  21
TORSDOF 5
ENDMDL
