MODEL 1
REMARK VINA RESULT:      10.0      0.000      0.000
REMARK  3 active torsions:
REMARK  status: ('A' for Active; 'I' for Inactive)
REMARK    1  A    between atoms: S_8  and  C_2 
REMARK       I    between atoms: N_6  and  C_7 
REMARK    2  A    between atoms: C_7  and  C_9 
REMARK    3  A    between atoms: C_9  and  S_8 
ROOT
ATOM      1  N   UNL d   1      46.329 -18.481  43.523  0.00  0.00    -0.267 N 
ATOM      2  C   UNL d   1      46.197 -18.041  44.213  0.00  0.00     0.272 C 
ATOM      3  O   UNL d   1      46.254 -18.411  44.955  0.00  0.00    -0.266 OA
ATOM      4  O   UNL d   1      46.590 -19.349  42.149  0.00  0.00    -0.300 OA
ATOM      5  C   UNL d   1      46.516 -19.279  43.572  0.00  0.00     0.110 A 
ATOM      6  C   UNL d   1      46.271 -18.115  42.788  0.00  0.00     0.110 A 
ATOM      7  C   UNL d   1      46.402 -18.548  42.102  0.00  0.00     0.142 A 
ATOM      8  C   UNL d   1      46.647 -19.715  42.884  0.00  0.00     0.142 A 
ENDROOT
BRANCH   2   9
ATOM      9  C   UNL d   1      46.008 -17.239  44.165  0.00  0.00     0.099 C 
BRANCH   9  10
ATOM     10  S   UNL d   1      45.898 -16.802  44.854  0.00  0.00    -0.041 SA
BRANCH  10  11
ATOM     11  C   UNL d   1      45.703 -16.006  44.807  0.00  0.00     0.233 A 
ATOM     12  N   UNL d   1      46.164 -15.325  44.698  0.00  0.00    -0.029 NA
ATOM     13  C   UNL d   1      45.657 -14.677  44.699  0.00  0.00     0.788 A 
ATOM     14  N   UNL d   1      44.894 -14.939  44.807  0.00  0.00     0.050 NA
ATOM     15  N   UNL d   1      45.898 -13.878  44.604  0.00  0.00     0.064 N 
ATOM     16  N   UNL d   1      44.913 -15.765  44.875  0.00  0.00    -0.105 NA
ENDBRANCH  10  11
ENDBRANCH   9  10
ENDBRANCH   2   9
TORSDOF 3
ENDMDL
MODEL 2
REMARK VINA RESULT:      12.3      1.676      4.119
REMARK  3 active torsions:
REMARK  status: ('A' for Active; 'I' for Inactive)
REMARK    1  A    between atoms: S_8  and  C_2 
REMARK       I    between atoms: N_6  and  C_7 
REMARK    2  A    between atoms: C_7  and  C_9 
REMARK    3  A    between atoms: C_9  and  S_8 
ROOT
ATOM      1  N   UNL d   1      45.530 -14.881  44.538  0.00  0.00    -0.267 N 
ATOM      2  C   UNL d   1      45.377 -15.691  44.624  0.00  0.00     0.272 C 
ATOM      3  O   UNL d   1      44.657 -15.942  44.955  0.00  0.00    -0.266 OA
ATOM      4  O   UNL d   1      45.840 -13.273  44.365  0.00  0.00    -0.300 OA
ATOM      5  C   UNL d   1      44.973 -14.328  44.780  0.00  0.00     0.110 A 
ATOM      6  C   UNL d   1      46.243 -14.632  44.210  0.00  0.00     0.110 A 
ATOM      7  C   UNL d   1      46.398 -13.831  44.123  0.00  0.00     0.142 A 
ATOM      8  C   UNL d   1      45.127 -13.522  44.693  0.00  0.00     0.142 A 
ENDROOT
BRANCH   2   9
ATOM      9  C   UNL d   1      45.935 -16.248  44.381  0.00  0.00     0.099 C 
BRANCH   9  10
ATOM     10  S   UNL d   1      45.850 -17.037  44.600  0.00  0.00    -0.041 SA
BRANCH  10  11
ATOM     11  C   UNL d   1      46.120 -17.632  44.102  0.00  0.00     0.233 A 
ATOM     12  N   UNL d   1      46.181 -17.682  43.277  0.00  0.00    -0.029 NA
ATOM     13  C   UNL d   1      46.493 -18.421  43.095  0.00  0.00     0.788 A 
ATOM     14  N   UNL d   1      46.627 -18.829  43.785  0.00  0.00     0.050 NA
ATOM     15  N   UNL d   1      46.646 -18.700  42.317  0.00  0.00     0.064 N 
ATOM     16  N   UNL d   1      46.397 -18.346  44.418  0.00  0.00    -0.105 NA
ENDBRANCH  10  11
ENDBRANCH   9  10
ENDBRANCH   2   9
TORSDOF 3
ENDMDL
