MODEL 1
REMARK VINA RESULT:      27.1      0.000      0.000
REMARK  2 active torsions:
REMARK  status: ('A' for Active; 'I' for Inactive)
REMARK    1  A    between atoms: C_4  and  C_2 
REMARK    2  A    between atoms: C_8  and  C_3 
ROOT
ATOM      1  S   UNL d   1      14.967  15.389  -0.784  0.00  0.00    -0.081 SA
ATOM      2  C   UNL d   1      15.274  14.750  -0.359  0.00  0.00     0.031 A 
ATOM      3  C   UNL d   1      15.499  16.032  -0.707  0.00  0.00     0.094 A 
ATOM      4  C   UNL d   1      15.999  14.991  -0.015  0.00  0.00     0.007 A 
ATOM      5  C   UNL d   1      16.130  15.783  -0.234  0.00  0.00     0.013 A 
ENDROOT
BRANCH   2   6
ATOM      6  C   UNL d   1      14.934  14.009  -0.284  0.00  0.00     0.025 A 
ATOM      7  C   UNL d   1      15.409  13.341  -0.190  0.00  0.00     0.005 A 
ATOM      8  C   UNL d   1      15.069  12.600  -0.115  0.00  0.00     0.038 A 
ATOM      9  C   UNL d   1      15.541  11.937  -0.020  0.00  0.00     0.003 C 
ATOM     10  C   UNL d   1      14.245  12.522  -0.134  0.00  0.00     0.184 A 
ATOM     11  N   UNL d   1      13.769  13.195  -0.230  0.00  0.00    -0.224 NA
ATOM     12  N   UNL d   1      13.901  11.779  -0.059  0.00  0.00    -0.127 N 
ATOM     13  C   UNL d   1      14.124  13.932  -0.304  0.00  0.00     0.101 A 
ENDBRANCH   2   6
BRANCH   3  14
ATOM     14  C   UNL d   1      15.399  16.775  -1.046  0.00  0.00     0.217 C 
ATOM     15  O   UNL d   1      15.762  17.435  -0.693  0.00  0.00    -0.643 OA
ATOM     16  O   UNL d   1      14.955  16.874  -1.716  0.00  0.00    -0.643 OA
ENDBRANCH   3  14
TORSDOF 2
ENDMDL
