MODEL 1
REMARK VINA RESULT:      -7.3      0.000      0.000
REMARK  4 active torsions:
REMARK  status: ('A' for Active; 'I' for Inactive)
REMARK    1  A    between atoms: C_4  and  C_1 
REMARK    2  A    between atoms: C_13  and  N_3 
REMARK    3  A    between atoms: C_11  and  N_5 
REMARK    4  A    between atoms: C_14  and  C_11 
ROOT
ATOM      1  C   UNL d   1     -48.568  12.642  23.322  0.00  0.00     0.057 A 
ATOM      2  N   UNL d   1     -47.334  12.139  23.487  0.00  0.00    -0.272 N 
ATOM      3  C   UNL d   1     -47.879  11.516  23.553  0.00  0.00     0.265 A 
ATOM      4  C   UNL d   1     -47.760  12.826  23.346  0.00  0.00     0.086 A 
ATOM      5  C   UNL d   1     -48.634  11.825  23.452  0.00  0.00     0.066 A 
ATOM      6  O   UNL d   1     -47.685  10.725  23.696  0.00  0.00    -0.267 OA
ENDROOT
BRANCH   1   7
ATOM      7  C   UNL d   1     -49.149  13.201  23.192  0.00  0.00     0.149 A 
ATOM      8  N   UNL d   1     -49.474  13.721  23.698  0.00  0.00    -0.227 NA
ATOM      9  C   UNL d   1     -50.041  14.168  23.293  0.00  0.00     0.099 A 
ATOM     10  C   UNL d   1     -50.535  14.770  23.538  0.00  0.00     0.021 A 
ATOM     11  C   UNL d   1     -50.053  13.905  22.522  0.00  0.00     0.083 A 
ATOM     12  C   UNL d   1     -51.051  15.112  22.986  0.00  0.00     0.002 A 
ATOM     13  C   UNL d   1     -51.063  14.849  22.214  0.00  0.00     0.002 A 
ATOM     14  C   UNL d   1     -50.558  14.236  21.972  0.00  0.00     0.019 A 
ATOM     15  N   UNL d   1     -49.493  13.299  22.459  0.00  0.00    -0.289 N 
BRANCH  15  16
ATOM     16  C   UNL d   1     -49.310  12.862  21.770  0.00  0.00     0.082 C 
ATOM     17  C   UNL d   1     -49.113  13.264  21.059  0.00  0.00     0.021 C 
ENDBRANCH  15  16
ENDBRANCH   1   7
BRANCH   2  18
ATOM     18  C   UNL d   1     -46.502  12.077  23.552  0.00  0.00     0.083 C 
BRANCH  18  19
ATOM     19  C   UNL d   1     -46.020  12.528  23.045  0.00  0.00     0.018 A 
ATOM     20  C   UNL d   1     -45.925  13.338  23.195  0.00  0.00     0.002 A 
ATOM     21  C   UNL d   1     -45.446  13.782  22.692  0.00  0.00     0.000 A 
ATOM     22  C   UNL d   1     -45.068  13.434  22.053  0.00  0.00     0.000 A 
ATOM     23  C   UNL d   1     -45.165  12.628  21.908  0.00  0.00     0.000 A 
ATOM     24  C   UNL d   1     -45.645  12.173  22.409  0.00  0.00     0.002 A 
ENDBRANCH  18  19
ENDBRANCH   2  18
TORSDOF 4
ENDMDL
MODEL 2
REMARK VINA RESULT:      -7.2      1.505      4.581
REMARK  4 active torsions:
REMARK  status: ('A' for Active; 'I' for Inactive)
REMARK    1  A    between atoms: C_4  and  C_1 
REMARK    2  A    between atoms: C_13  and  N_3 
REMARK    3  A    between atoms: C_11  and  N_5 
REMARK    4  A    between atoms: C_14  and  C_11 
ROOT
ATOM      1  C   UNL d   1     -47.181  13.328  22.748  0.00  0.00     0.057 A 
ATOM      2  N   UNL d   1     -48.216  14.003  22.223  0.00  0.00    -0.272 N 
ATOM      3  C   UNL d   1     -47.711  14.550  22.592  0.00  0.00     0.265 A 
ATOM      4  C   UNL d   1     -47.888  13.258  22.320  0.00  0.00     0.086 A 
ATOM      5  C   UNL d   1     -47.078  14.135  22.914  0.00  0.00     0.066 A 
ATOM      6  O   UNL d   1     -47.834  15.367  22.625  0.00  0.00    -0.267 OA
ENDROOT
BRANCH   1   7
ATOM      7  C   UNL d   1     -46.712  12.689  22.943  0.00  0.00     0.149 A 
ATOM      8  N   UNL d   1     -46.907  12.010  23.308  0.00  0.00    -0.227 NA
ATOM      9  C   UNL d   1     -46.230  11.539  23.375  0.00  0.00     0.099 A 
ATOM     10  C   UNL d   1     -46.114  10.798  23.698  0.00  0.00     0.021 A 
ATOM     11  C   UNL d   1     -45.612  11.952  23.040  0.00  0.00     0.083 A 
ATOM     12  C   UNL d   1     -45.351  10.471  23.678  0.00  0.00     0.002 A 
ATOM     13  C   UNL d   1     -44.734  10.884  23.343  0.00  0.00     0.002 A 
ATOM     14  C   UNL d   1     -44.860  11.637  23.017  0.00  0.00     0.019 A 
ATOM     15  N   UNL d   1     -45.916  12.673  22.769  0.00  0.00    -0.289 N 
BRANCH  15  16
ATOM     16  C   UNL d   1     -45.486  13.278  22.385  0.00  0.00     0.082 C 
ATOM     17  C   UNL d   1     -44.893  13.081  21.824  0.00  0.00     0.021 C 
ENDBRANCH  15  16
ENDBRANCH   1   7
BRANCH   2  18
ATOM     18  C   UNL d   1     -48.929  14.181  21.823  0.00  0.00     0.083 C 
BRANCH  18  19
ATOM     19  C   UNL d   1     -49.611  13.733  21.987  0.00  0.00     0.018 A 
ATOM     20  C   UNL d   1     -50.106  13.967  22.610  0.00  0.00     0.002 A 
ATOM     21  C   UNL d   1     -50.781  13.520  22.769  0.00  0.00     0.000 A 
ATOM     22  C   UNL d   1     -50.963  12.856  22.325  0.00  0.00     0.000 A 
ATOM     23  C   UNL d   1     -50.467  12.627  21.707  0.00  0.00     0.000 A 
ATOM     24  C   UNL d   1     -49.786  13.070  21.538  0.00  0.00     0.002 A 
ENDBRANCH  18  19
ENDBRANCH   2  18
TORSDOF 4
ENDMDL
MODEL 3
REMARK VINA RESULT:      -7.0      0.976      4.243
REMARK  4 active torsions:
REMARK  status: ('A' for Active; 'I' for Inactive)
REMARK    1  A    between atoms: C_4  and  C_1 
REMARK    2  A    between atoms: C_13  and  N_3 
REMARK    3  A    between atoms: C_11  and  N_5 
REMARK    4  A    between atoms: C_14  and  C_11 
ROOT
ATOM      1  C   UNL d   1     -48.430  12.570  23.199  0.00  0.00     0.057 A 
ATOM      2  N   UNL d   1     -49.705  12.841  23.523  0.00  0.00    -0.272 N 
ATOM      3  C   UNL d   1     -49.610  12.016  23.512  0.00  0.00     0.265 A 
ATOM      4  C   UNL d   1     -48.981  13.176  23.331  0.00  0.00     0.086 A 
ATOM      5  C   UNL d   1     -48.829  11.851  23.314  0.00  0.00     0.066 A 
ATOM      6  O   UNL d   1     -50.204  11.465  23.675  0.00  0.00    -0.267 OA
ENDROOT
BRANCH   1   7
ATOM      7  C   UNL d   1     -47.652  12.712  22.996  0.00  0.00     0.149 A 
ATOM      8  N   UNL d   1     -47.339  13.307  22.571  0.00  0.00    -0.227 NA
ATOM      9  C   UNL d   1     -46.520  13.198  22.522  0.00  0.00     0.099 A 
ATOM     10  C   UNL d   1     -45.935  13.635  22.158  0.00  0.00     0.021 A 
ATOM     11  C   UNL d   1     -46.341  12.516  22.931  0.00  0.00     0.083 A 
ATOM     12  C   UNL d   1     -45.150  13.373  22.213  0.00  0.00     0.002 A 
ATOM     13  C   UNL d   1     -44.970  12.691  22.621  0.00  0.00     0.002 A 
ATOM     14  C   UNL d   1     -45.571  12.251  22.989  0.00  0.00     0.019 A 
ATOM     15  N   UNL d   1     -47.051  12.212  23.228  0.00  0.00    -0.289 N 
BRANCH  15  16
ATOM     16  C   UNL d   1     -47.141  11.517  23.684  0.00  0.00     0.082 C 
ATOM     17  C   UNL d   1     -46.528  10.942  23.697  0.00  0.00     0.021 C 
ENDBRANCH  15  16
ENDBRANCH   1   7
BRANCH   2  18
ATOM     18  C   UNL d   1     -50.411  13.255  23.698  0.00  0.00     0.083 C 
BRANCH  18  19
ATOM     19  C   UNL d   1     -50.564  13.978  23.316  0.00  0.00     0.018 A 
ATOM     20  C   UNL d   1     -50.896  13.969  22.556  0.00  0.00     0.002 A 
ATOM     21  C   UNL d   1     -51.047  14.688  22.180  0.00  0.00     0.000 A 
ATOM     22  C   UNL d   1     -50.874  15.401  22.546  0.00  0.00     0.000 A 
ATOM     23  C   UNL d   1     -50.544  15.404  23.301  0.00  0.00     0.000 A 
ATOM     24  C   UNL d   1     -50.388  14.686  23.688  0.00  0.00     0.002 A 
ENDBRANCH  18  19
ENDBRANCH   2  18
TORSDOF 4
ENDMDL
