MODEL 1
REMARK VINA RESULT:      -4.3      0.000      0.000
REMARK  5 active torsions:
REMARK  status: ('A' for Active; 'I' for Inactive)
REMARK    1  A    between atoms: C_4  and  C_1 
REMARK    2  A    between atoms: C_9  and  C_4 
REMARK    3  A    between atoms: N_5  and  C_9 
REMARK    4  A    between atoms: C_19  and  N_6 
REMARK    5  A    between atoms: C_18  and  C_19 
ROOT
ATOM      1  N   UNL d   1     -41.125-122.599 -52.001  0.00  0.00    -0.297 N 
ATOM      2  N   UNL d   1     -41.123-123.379 -50.537  0.00  0.00    -0.300 N 
ATOM      3  C   UNL d   1     -41.124-123.418 -51.965  0.00  0.00     0.100 A 
ATOM      4  C   UNL d   1     -41.125-122.156 -51.295  0.00  0.00     0.100 A 
ATOM      5  C   UNL d   1     -41.124-122.556 -50.567  0.00  0.00     0.100 A 
ATOM      6  C   UNL d   1     -41.123-123.817 -51.236  0.00  0.00     0.100 A 
ENDROOT
BRANCH   1   7
ATOM      7  C   UNL d   1     -41.126-122.208 -52.724  0.00  0.00     0.123 C 
BRANCH   7   8
ATOM      8  C   UNL d   1     -41.818-122.150 -53.167  0.00  0.00     0.216 C 
ATOM      9  O   UNL d   1     -42.529-121.951 -52.798  0.00  0.00    -0.285 OA
BRANCH   8  10
ATOM     10  C   UNL d   1     -41.803-122.293 -53.985  0.00  0.00     0.080 A 
ATOM     11  C   UNL d   1     -42.223-121.817 -54.492  0.00  0.00     0.202 A 
ATOM     12  C   UNL d   1     -42.210-121.956 -55.299  0.00  0.00     0.078 A 
ATOM     13  O   UNL d   1     -42.666-121.190 -54.189  0.00  0.00    -0.286 OA
ATOM     14  C   UNL d   1     -42.639-121.469 -55.809  0.00  0.00     0.007 C 
ATOM     15  C   UNL d   1     -41.765-122.588 -55.609  0.00  0.00     0.199 A 
ATOM     16  C   UNL d   1     -41.336-123.074 -55.089  0.00  0.00     0.042 A 
ATOM     17  O   UNL d   1     -41.752-122.726 -56.416  0.00  0.00    -0.286 OA
ATOM     18  C   UNL d   1     -41.353-122.930 -54.278  0.00  0.00     0.010 A 
ENDBRANCH   8  10
ENDBRANCH   7   8
ENDBRANCH   1   7
BRANCH   2  19
ATOM     19  C   UNL d   1     -41.123-123.773 -49.809  0.00  0.00     0.080 C 
BRANCH  19  20
ATOM     20  C   UNL d   1     -41.611-123.507 -49.199  0.00  0.00     0.020 A 
ATOM     21  C   UNL d   1     -41.301-123.388 -48.443  0.00  0.00     0.028 A 
ATOM     22  C   UNL d   1     -41.789-123.124 -47.839  0.00  0.00     0.119 A 
ATOM     23  O   UNL d   1     -41.636-122.959 -47.047  0.00  0.00    -0.300 OA
ATOM     24  C   UNL d   1     -42.586-122.979 -47.988  0.00  0.00     0.119 A 
ATOM     25  C   UNL d   1     -42.336-122.710 -46.693  0.00  0.00     0.304 A 
ATOM     26  O   UNL d   1     -42.925-122.722 -47.279  0.00  0.00    -0.300 OA
ATOM     27  C   UNL d   1     -42.899-123.097 -48.741  0.00  0.00     0.026 A 
ATOM     28  C   UNL d   1     -42.401-123.364 -49.348  0.00  0.00     0.004 A 
ENDBRANCH  19  20
ENDBRANCH   2  19
TORSDOF 5
ENDMDL
