MODEL 1
REMARK VINA RESULT:      -3.6      0.000      0.000
REMARK  5 active torsions:
REMARK  status: ('A' for Active; 'I' for Inactive)
REMARK    1  A    between atoms: N_2  and  S_1 
REMARK    2  A    between atoms: C_4  and  S_1 
REMARK    3  A    between atoms: C_5  and  C_9 
REMARK       I    between atoms: N_8  and  C_5 
REMARK    4  A    between atoms: C_17  and  N_8 
REMARK    5  A    between atoms: C_18  and  C_17 
ROOT
ATOM      1  C   UNL d   1      56.969  -0.232  31.655  0.00  0.00     0.104 A 
ATOM      2  C   UNL d   1      57.846  -0.516  30.352  0.00  0.00     0.058 A 
ATOM      3  C   UNL d   1      57.013  -0.977  31.362  0.00  0.00     0.013 A 
ATOM      4  C   UNL d   1      57.366   0.384  31.296  0.00  0.00     0.013 A 
ATOM      5  C   UNL d   1      57.453  -1.119  30.709  0.00  0.00     0.005 A 
ATOM      6  C   UNL d   1      57.805   0.225  30.639  0.00  0.00     0.005 A 
ENDROOT
BRANCH   1   7
ATOM      7  S   UNL d   1      56.529  -0.080  32.310  0.00  0.00     0.271 S 
ATOM      8  O   UNL d   1      56.439   0.677  32.092  0.00  0.00    -0.200 OA
ATOM      9  O   UNL d   1      56.675  -0.990  32.511  0.00  0.00    -0.200 OA
BRANCH   7  10
ATOM     10  N   UNL d   1      56.062  -0.000  33.048  0.00  0.00    -0.231 N 
ATOM     11  C   UNL d   1      56.474   0.229  33.788  0.00  0.00     0.075 A 
ATOM     12  C   UNL d   1      56.013   0.309  34.527  0.00  0.00     0.017 A 
ATOM     13  C   UNL d   1      57.325   0.376  33.806  0.00  0.00     0.018 A 
ATOM     14  C   UNL d   1      56.405   0.536  35.273  0.00  0.00     0.002 A 
ATOM     15  C   UNL d   1      55.144   0.163  34.528  0.00  0.00     0.003 A 
ATOM     16  C   UNL d   1      57.259   0.682  35.280  0.00  0.00     0.000 A 
ATOM     17  C   UNL d   1      57.727   0.602  34.542  0.00  0.00     0.002 A 
ATOM     18  C   UNL d   1      54.745  -0.064  33.786  0.00  0.00     0.020 A 
ATOM     19  C   UNL d   1      55.208  -0.146  33.041  0.00  0.00     0.092 A 
ENDBRANCH   7  10
ENDBRANCH   1   7
BRANCH   2  20
ATOM     20  C   UNL d   1      58.289  -0.661  29.693  0.00  0.00     0.279 C 
ATOM     21  N   UNL d   1      58.708  -1.349  29.634  0.00  0.00    -0.206 NA
ATOM     22  O   UNL d   1      58.318  -0.131  29.097  0.00  0.00    -0.265 OA
BRANCH  21  23
ATOM     23  C   UNL d   1      59.148  -1.497  28.983  0.00  0.00     0.102 C 
BRANCH  23  24
ATOM     24  C   UNL d   1      59.616  -2.175  28.936  0.00  0.00     0.019 A 
ATOM     25  C   UNL d   1      60.388  -2.150  29.216  0.00  0.00     0.002 A 
ATOM     26  C   UNL d   1      60.860  -2.823  29.173  0.00  0.00     0.000 A 
ATOM     27  C   UNL d   1      60.555  -3.530  28.843  0.00  0.00     0.000 A 
ATOM     28  C   UNL d   1      59.779  -3.542  28.565  0.00  0.00     0.000 A 
ATOM     29  C   UNL d   1      59.306  -2.863  28.610  0.00  0.00     0.002 A 
ENDBRANCH  23  24
ENDBRANCH  21  23
ENDBRANCH   2  20
TORSDOF 5
ENDMDL
MODEL 2
REMARK VINA RESULT:      -3.1      0.668      1.522
REMARK  5 active torsions:
REMARK  status: ('A' for Active; 'I' for Inactive)
REMARK    1  A    between atoms: N_2  and  S_1 
REMARK    2  A    between atoms: C_4  and  S_1 
REMARK    3  A    between atoms: C_5  and  C_9 
REMARK       I    between atoms: N_8  and  C_5 
REMARK    4  A    between atoms: C_17  and  N_8 
REMARK    5  A    between atoms: C_18  and  C_17 
ROOT
ATOM      1  C   UNL d   1      57.071   0.108  32.181  0.00  0.00     0.104 A 
ATOM      2  C   UNL d   1      57.645  -0.207  30.726  0.00  0.00     0.058 A 
ATOM      3  C   UNL d   1      56.929  -0.607  31.846  0.00  0.00     0.013 A 
ATOM      4  C   UNL d   1      57.504   0.677  31.789  0.00  0.00     0.013 A 
ATOM      5  C   UNL d   1      57.218  -0.764  31.116  0.00  0.00     0.005 A 
ATOM      6  C   UNL d   1      57.788   0.504  31.055  0.00  0.00     0.005 A 
ENDROOT
BRANCH   1   7
ATOM      7  S   UNL d   1      56.785   0.275  32.914  0.00  0.00     0.271 S 
ATOM      8  O   UNL d   1      56.181   0.682  32.601  0.00  0.00    -0.200 OA
ATOM      9  O   UNL d   1      57.527  -0.222  33.219  0.00  0.00    -0.200 OA
BRANCH   7  10
ATOM     10  N   UNL d   1      56.544   0.411  33.745  0.00  0.00    -0.231 N 
ATOM     11  C   UNL d   1      55.689   0.473  33.934  0.00  0.00     0.075 A 
ATOM     12  C   UNL d   1      55.443   0.608  34.762  0.00  0.00     0.017 A 
ATOM     13  C   UNL d   1      55.084   0.404  33.321  0.00  0.00     0.018 A 
ATOM     14  C   UNL d   1      54.597   0.673  34.970  0.00  0.00     0.002 A 
ATOM     15  C   UNL d   1      56.046   0.682  35.401  0.00  0.00     0.003 A 
ATOM     16  C   UNL d   1      53.998   0.602  34.347  0.00  0.00     0.000 A 
ATOM     17  C   UNL d   1      54.240   0.466  33.515  0.00  0.00     0.002 A 
ATOM     18  C   UNL d   1      56.894   0.618  35.201  0.00  0.00     0.020 A 
ATOM     19  C   UNL d   1      57.143   0.482  34.367  0.00  0.00     0.092 A 
ENDBRANCH   7  10
ENDBRANCH   1   7
BRANCH   2  20
ATOM     20  C   UNL d   1      57.935  -0.368  29.989  0.00  0.00     0.279 C 
ATOM     21  N   UNL d   1      58.508  -0.929  29.897  0.00  0.00    -0.206 NA
ATOM     22  O   UNL d   1      57.661   0.023  29.350  0.00  0.00    -0.265 OA
BRANCH  21  23
ATOM     23  C   UNL d   1      58.797  -1.092  29.169  0.00  0.00     0.102 C 
BRANCH  23  24
ATOM     24  C   UNL d   1      59.422  -1.621  29.073  0.00  0.00     0.019 A 
ATOM     25  C   UNL d   1      59.263  -2.426  29.023  0.00  0.00     0.002 A 
ATOM     26  C   UNL d   1      59.882  -2.960  28.927  0.00  0.00     0.000 A 
ATOM     27  C   UNL d   1      60.671  -2.685  28.881  0.00  0.00     0.000 A 
ATOM     28  C   UNL d   1      60.818  -1.875  28.932  0.00  0.00     0.000 A 
ATOM     29  C   UNL d   1      60.193  -1.340  29.029  0.00  0.00     0.002 A 
ENDBRANCH  23  24
ENDBRANCH  21  23
ENDBRANCH   2  20
TORSDOF 5
ENDMDL
MODEL 3
REMARK VINA RESULT:      -1.0      1.021      5.903
REMARK  5 active torsions:
REMARK  status: ('A' for Active; 'I' for Inactive)
REMARK    1  A    between atoms: N_2  and  S_1 
REMARK    2  A    between atoms: C_4  and  S_1 
REMARK    3  A    between atoms: C_5  and  C_9 
REMARK       I    between atoms: N_8  and  C_5 
REMARK    4  A    between atoms: C_17  and  N_8 
REMARK    5  A    between atoms: C_18  and  C_17 
ROOT
ATOM      1  C   UNL d   1      58.231  -0.497  30.443  0.00  0.00     0.104 A 
ATOM      2  C   UNL d   1      56.985   0.080  31.257  0.00  0.00     0.058 A 
ATOM      3  C   UNL d   1      58.154   0.295  30.541  0.00  0.00     0.013 A 
ATOM      4  C   UNL d   1      57.680  -1.013  30.753  0.00  0.00     0.013 A 
ATOM      5  C   UNL d   1      57.530   0.584  30.949  0.00  0.00     0.005 A 
ATOM      6  C   UNL d   1      57.057  -0.707  31.162  0.00  0.00     0.005 A 
ENDROOT
BRANCH   1   7
ATOM      7  S   UNL d   1      58.854  -0.797  30.034  0.00  0.00     0.271 S 
ATOM      8  O   UNL d   1      59.254  -0.922  30.707  0.00  0.00    -0.200 OA
ATOM      9  O   UNL d   1      58.325  -0.621  29.272  0.00  0.00    -0.200 OA
BRANCH   7  10
ATOM     10  N   UNL d   1      59.487  -1.108  29.513  0.00  0.00    -0.231 N 
ATOM     11  C   UNL d   1      59.446  -1.945  29.251  0.00  0.00     0.075 A 
ATOM     12  C   UNL d   1      60.074  -2.261  28.731  0.00  0.00     0.017 A 
ATOM     13  C   UNL d   1      58.800  -2.465  29.493  0.00  0.00     0.018 A 
ATOM     14  C   UNL d   1      60.051  -3.091  28.459  0.00  0.00     0.002 A 
ATOM     15  C   UNL d   1      60.742  -1.745  28.473  0.00  0.00     0.003 A 
ATOM     16  C   UNL d   1      59.398  -3.603  28.708  0.00  0.00     0.000 A 
ATOM     17  C   UNL d   1      58.765  -3.291  29.229  0.00  0.00     0.002 A 
ATOM     18  C   UNL d   1      60.772  -0.915  28.741  0.00  0.00     0.020 A 
ATOM     19  C   UNL d   1      60.139  -0.596  29.264  0.00  0.00     0.092 A 
ENDBRANCH   7  10
ENDBRANCH   1   7
BRANCH   2  20
ATOM     20  C   UNL d   1      56.356   0.374  31.669  0.00  0.00     0.279 C 
ATOM     21  N   UNL d   1      56.370   0.378  32.476  0.00  0.00    -0.206 NA
ATOM     22  O   UNL d   1      55.718   0.662  31.285  0.00  0.00    -0.265 OA
BRANCH  21  23
ATOM     23  C   UNL d   1      55.748   0.669  32.887  0.00  0.00     0.102 C 
BRANCH  23  24
ATOM     24  C   UNL d   1      55.726   0.617  33.710  0.00  0.00     0.019 A 
ATOM     25  C   UNL d   1      55.005   0.500  34.086  0.00  0.00     0.002 A 
ATOM     26  C   UNL d   1      54.975   0.447  34.907  0.00  0.00     0.000 A 
ATOM     27  C   UNL d   1      55.678   0.511  35.357  0.00  0.00     0.000 A 
ATOM     28  C   UNL d   1      56.396   0.628  34.969  0.00  0.00     0.000 A 
ATOM     29  C   UNL d   1      56.422   0.681  34.142  0.00  0.00     0.002 A 
ENDBRANCH  23  24
ENDBRANCH  21  23
ENDBRANCH   2  20
TORSDOF 5
ENDMDL
