MODEL 1
REMARK VINA RESULT:     101.8      0.000      0.000
REMARK  5 active torsions:
REMARK  status: ('A' for Active; 'I' for Inactive)
REMARK    1  A    between atoms: N_2  and  S_1 
REMARK    2  A    between atoms: C_10  and  S_1 
REMARK    3  A    between atoms: C_4  and  C_3 
REMARK       I    between atoms: N_5  and  C_4 
REMARK    4  A    between atoms: C_6  and  N_5 
REMARK    5  A    between atoms: O_24  and  C_21 
ROOT
ATOM      1  N   UNL d   1     -55.754-102.530 -38.697  0.00  0.00    -0.226 N 
ATOM      2  C   UNL d   1     -56.550-102.600 -38.453  0.00  0.00     0.133 A 
ATOM      3  C   UNL d   1     -55.150-102.549 -38.139  0.00  0.00     0.092 A 
ATOM      4  C   UNL d   1     -56.734-102.686 -37.653  0.00  0.00     0.023 A 
ATOM      5  C   UNL d   1     -55.328-102.635 -37.337  0.00  0.00     0.018 A 
ATOM      6  C   UNL d   1     -56.125-102.704 -37.096  0.00  0.00     0.003 A 
ATOM      7  C   UNL d   1     -54.728-102.654 -36.777  0.00  0.00     0.002 A 
ATOM      8  C   UNL d   1     -56.303-102.791 -36.294  0.00  0.00     0.000 A 
ATOM      9  C   UNL d   1     -54.909-102.740 -35.983  0.00  0.00     0.000 A 
ATOM     10  C   UNL d   1     -55.692-102.808 -35.743  0.00  0.00     0.000 A 
ENDROOT
BRANCH   1  11
ATOM     11  S   UNL d   1     -55.579-102.443 -39.509  0.00  0.00     0.271 S 
ATOM     12  O   UNL d   1     -54.875-102.844 -39.390  0.00  0.00    -0.200 OA
ATOM     13  O   UNL d   1     -56.284-102.045 -39.612  0.00  0.00    -0.200 OA
BRANCH  11  14
ATOM     14  C   UNL d   1     -55.404-102.359 -40.305  0.00  0.00     0.104 A 
ATOM     15  C   UNL d   1     -55.744-102.873 -40.857  0.00  0.00     0.015 A 
ATOM     16  C   UNL d   1     -55.570-102.788 -41.654  0.00  0.00     0.025 A 
ATOM     17  C   UNL d   1     -55.057-102.192 -41.909  0.00  0.00     0.094 A 
ATOM     18  C   UNL d   1     -54.722-101.684 -41.354  0.00  0.00     0.025 A 
ATOM     19  C   UNL d   1     -54.893-101.763 -40.549  0.00  0.00     0.015 A 
BRANCH  17  20
ATOM     20  O   UNL d   1     -54.882-102.107 -42.705  0.00  0.00    -0.328 OA
ATOM     21  C   UNL d   1     -54.833-101.351 -43.036  0.00  0.00     0.181 C 
ENDBRANCH  17  20
ENDBRANCH  11  14
ENDBRANCH   1  11
BRANCH   2  22
ATOM     22  C   UNL d   1     -57.157-102.581 -39.020  0.00  0.00     0.298 C 
ATOM     23  N   UNL d   1     -57.896-102.282 -38.815  0.00  0.00    -0.181 NA
ATOM     24  O   UNL d   1     -57.014-102.861 -39.785  0.00  0.00    -0.264 OA
BRANCH  23  25
ATOM     25  C   UNL d   1     -58.500-102.262 -39.374  0.00  0.00     0.197 A 
ATOM     26  N   UNL d   1     -58.852-102.880 -39.947  0.00  0.00    -0.219 NA
ATOM     27  C   UNL d   1     -59.504-102.487 -40.404  0.00  0.00     0.108 A 
ATOM     28  C   UNL d   1     -59.570-101.629 -40.129  0.00  0.00     0.059 A 
ATOM     29  S   UNL d   1     -58.952-101.487 -39.493  0.00  0.00    -0.046 SA
ENDBRANCH  23  25
ENDBRANCH   2  22
TORSDOF 5
ENDMDL
