MODEL 1
REMARK VINA RESULT:      -2.3      0.000      0.000
REMARK  7 active torsions:
REMARK  status: ('A' for Active; 'I' for Inactive)
REMARK    1  A    between atoms: N_5  and  S_1 
REMARK    2  A    between atoms: C_8  and  S_1 
REMARK    3  A    between atoms: C_2  and  C_11 
REMARK    4  A    between atoms: C_9  and  N_5 
REMARK    5  A    between atoms: C_10  and  C_9 
REMARK       I    between atoms: N_14  and  C_10 
REMARK    6  A    between atoms: C_24  and  N_14 
REMARK    7  A    between atoms: C_15  and  C_16 
ROOT
ATOM      1  C   UNL d   1      32.696  21.545 -21.562  0.00  0.00     0.299 C 
ATOM      2  N   UNL d   1      33.241  21.170 -22.035  0.00  0.00    -0.207 NA
ATOM      3  O   UNL d   1      31.993  21.160 -21.345  0.00  0.00    -0.263 OA
ENDROOT
BRANCH   1   4
ATOM      4  C   UNL d   1      32.833  22.320 -21.290  0.00  0.00     0.174 C 
BRANCH   4   5
ATOM      5  N   UNL d   1      32.268  22.680 -20.821  0.00  0.00    -0.152 NA
BRANCH   5   6
ATOM      6  S   UNL d   1      32.394  22.737 -19.998  0.00  0.00     0.285 S 
ATOM      7  O   UNL d   1      31.589  22.612 -19.871  0.00  0.00    -0.198 OA
ATOM      8  O   UNL d   1      33.199  22.862 -20.131  0.00  0.00    -0.198 OA
BRANCH   6   9
ATOM      9  C   UNL d   1      32.523  22.793 -19.185  0.00  0.00     0.105 A 
ATOM     10  C   UNL d   1      32.621  23.525 -18.833  0.00  0.00     0.013 A 
ATOM     11  C   UNL d   1      32.749  23.583 -18.020  0.00  0.00    -0.004 A 
ATOM     12  C   UNL d   1      32.779  22.895 -17.559  0.00  0.00    -0.023 A 
ATOM     13  C   UNL d   1      32.679  22.155 -17.920  0.00  0.00    -0.004 A 
ATOM     14  C   UNL d   1      32.553  22.107 -18.726  0.00  0.00     0.013 A 
BRANCH  12  15
ATOM     15  C   UNL d   1      32.907  22.944 -16.745  0.00  0.00     0.019 C 
ATOM     16  C   UNL d   1      33.239  22.193 -16.757  0.00  0.00     0.004 C 
ATOM     17  C   UNL d   1      32.571  23.702 -16.738  0.00  0.00     0.004 C 
ATOM     18  C   UNL d   1      33.037  22.988 -15.932  0.00  0.00     0.004 C 
ENDBRANCH  12  15
ENDBRANCH   6   9
ENDBRANCH   5   6
ENDBRANCH   4   5
ENDBRANCH   1   4
BRANCH   2  19
ATOM     19  C   UNL d   1      33.097  20.402 -22.301  0.00  0.00     0.085 A 
ATOM     20  C   UNL d   1      32.849  20.285 -23.075  0.00  0.00     0.019 A 
ATOM     21  C   UNL d   1      32.700  19.515 -23.358  0.00  0.00     0.004 A 
ATOM     22  C   UNL d   1      32.803  18.868 -22.860  0.00  0.00     0.024 A 
ATOM     23  C   UNL d   1      33.052  18.985 -22.082  0.00  0.00     0.004 A 
ATOM     24  C   UNL d   1      33.201  19.746 -21.798  0.00  0.00     0.019 A 
BRANCH  22  25
ATOM     25  C   UNL d   1      32.651  18.106 -23.154  0.00  0.00     0.111 A 
ATOM     26  N   UNL d   1      31.897  17.838 -23.330  0.00  0.00    -0.239 NA
ATOM     27  C   UNL d   1      31.953  17.062 -23.607  0.00  0.00     0.088 A 
ATOM     28  C   UNL d   1      31.386  16.522 -23.862  0.00  0.00     0.020 A 
ATOM     29  C   UNL d   1      32.750  16.852 -23.601  0.00  0.00     0.049 A 
ATOM     30  C   UNL d   1      31.617  15.773 -24.112  0.00  0.00     0.002 A 
ATOM     31  C   UNL d   1      32.414  15.563 -24.106  0.00  0.00     0.001 A 
ATOM     32  C   UNL d   1      32.981  16.102 -23.850  0.00  0.00     0.008 A 
ATOM     33  S   UNL d   1      33.182  17.499 -23.320  0.00  0.00    -0.066 SA
ENDBRANCH  22  25
ENDBRANCH   2  19
TORSDOF 7
ENDMDL
MODEL 2
REMARK VINA RESULT:      -1.8      1.268      7.126
REMARK  7 active torsions:
REMARK  status: ('A' for Active; 'I' for Inactive)
REMARK    1  A    between atoms: N_5  and  S_1 
REMARK    2  A    between atoms: C_8  and  S_1 
REMARK    3  A    between atoms: C_2  and  C_11 
REMARK    4  A    between atoms: C_9  and  N_5 
REMARK    5  A    between atoms: C_10  and  C_9 
REMARK       I    between atoms: N_14  and  C_10 
REMARK    6  A    between atoms: C_24  and  N_14 
REMARK    7  A    between atoms: C_15  and  C_16 
ROOT
ATOM      1  C   UNL d   1      32.752  20.773 -22.231  0.00  0.00     0.299 C 
ATOM      2  N   UNL d   1      32.455  21.491 -21.993  0.00  0.00    -0.207 NA
ATOM      3  O   UNL d   1      33.167  20.292 -21.697  0.00  0.00    -0.263 OA
ENDROOT
BRANCH   1   4
ATOM      4  C   UNL d   1      32.645  20.509 -23.014  0.00  0.00     0.174 C 
BRANCH   4   5
ATOM      5  N   UNL d   1      33.122  19.908 -23.297  0.00  0.00    -0.152 NA
BRANCH   5   6
ATOM      6  S   UNL d   1      32.779  19.177 -23.506  0.00  0.00     0.285 S 
ATOM      7  O   UNL d   1      32.431  19.533 -24.164  0.00  0.00    -0.198 OA
ATOM      8  O   UNL d   1      33.128  18.825 -22.846  0.00  0.00    -0.198 OA
BRANCH   6   9
ATOM      9  C   UNL d   1      32.441  18.452 -23.709  0.00  0.00     0.105 A 
ATOM     10  C   UNL d   1      31.873  18.412 -24.297  0.00  0.00     0.013 A 
ATOM     11  C   UNL d   1      31.535  17.688 -24.501  0.00  0.00    -0.004 A 
ATOM     12  C   UNL d   1      31.772  16.998 -24.108  0.00  0.00    -0.023 A 
ATOM     13  C   UNL d   1      32.348  17.043 -23.513  0.00  0.00    -0.004 A 
ATOM     14  C   UNL d   1      32.678  17.764 -23.317  0.00  0.00     0.013 A 
BRANCH  12  15
ATOM     15  C   UNL d   1      31.438  16.270 -24.306  0.00  0.00     0.019 C 
ATOM     16  C   UNL d   1      31.078  16.239 -23.569  0.00  0.00     0.004 C 
ATOM     17  C   UNL d   1      31.804  16.305 -25.050  0.00  0.00     0.004 C 
ATOM     18  C   UNL d   1      31.103  15.541 -24.500  0.00  0.00     0.004 C 
ENDBRANCH  12  15
ENDBRANCH   6   9
ENDBRANCH   5   6
ENDBRANCH   4   5
ENDBRANCH   1   4
BRANCH   2  19
ATOM     19  C   UNL d   1      32.565  21.746 -21.215  0.00  0.00     0.085 A 
ATOM     20  C   UNL d   1      32.311  21.268 -20.596  0.00  0.00     0.019 A 
ATOM     21  C   UNL d   1      32.415  21.512 -19.806  0.00  0.00     0.004 A 
ATOM     22  C   UNL d   1      32.774  22.234 -19.644  0.00  0.00     0.024 A 
ATOM     23  C   UNL d   1      33.030  22.714 -20.265  0.00  0.00     0.004 A 
ATOM     24  C   UNL d   1      32.928  22.476 -21.049  0.00  0.00     0.019 A 
BRANCH  22  25
ATOM     25  C   UNL d   1      32.872  22.466 -18.852  0.00  0.00     0.111 A 
ATOM     26  N   UNL d   1      32.808  21.944 -18.224  0.00  0.00    -0.239 NA
ATOM     27  C   UNL d   1      32.937  22.361 -17.523  0.00  0.00     0.088 A 
ATOM     28  C   UNL d   1      32.942  22.129 -16.732  0.00  0.00     0.020 A 
ATOM     29  C   UNL d   1      33.082  23.147 -17.723  0.00  0.00     0.049 A 
ATOM     30  C   UNL d   1      33.092  22.684 -16.144  0.00  0.00     0.002 A 
ATOM     31  C   UNL d   1      33.237  23.470 -16.344  0.00  0.00     0.001 A 
ATOM     32  C   UNL d   1      33.233  23.702 -17.134  0.00  0.00     0.008 A 
ATOM     33  S   UNL d   1      33.042  23.212 -18.547  0.00  0.00    -0.066 SA
ENDBRANCH  22  25
ENDBRANCH   2  19
TORSDOF 7
ENDMDL
