MODEL 1
REMARK VINA RESULT:     110.1      0.000      0.000
REMARK  7 active torsions:
REMARK  status: ('A' for Active; 'I' for Inactive)
REMARK    1  A    between atoms: N_8  and  C_1 
REMARK    2  A    between atoms: C_14  and  C_2 
REMARK    3  A    between atoms: S_3  and  C_16 
REMARK    4  A    between atoms: N_7  and  S_3 
REMARK       I    between atoms: C_12  and  N_8 
REMARK       I    between atoms: C_13  and  N_11 
REMARK    5  A    between atoms: C_22  and  C_12 
REMARK    6  A    between atoms: O_33  and  C_13 
REMARK    7  A    between atoms: C_38  and  O_33 
ROOT
ATOM      1  C   UNL d   1     -50.666  27.109  33.997  0.00  0.00     0.104 A 
ATOM      2  C   UNL d   1     -49.780  28.490  34.003  0.00  0.00     0.056 A 
ATOM      3  C   UNL d   1     -49.849  27.074  33.878  0.00  0.00     0.013 A 
ATOM      4  C   UNL d   1     -51.043  27.831  34.120  0.00  0.00     0.013 A 
ATOM      5  C   UNL d   1     -49.404  27.767  33.881  0.00  0.00     0.005 A 
ATOM      6  C   UNL d   1     -50.593  28.527  34.122  0.00  0.00     0.005 A 
ENDROOT
BRANCH   2   7
ATOM      7  C   UNL d   1     -49.338  29.188  34.007  0.00  0.00     0.258 C 
ATOM      8  N   UNL d   1     -49.021  29.478  34.720  0.00  0.00    -0.316 N 
ATOM      9  H   UNL d   1     -49.318  28.944  34.941  0.00  0.00     0.169 HD
ATOM     10  O   UNL d   1     -49.202  29.609  33.307  0.00  0.00    -0.267 OA
BRANCH   8  11
ATOM     11  C   UNL d   1     -48.579  30.176  34.725  0.00  0.00     0.094 A 
ATOM     12  C   UNL d   1     -47.945  30.339  35.220  0.00  0.00     0.081 A 
ATOM     13  C   UNL d   1     -47.659  31.096  35.045  0.00  0.00     0.008 A 
ATOM     14  C   UNL d   1     -47.043  31.539  35.360  0.00  0.00    -0.004 A 
ATOM     15  C   UNL d   1     -48.117  31.403  34.438  0.00  0.00     0.028 A 
ATOM     16  C   UNL d   1     -46.888  32.290  35.066  0.00  0.00     0.099 A 
ATOM     17  C   UNL d   1     -46.253  32.409  35.589  0.00  0.00     0.029 C 
ATOM     18  C   UNL d   1     -46.593  33.046  34.899  0.00  0.00     0.029 C 
ATOM     19  N   UNL d   1     -47.340  32.608  34.458  0.00  0.00    -0.294 NA
ATOM     20  C   UNL d   1     -47.962  32.157  34.142  0.00  0.00     0.104 A 
ATOM     21  C   UNL d   1     -48.596  32.042  33.617  0.00  0.00     0.029 C 
ATOM     22  C   UNL d   1     -47.830  32.920  33.819  0.00  0.00     0.029 C 
ATOM     23  S   UNL d   1     -48.692  30.836  34.233  0.00  0.00    -0.072 SA
BRANCH  12  24
ATOM     24  C   UNL d   1     -47.639  29.841  35.798  0.00  0.00     0.299 C 
ATOM     25  O   UNL d   1     -46.981  30.068  36.219  0.00  0.00    -0.264 OA
ATOM     26  N   UNL d   1     -47.994  29.127  35.943  0.00  0.00    -0.102 N 
ENDBRANCH  12  24
ENDBRANCH   8  11
ENDBRANCH   2   7
BRANCH   1  27
ATOM     27  S   UNL d   1     -51.116  26.403  33.994  0.00  0.00     0.271 S 
ATOM     28  O   UNL d   1     -50.575  26.096  34.545  0.00  0.00    -0.200 OA
ATOM     29  O   UNL d   1     -51.646  26.718  33.446  0.00  0.00    -0.200 OA
BRANCH  27  30
ATOM     30  N   UNL d   1     -51.556  25.714  33.990  0.00  0.00    -0.226 N 
ATOM     31  C   UNL d   1     -51.621  25.262  33.306  0.00  0.00     0.111 A 
ATOM     32  C   UNL d   1     -52.068  24.570  33.317  0.00  0.00     0.105 A 
ATOM     33  N   UNL d   1     -52.449  24.327  34.008  0.00  0.00    -0.248 N 
ATOM     34  C   UNL d   1     -52.380  24.784  34.691  0.00  0.00     0.105 A 
ATOM     35  C   UNL d   1     -52.891  23.640  34.014  0.00  0.00     0.378 C 
ATOM     36  C   UNL d   1     -51.935  25.471  34.677  0.00  0.00     0.111 A 
ATOM     37  O   UNL d   1     -52.957  23.189  33.330  0.00  0.00    -0.237 OA
BRANCH  35  38
ATOM     38  O   UNL d   1     -53.266  23.402  34.698  0.00  0.00    -0.257 OA
BRANCH  38  39
ATOM     39  C   UNL d   1     -54.055  23.189  34.673  0.00  0.00     0.128 C 
ATOM     40  C   UNL d   1     -54.640  23.776  34.690  0.00  0.00     0.029 C 
ENDBRANCH  38  39
ENDBRANCH  35  38
ENDBRANCH  27  30
ENDBRANCH   1  27
TORSDOF 7
ENDMDL
