MODEL 1
REMARK VINA RESULT:      -5.7      0.000      0.000
REMARK  5 active torsions:
REMARK  status: ('A' for Active; 'I' for Inactive)
REMARK    1  A    between atoms: S_10  and  C_6 
REMARK    2  A    between atoms: C_14  and  S_10 
REMARK    3  A    between atoms: C_12  and  C_14 
REMARK    4  A    between atoms: O_16  and  C_12 
REMARK    5  A    between atoms: C_18  and  O_16 
ROOT
ATOM      1  C   UNL d   1     -41.394-123.321 -50.546  0.00  0.00     0.117 A 
ATOM      2  C   UNL d   1     -42.014-122.845 -50.318  0.00  0.00     0.082 A 
ATOM      3  N   UNL d   1     -41.123-123.298 -51.343  0.00  0.00    -0.214 NA
ATOM      4  C   UNL d   1     -42.382-122.340 -50.855  0.00  0.00     0.283 A 
ATOM      5  N   UNL d   1     -42.111-122.318 -51.651  0.00  0.00    -0.183 NA
ATOM      6  C   UNL d   1     -41.484-122.801 -51.877  0.00  0.00     0.198 A 
ATOM      7  S   UNL d   1     -41.127-123.777 -49.880  0.00  0.00    -0.068 SA
ATOM      8  C   UNL d   1     -42.152-122.983 -49.526  0.00  0.00     0.013 A 
ATOM      9  C   UNL d   1     -41.601-123.568 -49.238  0.00  0.00     0.031 A 
ATOM     10  O   UNL d   1     -43.022-121.852 -50.613  0.00  0.00    -0.265 OA
ATOM     11  C   UNL d   1     -42.704-122.667 -49.001  0.00  0.00     0.001 A 
ATOM     12  C   UNL d   1     -41.614-123.817 -48.448  0.00  0.00     0.006 A 
ATOM     13  C   UNL d   1     -42.717-122.916 -48.211  0.00  0.00     0.000 A 
ATOM     14  C   UNL d   1     -42.158-123.501 -47.944  0.00  0.00     0.001 A 
ENDROOT
BRANCH   6  15
ATOM     15  S   UNL d   1     -41.214-122.779 -52.670  0.00  0.00    -0.042 SA
BRANCH  15  16
ATOM     16  C   UNL d   1     -41.735-122.934 -53.277  0.00  0.00     0.107 C 
BRANCH  16  17
ATOM     17  C   UNL d   1     -41.444-123.011 -54.068  0.00  0.00     0.307 C 
ATOM     18  O   UNL d   1     -41.195-123.741 -54.353  0.00  0.00    -0.258 OA
BRANCH  17  19
ATOM     19  O   UNL d   1     -41.410-122.329 -54.568  0.00  0.00    -0.271 OA
BRANCH  19  20
ATOM     20  C   UNL d   1     -41.730-122.366 -55.332  0.00  0.00     0.126 C 
ATOM     21  C   UNL d   1     -41.967-121.681 -55.723  0.00  0.00     0.029 C 
ENDBRANCH  19  20
ENDBRANCH  17  19
ENDBRANCH  16  17
ENDBRANCH  15  16
ENDBRANCH   6  15
TORSDOF 5
ENDMDL
MODEL 2
REMARK VINA RESULT:      -4.2      1.112      5.029
REMARK  5 active torsions:
REMARK  status: ('A' for Active; 'I' for Inactive)
REMARK    1  A    between atoms: S_10  and  C_6 
REMARK    2  A    between atoms: C_14  and  S_10 
REMARK    3  A    between atoms: C_12  and  C_14 
REMARK    4  A    between atoms: O_16  and  C_12 
REMARK    5  A    between atoms: C_18  and  O_16 
ROOT
ATOM      1  C   UNL d   1     -42.013-121.849 -53.099  0.00  0.00     0.117 A 
ATOM      2  C   UNL d   1     -41.745-122.513 -53.487  0.00  0.00     0.082 A 
ATOM      3  N   UNL d   1     -41.934-121.795 -52.262  0.00  0.00    -0.214 NA
ATOM      4  C   UNL d   1     -41.397-123.135 -53.075  0.00  0.00     0.283 A 
ATOM      5  N   UNL d   1     -41.318-123.081 -52.238  0.00  0.00    -0.183 NA
ATOM      6  C   UNL d   1     -41.590-122.408 -51.850  0.00  0.00     0.198 A 
ATOM      7  S   UNL d   1     -42.343-121.305 -53.662  0.00  0.00    -0.068 SA
ATOM      8  C   UNL d   1     -41.894-122.410 -54.282  0.00  0.00     0.013 A 
ATOM      9  C   UNL d   1     -42.271-121.653 -54.407  0.00  0.00     0.031 A 
ATOM     10  O   UNL d   1     -41.123-123.817 -53.482  0.00  0.00    -0.265 OA
ATOM     11  C   UNL d   1     -41.747-122.890 -54.936  0.00  0.00     0.001 A 
ATOM     12  C   UNL d   1     -42.486-121.401 -55.166  0.00  0.00     0.006 A 
ATOM     13  C   UNL d   1     -41.963-122.638 -55.695  0.00  0.00     0.000 A 
ATOM     14  C   UNL d   1     -42.337-121.880 -55.797  0.00  0.00     0.001 A 
ENDROOT
BRANCH   6  15
ATOM     15  S   UNL d   1     -41.511-122.355 -51.018  0.00  0.00    -0.042 SA
BRANCH  15  16
ATOM     16  C   UNL d   1     -41.963-122.834 -50.539  0.00  0.00     0.107 C 
BRANCH  16  17
ATOM     17  C   UNL d   1     -41.847-122.817 -49.700  0.00  0.00     0.307 C 
ATOM     18  O   UNL d   1     -41.127-122.580 -49.384  0.00  0.00    -0.258 OA
BRANCH  17  19
ATOM     19  O   UNL d   1     -42.480-123.046 -49.187  0.00  0.00    -0.271 OA
BRANCH  19  20
ATOM     20  C   UNL d   1     -42.322-123.537 -48.538  0.00  0.00     0.126 C 
ATOM     21  C   UNL d   1     -42.897-123.674 -47.965  0.00  0.00     0.029 C 
ENDBRANCH  19  20
ENDBRANCH  17  19
ENDBRANCH  16  17
ENDBRANCH  15  16
ENDBRANCH   6  15
TORSDOF 5
ENDMDL
