MODEL 1
REMARK VINA RESULT:      -7.5      0.000      0.000
REMARK  5 active torsions:
REMARK  status: ('A' for Active; 'I' for Inactive)
REMARK    1  A    between atoms: C_5  and  N_1 
REMARK    2  A    between atoms: C_8  and  C_2 
REMARK    3  A    between atoms: C_7  and  C_5 
REMARK    4  A    between atoms: N_10  and  C_8 
REMARK       I    between atoms: C_9  and  N_10 
REMARK    5  A    between atoms: C_17  and  C_9 
ROOT
ATOM      1  N   UNL d   1     -47.654  13.098  23.165  0.00  0.00    -0.288 N 
ATOM      2  C   UNL d   1     -46.899  12.768  23.143  0.00  0.00     0.167 A 
ATOM      3  N   UNL d   1     -46.372  13.347  22.915  0.00  0.00    -0.225 NA
ATOM      4  C   UNL d   1     -47.584  13.892  22.945  0.00  0.00     0.083 A 
ATOM      5  C   UNL d   1     -46.791  14.041  22.792  0.00  0.00     0.099 A 
ATOM      6  C   UNL d   1     -48.144  14.493  22.867  0.00  0.00     0.019 A 
ATOM      7  C   UNL d   1     -46.544  14.797  22.557  0.00  0.00     0.021 A 
ATOM      8  C   UNL d   1     -47.895  15.246  22.633  0.00  0.00     0.002 A 
ATOM      9  C   UNL d   1     -47.104  15.399  22.479  0.00  0.00     0.002 A 
ENDROOT
BRANCH   1  10
ATOM     10  C   UNL d   1     -48.349  12.704  23.368  0.00  0.00     0.084 C 
BRANCH  10  11
ATOM     11  C   UNL d   1     -48.892  12.508  22.791  0.00  0.00     0.045 A 
ATOM     12  C   UNL d   1     -49.708  12.564  22.955  0.00  0.00     0.141 A 
ATOM     13  F   UNL d   1     -49.962  12.815  23.698  0.00  0.00    -0.204 F 
ATOM     14  C   UNL d   1     -50.265  12.367  22.374  0.00  0.00     0.030 A 
ATOM     15  C   UNL d   1     -50.015  12.113  21.625  0.00  0.00     0.002 A 
ATOM     16  C   UNL d   1     -49.193  12.062  21.472  0.00  0.00     0.000 A 
ATOM     17  C   UNL d   1     -48.643  12.257  22.048  0.00  0.00     0.004 A 
ENDBRANCH  10  11
ENDBRANCH   1  10
BRANCH   2  18
ATOM     18  C   UNL d   1     -46.712  11.983  23.323  0.00  0.00     0.140 C 
BRANCH  18  19
ATOM     19  N   UNL d   1     -45.925  11.773  23.456  0.00  0.00    -0.203 NA
ATOM     20  C   UNL d   1     -45.719  10.991  23.566  0.00  0.00     0.279 C 
ATOM     21  O   UNL d   1     -46.303  10.406  23.542  0.00  0.00    -0.265 OA
BRANCH  20  22
ATOM     22  C   UNL d   1     -44.941  10.780  23.698  0.00  0.00     0.062 C 
ATOM     23  C   UNL d   1     -44.726  10.000  23.697  0.00  0.00     0.005 C 
ENDBRANCH  20  22
ENDBRANCH  18  19
ENDBRANCH   2  18
TORSDOF 5
ENDMDL
MODEL 2
REMARK VINA RESULT:      -6.9      1.547      1.909
REMARK  5 active torsions:
REMARK  status: ('A' for Active; 'I' for Inactive)
REMARK    1  A    between atoms: C_5  and  N_1 
REMARK    2  A    between atoms: C_8  and  C_2 
REMARK    3  A    between atoms: C_7  and  C_5 
REMARK    4  A    between atoms: N_10  and  C_8 
REMARK       I    between atoms: C_9  and  N_10 
REMARK    5  A    between atoms: C_17  and  C_9 
ROOT
ATOM      1  N   UNL d   1     -48.156  13.569  22.181  0.00  0.00    -0.288 N 
ATOM      2  C   UNL d   1     -47.373  13.740  22.373  0.00  0.00     0.167 A 
ATOM      3  N   UNL d   1     -47.332  14.519  22.613  0.00  0.00    -0.225 NA
ATOM      4  C   UNL d   1     -48.598  14.255  22.306  0.00  0.00     0.083 A 
ATOM      5  C   UNL d   1     -48.086  14.839  22.573  0.00  0.00     0.099 A 
ATOM      6  C   UNL d   1     -49.402  14.418  22.210  0.00  0.00     0.019 A 
ATOM      7  C   UNL d   1     -48.370  15.598  22.749  0.00  0.00     0.021 A 
ATOM      8  C   UNL d   1     -49.682  15.176  22.386  0.00  0.00     0.002 A 
ATOM      9  C   UNL d   1     -49.173  15.762  22.653  0.00  0.00     0.002 A 
ENDROOT
BRANCH   1  10
ATOM     10  C   UNL d   1     -48.440  12.843  21.912  0.00  0.00     0.084 C 
BRANCH  10  11
ATOM     11  C   UNL d   1     -48.839  12.346  22.423  0.00  0.00     0.045 A 
ATOM     12  C   UNL d   1     -49.531  11.958  22.166  0.00  0.00     0.141 A 
ATOM     13  F   UNL d   1     -49.809  12.078  21.400  0.00  0.00    -0.204 F 
ATOM     14  C   UNL d   1     -49.941  11.452  22.680  0.00  0.00     0.030 A 
ATOM     15  C   UNL d   1     -49.664  11.329  23.451  0.00  0.00     0.002 A 
ATOM     16  C   UNL d   1     -48.968  11.724  23.698  0.00  0.00     0.000 A 
ATOM     17  C   UNL d   1     -48.564  12.224  23.190  0.00  0.00     0.004 A 
ENDBRANCH  10  11
ENDBRANCH   1  10
BRANCH   2  18
ATOM     18  C   UNL d   1     -46.740  13.211  22.329  0.00  0.00     0.140 C 
BRANCH  18  19
ATOM     19  N   UNL d   1     -45.991  13.489  22.120  0.00  0.00    -0.203 NA
ATOM     20  C   UNL d   1     -45.349  12.986  22.118  0.00  0.00     0.279 C 
ATOM     21  O   UNL d   1     -45.450  12.191  22.326  0.00  0.00    -0.265 OA
BRANCH  20  22
ATOM     22  C   UNL d   1     -44.607  13.257  21.912  0.00  0.00     0.062 C 
ATOM     23  C   UNL d   1     -43.996  12.736  21.815  0.00  0.00     0.005 C 
ENDBRANCH  20  22
ENDBRANCH  18  19
ENDBRANCH   2  18
TORSDOF 5
ENDMDL
MODEL 3
REMARK VINA RESULT:      -6.6      1.776      2.790
REMARK  5 active torsions:
REMARK  status: ('A' for Active; 'I' for Inactive)
REMARK    1  A    between atoms: C_5  and  N_1 
REMARK    2  A    between atoms: C_8  and  C_2 
REMARK    3  A    between atoms: C_7  and  C_5 
REMARK    4  A    between atoms: N_10  and  C_8 
REMARK       I    between atoms: C_9  and  N_10 
REMARK    5  A    between atoms: C_17  and  C_9 
ROOT
ATOM      1  N   UNL d   1     -48.306  13.120  23.294  0.00  0.00    -0.288 N 
ATOM      2  C   UNL d   1     -47.583  12.788  23.079  0.00  0.00     0.167 A 
ATOM      3  N   UNL d   1     -47.667  11.977  23.061  0.00  0.00    -0.225 NA
ATOM      4  C   UNL d   1     -48.839  12.499  23.409  0.00  0.00     0.083 A 
ATOM      5  C   UNL d   1     -48.441  11.796  23.264  0.00  0.00     0.099 A 
ATOM      6  C   UNL d   1     -49.635  12.490  23.628  0.00  0.00     0.019 A 
ATOM      7  C   UNL d   1     -48.833  11.069  23.335  0.00  0.00     0.021 A 
ATOM      8  C   UNL d   1     -50.024  11.764  23.698  0.00  0.00     0.002 A 
ATOM      9  C   UNL d   1     -49.629  11.058  23.554  0.00  0.00     0.002 A 
ENDROOT
BRANCH   1  10
ATOM     10  C   UNL d   1     -48.463  13.924  23.378  0.00  0.00     0.084 C 
BRANCH  10  11
ATOM     11  C   UNL d   1     -48.838  14.333  22.778  0.00  0.00     0.045 A 
ATOM     12  C   UNL d   1     -49.186  15.074  22.937  0.00  0.00     0.141 A 
ATOM     13  F   UNL d   1     -49.152  15.389  23.698  0.00  0.00    -0.204 F 
ATOM     14  C   UNL d   1     -49.568  15.494  22.333  0.00  0.00     0.030 A 
ATOM     15  C   UNL d   1     -49.605  15.179  21.566  0.00  0.00     0.002 A 
ATOM     16  C   UNL d   1     -49.251  14.435  21.419  0.00  0.00     0.000 A 
ATOM     17  C   UNL d   1     -48.874  14.021  22.017  0.00  0.00     0.004 A 
ENDBRANCH  10  11
ENDBRANCH   1  10
BRANCH   2  18
ATOM     18  C   UNL d   1     -46.892  13.209  22.910  0.00  0.00     0.140 C 
BRANCH  18  19
ATOM     19  N   UNL d   1     -46.222  12.803  22.648  0.00  0.00    -0.203 NA
ATOM     20  C   UNL d   1     -45.534  13.208  22.479  0.00  0.00     0.279 C 
ATOM     21  O   UNL d   1     -45.508  14.030  22.571  0.00  0.00    -0.265 OA
BRANCH  20  22
ATOM     22  C   UNL d   1     -44.869  12.810  22.220  0.00  0.00     0.062 C 
ATOM     23  C   UNL d   1     -44.343  13.176  21.727  0.00  0.00     0.005 C 
ENDBRANCH  20  22
ENDBRANCH  18  19
ENDBRANCH   2  18
TORSDOF 5
ENDMDL
MODEL 4
REMARK VINA RESULT:      -5.8      8.196      9.745
REMARK  5 active torsions:
REMARK  status: ('A' for Active; 'I' for Inactive)
REMARK    1  A    between atoms: C_5  and  N_1 
REMARK    2  A    between atoms: C_8  and  C_2 
REMARK    3  A    between atoms: C_7  and  C_5 
REMARK    4  A    between atoms: N_10  and  C_8 
REMARK       I    between atoms: C_9  and  N_10 
REMARK    5  A    between atoms: C_17  and  C_9 
ROOT
ATOM      1  N   UNL d   1     -39.416  14.440  18.580  0.00  0.00    -0.288 N 
ATOM      2  C   UNL d   1     -39.891  14.518  17.912  0.00  0.00     0.167 A 
ATOM      3  N   UNL d   1     -39.698  13.923  17.388  0.00  0.00    -0.225 NA
ATOM      4  C   UNL d   1     -38.925  13.785  18.461  0.00  0.00     0.083 A 
ATOM      5  C   UNL d   1     -39.103  13.470  17.724  0.00  0.00     0.099 A 
ATOM      6  C   UNL d   1     -38.341  13.441  18.932  0.00  0.00     0.019 A 
ATOM      7  C   UNL d   1     -38.698  12.802  17.445  0.00  0.00     0.021 A 
ATOM      8  C   UNL d   1     -37.940  12.775  18.651  0.00  0.00     0.002 A 
ATOM      9  C   UNL d   1     -38.114  12.457  17.915  0.00  0.00     0.002 A 
ENDROOT
BRANCH   1  10
ATOM     10  C   UNL d   1     -39.431  14.928  19.244  0.00  0.00     0.084 C 
BRANCH  10  11
ATOM     11  C   UNL d   1     -39.869  14.713  19.899  0.00  0.00     0.045 A 
ATOM     12  C   UNL d   1     -39.590  14.902  20.663  0.00  0.00     0.141 A 
ATOM     13  F   UNL d   1     -38.876  15.303  20.752  0.00  0.00    -0.204 F 
ATOM     14  C   UNL d   1     -40.030  14.688  21.332  0.00  0.00     0.030 A 
ATOM     15  C   UNL d   1     -40.749  14.285  21.247  0.00  0.00     0.002 A 
ATOM     16  C   UNL d   1     -41.018  14.101  20.475  0.00  0.00     0.000 A 
ATOM     17  C   UNL d   1     -40.583  14.313  19.814  0.00  0.00     0.004 A 
ENDBRANCH  10  11
ENDBRANCH   1  10
BRANCH   2  18
ATOM     18  C   UNL d   1     -40.464  15.102  17.795  0.00  0.00     0.140 C 
BRANCH  18  19
ATOM     19  N   UNL d   1     -40.684  15.308  17.026  0.00  0.00    -0.203 NA
ATOM     20  C   UNL d   1     -41.378  15.715  16.890  0.00  0.00     0.279 C 
ATOM     21  O   UNL d   1     -41.864  15.922  17.527  0.00  0.00    -0.265 OA
BRANCH  20  22
ATOM     22  C   UNL d   1     -41.599  15.921  16.131  0.00  0.00     0.062 C 
ATOM     23  C   UNL d   1     -42.305  15.666  15.830  0.00  0.00     0.005 C 
ENDBRANCH  20  22
ENDBRANCH  18  19
ENDBRANCH   2  18
TORSDOF 5
ENDMDL
MODEL 5
REMARK VINA RESULT:      -5.6      9.120     10.198
REMARK  5 active torsions:
REMARK  status: ('A' for Active; 'I' for Inactive)
REMARK    1  A    between atoms: C_5  and  N_1 
REMARK    2  A    between atoms: C_8  and  C_2 
REMARK    3  A    between atoms: C_7  and  C_5 
REMARK    4  A    between atoms: N_10  and  C_8 
REMARK       I    between atoms: C_9  and  N_10 
REMARK    5  A    between atoms: C_17  and  C_9 
ROOT
ATOM      1  N   UNL d   1     -38.635  14.252  18.298  0.00  0.00    -0.288 N 
ATOM      2  C   UNL d   1     -38.661  14.147  19.116  0.00  0.00     0.167 A 
ATOM      3  N   UNL d   1     -38.451  13.377  19.282  0.00  0.00    -0.225 NA
ATOM      4  C   UNL d   1     -38.406  13.532  17.963  0.00  0.00     0.083 A 
ATOM      5  C   UNL d   1     -38.293  12.995  18.574  0.00  0.00     0.099 A 
ATOM      6  C   UNL d   1     -38.287  13.303  17.179  0.00  0.00     0.019 A 
ATOM      7  C   UNL d   1     -38.059  12.216  18.410  0.00  0.00     0.021 A 
ATOM      8  C   UNL d   1     -38.053  12.526  17.018  0.00  0.00     0.002 A 
ATOM      9  C   UNL d   1     -37.940  11.986  17.626  0.00  0.00     0.002 A 
ENDROOT
BRANCH   1  10
ATOM     10  C   UNL d   1     -38.807  14.949  17.895  0.00  0.00     0.084 C 
BRANCH  10  11
ATOM     11  C   UNL d   1     -39.553  15.067  17.582  0.00  0.00     0.045 A 
ATOM     12  C   UNL d   1     -39.648  15.559  16.915  0.00  0.00     0.141 A 
ATOM     13  F   UNL d   1     -38.991  15.922  16.575  0.00  0.00    -0.204 F 
ATOM     14  C   UNL d   1     -40.402  15.683  16.592  0.00  0.00     0.030 A 
ATOM     15  C   UNL d   1     -41.065  15.319  16.932  0.00  0.00     0.002 A 
ATOM     16  C   UNL d   1     -40.956  14.828  17.601  0.00  0.00     0.000 A 
ATOM     17  C   UNL d   1     -40.211  14.706  17.919  0.00  0.00     0.004 A 
ENDBRANCH  10  11
ENDBRANCH   1  10
BRANCH   2  18
ATOM     18  C   UNL d   1     -38.864  14.726  19.669  0.00  0.00     0.140 C 
BRANCH  18  19
ATOM     19  N   UNL d   1     -38.831  14.549  20.474  0.00  0.00    -0.203 NA
ATOM     20  C   UNL d   1     -38.970  15.129  21.031  0.00  0.00     0.279 C 
ATOM     21  O   UNL d   1     -39.145  15.900  20.786  0.00  0.00    -0.265 OA
BRANCH  20  22
ATOM     22  C   UNL d   1     -38.938  14.957  21.829  0.00  0.00     0.062 C 
ATOM     23  C   UNL d   1     -39.095  15.533  22.375  0.00  0.00     0.005 C 
ENDBRANCH  20  22
ENDBRANCH  18  19
ENDBRANCH   2  18
TORSDOF 5
ENDMDL
MODEL 6
REMARK VINA RESULT:      -5.3      8.878     10.005
REMARK  5 active torsions:
REMARK  status: ('A' for Active; 'I' for Inactive)
REMARK    1  A    between atoms: C_5  and  N_1 
REMARK    2  A    between atoms: C_8  and  C_2 
REMARK    3  A    between atoms: C_7  and  C_5 
REMARK    4  A    between atoms: N_10  and  C_8 
REMARK       I    between atoms: C_9  and  N_10 
REMARK    5  A    between atoms: C_17  and  C_9 
ROOT
ATOM      1  N   UNL d   1     -39.621  15.356  17.973  0.00  0.00    -0.288 N 
ATOM      2  C   UNL d   1     -39.816  15.452  18.768  0.00  0.00     0.167 A 
ATOM      3  N   UNL d   1     -40.598  15.677  18.816  0.00  0.00    -0.225 NA
ATOM      4  C   UNL d   1     -40.298  15.525  17.530  0.00  0.00     0.083 A 
ATOM      5  C   UNL d   1     -40.899  15.723  18.054  0.00  0.00     0.099 A 
ATOM      6  C   UNL d   1     -40.439  15.524  16.717  0.00  0.00     0.019 A 
ATOM      7  C   UNL d   1     -41.653  15.922  17.773  0.00  0.00     0.021 A 
ATOM      8  C   UNL d   1     -41.192  15.723  16.438  0.00  0.00     0.002 A 
ATOM      9  C   UNL d   1     -41.795  15.920  16.959  0.00  0.00     0.002 A 
ENDROOT
BRANCH   1  10
ATOM     10  C   UNL d   1     -38.885  15.133  17.679  0.00  0.00     0.084 C 
BRANCH  10  11
ATOM     11  C   UNL d   1     -38.737  14.349  17.501  0.00  0.00     0.045 A 
ATOM     12  C   UNL d   1     -38.259  14.158  16.844  0.00  0.00     0.141 A 
ATOM     13  F   UNL d   1     -37.940  14.759  16.379  0.00  0.00    -0.204 F 
ATOM     14  C   UNL d   1     -38.104  13.365  16.658  0.00  0.00     0.030 A 
ATOM     15  C   UNL d   1     -38.423  12.758  17.123  0.00  0.00     0.002 A 
ATOM     16  C   UNL d   1     -38.901  12.963  17.780  0.00  0.00     0.000 A 
ATOM     17  C   UNL d   1     -39.053  13.746  17.963  0.00  0.00     0.004 A 
ENDBRANCH  10  11
ENDBRANCH   1  10
BRANCH   2  18
ATOM     18  C   UNL d   1     -39.302  15.340  19.406  0.00  0.00     0.140 C 
BRANCH  18  19
ATOM     19  N   UNL d   1     -39.588  15.414  20.177  0.00  0.00    -0.203 NA
ATOM     20  C   UNL d   1     -39.076  15.552  20.796  0.00  0.00     0.279 C 
ATOM     21  O   UNL d   1     -38.264  15.617  20.650  0.00  0.00    -0.265 OA
BRANCH  20  22
ATOM     22  C   UNL d   1     -39.355  15.626  21.560  0.00  0.00     0.062 C 
ATOM     23  C   UNL d   1     -39.168  15.071  22.117  0.00  0.00     0.005 C 
ENDBRANCH  20  22
ENDBRANCH  18  19
ENDBRANCH   2  18
TORSDOF 5
ENDMDL
MODEL 7
REMARK VINA RESULT:      -5.0      7.136      8.412
REMARK  5 active torsions:
REMARK  status: ('A' for Active; 'I' for Inactive)
REMARK    1  A    between atoms: C_5  and  N_1 
REMARK    2  A    between atoms: C_8  and  C_2 
REMARK    3  A    between atoms: C_7  and  C_5 
REMARK    4  A    between atoms: N_10  and  C_8 
REMARK       I    between atoms: C_9  and  N_10 
REMARK    5  A    between atoms: C_17  and  C_9 
ROOT
ATOM      1  N   UNL d   1     -40.276  14.951  20.172  0.00  0.00    -0.288 N 
ATOM      2  C   UNL d   1     -40.624  14.395  20.670  0.00  0.00     0.167 A 
ATOM      3  N   UNL d   1     -40.158  14.320  21.336  0.00  0.00    -0.225 NA
ATOM      4  C   UNL d   1     -39.587  15.220  20.542  0.00  0.00     0.083 A 
ATOM      5  C   UNL d   1     -39.519  14.827  21.260  0.00  0.00     0.099 A 
ATOM      6  C   UNL d   1     -39.017  15.771  20.312  0.00  0.00     0.019 A 
ATOM      7  C   UNL d   1     -38.877  14.980  21.762  0.00  0.00     0.021 A 
ATOM      8  C   UNL d   1     -38.378  15.922  20.815  0.00  0.00     0.002 A 
ATOM      9  C   UNL d   1     -38.306  15.532  21.534  0.00  0.00     0.002 A 
ENDROOT
BRANCH   1  10
ATOM     10  C   UNL d   1     -40.566  15.193  19.439  0.00  0.00     0.084 C 
BRANCH  10  11
ATOM     11  C   UNL d   1     -40.307  14.828  18.756  0.00  0.00     0.045 A 
ATOM     12  C   UNL d   1     -40.506  15.152  18.013  0.00  0.00     0.141 A 
ATOM     13  F   UNL d   1     -40.962  15.837  17.973  0.00  0.00    -0.204 F 
ATOM     14  C   UNL d   1     -40.246  14.787  17.316  0.00  0.00     0.030 A 
ATOM     15  C   UNL d   1     -39.787  14.097  17.353  0.00  0.00     0.002 A 
ATOM     16  C   UNL d   1     -39.594  13.782  18.104  0.00  0.00     0.000 A 
ATOM     17  C   UNL d   1     -39.851  14.144  18.793  0.00  0.00     0.004 A 
ENDBRANCH  10  11
ENDBRANCH   1  10
BRANCH   2  18
ATOM     18  C   UNL d   1     -41.324  13.984  20.518  0.00  0.00     0.140 C 
BRANCH  18  19
ATOM     19  N   UNL d   1     -41.787  13.721  21.149  0.00  0.00    -0.203 NA
ATOM     20  C   UNL d   1     -42.419  13.222  21.017  0.00  0.00     0.279 C 
ATOM     21  O   UNL d   1     -42.596  12.978  20.246  0.00  0.00    -0.265 OA
BRANCH  20  22
ATOM     22  C   UNL d   1     -42.879  12.959  21.639  0.00  0.00     0.062 C 
ATOM     23  C   UNL d   1     -43.574  12.571  21.495  0.00  0.00     0.005 C 
ENDBRANCH  20  22
ENDBRANCH  18  19
ENDBRANCH   2  18
TORSDOF 5
ENDMDL
