MODEL 1
REMARK VINA RESULT:      20.0      0.000      0.000
REMARK  5 active torsions:
REMARK  status: ('A' for Active; 'I' for Inactive)
REMARK    1  A    between atoms: C_10  and  C_3 
REMARK    2  A    between atoms: C_11  and  N_5 
REMARK    3  A    between atoms: O_17  and  C_10 
REMARK    4  A    between atoms: C_22  and  O_17 
REMARK    5  A    between atoms: O_21  and  C_18 
ROOT
ATOM      1  C   UNL d   1      46.305 -18.950  43.818  0.00  0.00     0.086 A 
ATOM      2  C   UNL d   1      46.455 -19.014  43.014  0.00  0.00     0.038 A 
ATOM      3  C   UNL d   1      46.418 -18.353  42.517  0.00  0.00     0.165 A 
ATOM      4  C   UNL d   1      46.113 -18.211  44.141  0.00  0.00     0.282 A 
ATOM      5  N   UNL d   1      46.074 -17.547  43.658  0.00  0.00    -0.194 N 
ATOM      6  N   UNL d   1      46.226 -17.618  42.847  0.00  0.00    -0.157 NA
ATOM      7  C   UNL d   1      46.386 -19.702  44.155  0.00  0.00     0.137 A 
ATOM      8  C   UNL d   1      46.630 -19.801  42.843  0.00  0.00     0.039 A 
ATOM      9  S   UNL d   1      46.586 -20.224  43.551  0.00  0.00    -0.066 SA
ATOM     10  O   UNL d   1      45.962 -18.138  44.945  0.00  0.00    -0.265 OA
ATOM     11  N   UNL d   1      46.284 -19.889  44.954  0.00  0.00    -0.141 N 
ENDROOT
BRANCH   5  12
ATOM     12  C   UNL d   1      45.883 -16.812  43.978  0.00  0.00     0.086 A 
ATOM     13  C   UNL d   1      45.242 -16.738  44.501  0.00  0.00     0.021 A 
ATOM     14  C   UNL d   1      45.056 -16.000  44.819  0.00  0.00     0.026 A 
ATOM     15  C   UNL d   1      45.503 -15.338  44.620  0.00  0.00     0.094 A 
ATOM     16  C   UNL d   1      46.143 -15.411  44.098  0.00  0.00     0.026 A 
ATOM     17  C   UNL d   1      46.329 -16.154  43.780  0.00  0.00     0.021 A 
BRANCH  15  18
ATOM     18  O   UNL d   1      45.311 -14.606  44.942  0.00  0.00    -0.328 OA
ATOM     19  C   UNL d   1      45.697 -13.922  44.673  0.00  0.00     0.181 C 
ENDBRANCH  15  18
ENDBRANCH   5  12
BRANCH   3  20
ATOM     20  C   UNL d   1      46.569 -18.421  41.711  0.00  0.00     0.320 C 
ATOM     21  O   UNL d   1      46.644 -17.740  41.244  0.00  0.00    -0.257 OA
BRANCH  20  22
ATOM     22  O   UNL d   1      46.647 -19.170  41.366  0.00  0.00    -0.270 OA
BRANCH  22  23
ATOM     23  C   UNL d   1      46.602 -19.253  40.551  0.00  0.00     0.126 C 
ATOM     24  C   UNL d   1      46.596 -20.001  40.205  0.00  0.00     0.029 C 
ENDBRANCH  22  23
ENDBRANCH  20  22
ENDBRANCH   3  20
TORSDOF 5
ENDMDL
