MODEL 1
REMARK VINA RESULT:      41.3      0.000      0.000
REMARK  4 active torsions:
REMARK  status: ('A' for Active; 'I' for Inactive)
REMARK    1  A    between atoms: N_5  and  C_2 
REMARK    2  A    between atoms: C_9  and  C_3 
REMARK       I    between atoms: C_7  and  N_5 
REMARK    3  A    between atoms: C_8  and  C_7 
REMARK    4  A    between atoms: O_16  and  C_13 
ROOT
ATOM      1  N   UNL d   1      13.848  12.982  -2.825  0.00  0.00    -0.200 NA
ATOM      2  C   UNL d   1      13.500  12.907  -3.564  0.00  0.00     0.216 A 
ATOM      3  C   UNL d   1      13.716  12.288  -2.404  0.00  0.00     0.172 A 
ATOM      4  N   UNL d   1      13.283  11.779  -2.888  0.00  0.00    -0.187 NA
ATOM      5  S   UNL d   1      13.152  12.164  -3.602  0.00  0.00     0.054 SA
ENDROOT
BRANCH   2   6
ATOM      6  N   UNL d   1      13.501  13.475  -4.162  0.00  0.00    -0.181 NA
ATOM      7  C   UNL d   1      13.534  14.269  -3.964  0.00  0.00     0.281 C 
ATOM      8  O   UNL d   1      13.566  14.501  -3.174  0.00  0.00    -0.265 OA
BRANCH   7   9
ATOM      9  C   UNL d   1      13.534  14.838  -4.562  0.00  0.00     0.058 A 
ATOM     10  C   UNL d   1      12.824  15.165  -4.820  0.00  0.00     0.007 A 
ATOM     11  C   UNL d   1      12.824  15.733  -5.418  0.00  0.00     0.024 A 
ATOM     12  C   UNL d   1      13.534  15.974  -5.758  0.00  0.00     0.094 A 
ATOM     13  C   UNL d   1      14.244  15.647  -5.500  0.00  0.00     0.024 A 
ATOM     14  C   UNL d   1      14.244  15.078  -4.902  0.00  0.00     0.007 A 
BRANCH  12  15
ATOM     15  O   UNL d   1      13.535  16.543  -6.356  0.00  0.00    -0.328 OA
ATOM     16  C   UNL d   1      12.969  17.140  -6.357  0.00  0.00     0.181 C 
ENDBRANCH  12  15
ENDBRANCH   7   9
ENDBRANCH   2   6
BRANCH   3  17
ATOM     17  C   UNL d   1      13.968  12.127  -1.642  0.00  0.00     0.036 A 
ATOM     18  C   UNL d   1      13.415  11.953  -1.056  0.00  0.00     0.003 A 
ATOM     19  C   UNL d   1      13.671  11.790  -0.280  0.00  0.00     0.000 A 
ATOM     20  C   UNL d   1      14.482  11.802  -0.098  0.00  0.00     0.000 A 
ATOM     21  C   UNL d   1      15.031  11.977  -0.693  0.00  0.00     0.000 A 
ATOM     22  C   UNL d   1      14.778  12.139  -1.460  0.00  0.00     0.003 A 
ENDBRANCH   3  17
TORSDOF 4
ENDMDL
