MODEL 1
REMARK VINA RESULT:     100.9      0.000      0.000
REMARK  7 active torsions:
REMARK  status: ('A' for Active; 'I' for Inactive)
REMARK    1  A    between atoms: N_10  and  C_4 
REMARK    2  A    between atoms: C_16  and  N_5 
REMARK    3  A    between atoms: C_18  and  N_11 
REMARK    4  A    between atoms: C_22  and  C_16 
REMARK    5  A    between atoms: C_21  and  C_18 
REMARK    6  A    between atoms: C_24  and  C_22 
REMARK    7  A    between atoms: C_23  and  C_24 
ROOT
ATOM      1  C   UNL d   1     -48.059  29.221  35.155  0.00  0.00     0.191 A 
ATOM      2  C   UNL d   1     -48.253  28.889  35.883  0.00  0.00     0.174 A 
ATOM      3  N   UNL d   1     -48.353  28.732  34.557  0.00  0.00    -0.042 NA
ATOM      4  C   UNL d   1     -48.728  28.099  34.935  0.00  0.00     0.722 A 
ATOM      5  N   UNL d   1     -48.671  28.189  35.751  0.00  0.00    -0.132 N 
ATOM      6  N   UNL d   1     -47.634  29.934  35.116  0.00  0.00    -0.239 N 
ATOM      7  C   UNL d   1     -47.401  30.321  35.831  0.00  0.00     0.358 A 
ATOM      8  N   UNL d   1     -47.595  29.989  36.560  0.00  0.00    -0.152 NA
ATOM      9  C   UNL d   1     -48.026  29.265  36.586  0.00  0.00     0.303 A 
ATOM     10  O   UNL d   1     -46.966  31.050  35.802  0.00  0.00    -0.244 OA
ATOM     11  O   UNL d   1     -48.223  28.930  37.322  0.00  0.00    -0.263 OA
ATOM     12  C   UNL d   1     -47.440  30.266  34.388  0.00  0.00     0.105 C 
ENDROOT
BRANCH   4  13
ATOM     13  N   UNL d   1     -49.104  27.471  34.549  0.00  0.00    -0.136 N 
ATOM     14  C   UNL d   1     -49.928  27.404  34.575  0.00  0.00     0.117 A 
ATOM     15  C   UNL d   1     -50.302  26.778  34.190  0.00  0.00     0.100 A 
ATOM     16  N   UNL d   1     -49.857  26.221  33.781  0.00  0.00    -0.300 N 
ATOM     17  C   UNL d   1     -49.030  26.278  33.748  0.00  0.00     0.100 A 
ATOM     18  C   UNL d   1     -48.652  26.909  34.137  0.00  0.00     0.117 A 
BRANCH  16  19
ATOM     19  C   UNL d   1     -49.814  25.538  33.323  0.00  0.00     0.080 C 
BRANCH  19  20
ATOM     20  C   UNL d   1     -50.412  24.977  33.364  0.00  0.00     0.018 A 
ATOM     21  C   UNL d   1     -51.191  25.216  33.409  0.00  0.00     0.002 A 
ATOM     22  C   UNL d   1     -51.792  24.656  33.450  0.00  0.00     0.000 A 
ATOM     23  C   UNL d   1     -51.606  23.855  33.445  0.00  0.00     0.000 A 
ATOM     24  C   UNL d   1     -50.818  23.617  33.399  0.00  0.00     0.000 A 
ATOM     25  C   UNL d   1     -50.224  24.179  33.359  0.00  0.00     0.002 A 
ENDBRANCH  19  20
ENDBRANCH  16  19
ENDBRANCH   4  13
BRANCH   5  26
ATOM     26  C   UNL d   1     -48.956  27.707  36.358  0.00  0.00     0.098 C 
BRANCH  26  27
ATOM     27  C   UNL d   1     -49.674  27.890  36.726  0.00  0.00     0.020 C 
BRANCH  27  28
ATOM     28  C   UNL d   1     -49.850  27.569  37.467  0.00  0.00     0.002 C 
BRANCH  28  29
ATOM     29  C   UNL d   1     -50.571  27.181  37.586  0.00  0.00     0.000 A 
ATOM     30  C   UNL d   1     -50.636  26.389  37.394  0.00  0.00     0.000 A 
ATOM     31  C   UNL d   1     -51.355  25.994  37.510  0.00  0.00     0.000 A 
ATOM     32  C   UNL d   1     -52.005  26.408  37.821  0.00  0.00     0.000 A 
ATOM     33  C   UNL d   1     -51.933  27.208  38.014  0.00  0.00     0.000 A 
ATOM     34  C   UNL d   1     -51.213  27.597  37.896  0.00  0.00     0.000 A 
ENDBRANCH  28  29
ENDBRANCH  27  28
ENDBRANCH  26  27
ENDBRANCH   5  26
TORSDOF 7
ENDMDL
MODEL 2
REMARK VINA RESULT:     103.7      0.914      1.312
REMARK  7 active torsions:
REMARK  status: ('A' for Active; 'I' for Inactive)
REMARK    1  A    between atoms: N_10  and  C_4 
REMARK    2  A    between atoms: C_16  and  N_5 
REMARK    3  A    between atoms: C_18  and  N_11 
REMARK    4  A    between atoms: C_22  and  C_16 
REMARK    5  A    between atoms: C_21  and  C_18 
REMARK    6  A    between atoms: C_24  and  C_22 
REMARK    7  A    between atoms: C_23  and  C_24 
ROOT
ATOM      1  C   UNL d   1     -48.202  28.126  34.895  0.00  0.00     0.191 A 
ATOM      2  C   UNL d   1     -48.845  28.291  35.384  0.00  0.00     0.174 A 
ATOM      3  N   UNL d   1     -48.411  27.508  34.388  0.00  0.00    -0.042 NA
ATOM      4  C   UNL d   1     -49.190  27.302  34.577  0.00  0.00     0.722 A 
ATOM      5  N   UNL d   1     -49.463  27.779  35.188  0.00  0.00    -0.132 N 
ATOM      6  N   UNL d   1     -47.497  28.558  34.966  0.00  0.00    -0.239 N 
ATOM      7  C   UNL d   1     -47.439  29.172  35.545  0.00  0.00     0.358 A 
ATOM      8  N   UNL d   1     -48.081  29.337  36.034  0.00  0.00    -0.152 NA
ATOM      9  C   UNL d   1     -48.793  28.891  35.953  0.00  0.00     0.303 A 
ATOM     10  O   UNL d   1     -46.722  29.619  35.626  0.00  0.00    -0.244 OA
ATOM     11  O   UNL d   1     -49.441  29.058  36.446  0.00  0.00    -0.263 OA
ATOM     12  C   UNL d   1     -46.854  28.393  34.477  0.00  0.00     0.105 C 
ENDROOT
BRANCH   4  13
ATOM     13  N   UNL d   1     -49.626  26.704  34.206  0.00  0.00    -0.136 N 
ATOM     14  C   UNL d   1     -50.229  26.902  33.676  0.00  0.00     0.117 A 
ATOM     15  C   UNL d   1     -50.664  26.307  33.306  0.00  0.00     0.100 A 
ATOM     16  N   UNL d   1     -50.498  25.517  33.464  0.00  0.00    -0.300 N 
ATOM     17  C   UNL d   1     -49.895  25.307  33.994  0.00  0.00     0.100 A 
ATOM     18  C   UNL d   1     -49.456  25.907  34.367  0.00  0.00     0.117 A 
BRANCH  16  19
ATOM     19  C   UNL d   1     -50.651  24.718  33.342  0.00  0.00     0.080 C 
BRANCH  19  20
ATOM     20  C   UNL d   1     -51.405  24.420  33.469  0.00  0.00     0.018 A 
ATOM     21  C   UNL d   1     -51.500  23.651  33.726  0.00  0.00     0.002 A 
ATOM     22  C   UNL d   1     -52.254  23.349  33.853  0.00  0.00     0.000 A 
ATOM     23  C   UNL d   1     -52.913  23.823  33.722  0.00  0.00     0.000 A 
ATOM     24  C   UNL d   1     -52.814  24.600  33.462  0.00  0.00     0.000 A 
ATOM     25  C   UNL d   1     -52.060  24.894  33.337  0.00  0.00     0.002 A 
ENDBRANCH  19  20
ENDBRANCH  16  19
ENDBRANCH   4  13
BRANCH   5  26
ATOM     26  C   UNL d   1     -50.197  27.786  35.567  0.00  0.00     0.098 C 
BRANCH  26  27
ATOM     27  C   UNL d   1     -50.415  27.152  36.053  0.00  0.00     0.020 C 
BRANCH  27  28
ATOM     28  C   UNL d   1     -51.099  27.205  36.515  0.00  0.00     0.002 C 
BRANCH  28  29
ATOM     29  C   UNL d   1     -51.130  26.820  37.247  0.00  0.00     0.000 A 
ATOM     30  C   UNL d   1     -51.700  26.248  37.374  0.00  0.00     0.000 A 
ATOM     31  C   UNL d   1     -51.738  25.857  38.104  0.00  0.00     0.000 A 
ATOM     32  C   UNL d   1     -51.195  26.051  38.701  0.00  0.00     0.000 A 
ATOM     33  C   UNL d   1     -50.620  26.630  38.567  0.00  0.00     0.000 A 
ATOM     34  C   UNL d   1     -50.588  27.016  37.837  0.00  0.00     0.000 A 
ENDBRANCH  28  29
ENDBRANCH  27  28
ENDBRANCH  26  27
ENDBRANCH   5  26
TORSDOF 7
ENDMDL
