MODEL 1
REMARK VINA RESULT:      -4.1      0.000      0.000
REMARK  6 active torsions:
REMARK  status: ('A' for Active; 'I' for Inactive)
REMARK    1  A    between atoms: N_2  and  S_1 
REMARK    2  A    between atoms: C_3  and  S_1 
REMARK    3  A    between atoms: C_4  and  C_9 
REMARK    4  A    between atoms: O_12  and  C_4 
REMARK    5  A    between atoms: C_19  and  O_12 
REMARK    6  A    between atoms: C_18  and  C_19 
ROOT
ATOM      1  C   UNL d   1     -42.657-122.557 -49.594  0.00  0.00     0.104 A 
ATOM      2  C   UNL d   1     -42.085-122.412 -50.181  0.00  0.00     0.018 A 
ATOM      3  C   UNL d   1     -42.322-122.088 -50.904  0.00  0.00     0.064 A 
ATOM      4  C   UNL d   1     -43.452-122.383 -49.725  0.00  0.00     0.013 A 
ATOM      5  C   UNL d   1     -43.122-121.912 -51.039  0.00  0.00     0.005 A 
ATOM      6  C   UNL d   1     -43.689-122.060 -50.448  0.00  0.00     0.001 A 
ENDROOT
BRANCH   3   7
ATOM      7  C   UNL d   1     -41.765-121.937 -51.500  0.00  0.00     0.300 C 
ATOM      8  O   UNL d   1     -41.149-121.402 -51.371  0.00  0.00    -0.259 OA
BRANCH   7   9
ATOM      9  O   UNL d   1     -41.833-122.326 -52.225  0.00  0.00    -0.271 OA
BRANCH   9  10
ATOM     10  C   UNL d   1     -41.311-122.148 -52.836  0.00  0.00     0.126 C 
BRANCH  10  11
ATOM     11  C   UNL d   1     -41.516-122.321 -53.608  0.00  0.00     0.027 A 
ATOM     12  C   UNL d   1     -41.884-121.755 -54.063  0.00  0.00     0.028 A 
ATOM     13  C   UNL d   1     -42.089-121.931 -54.839  0.00  0.00     0.119 A 
ATOM     14  O   UNL d   1     -42.462-121.480 -55.429  0.00  0.00    -0.300 OA
ATOM     15  C   UNL d   1     -41.927-122.669 -55.157  0.00  0.00     0.119 A 
ATOM     16  C   UNL d   1     -42.522-121.952 -56.103  0.00  0.00     0.304 A 
ATOM     17  O   UNL d   1     -42.193-122.684 -55.936  0.00  0.00    -0.300 OA
ATOM     18  C   UNL d   1     -41.555-123.241 -54.694  0.00  0.00     0.026 A 
ATOM     19  C   UNL d   1     -41.349-123.065 -53.918  0.00  0.00     0.004 A 
ENDBRANCH  10  11
ENDBRANCH   9  10
ENDBRANCH   7   9
ENDBRANCH   3   7
BRANCH   1  20
ATOM     20  S   UNL d   1     -42.420-122.881 -48.871  0.00  0.00     0.271 S 
ATOM     21  O   UNL d   1     -42.301-122.131 -48.533  0.00  0.00    -0.200 OA
ATOM     22  O   UNL d   1     -42.539-123.634 -49.205  0.00  0.00    -0.200 OA
BRANCH  20  23
ATOM     23  N   UNL d   1     -42.180-123.193 -48.138  0.00  0.00    -0.229 N 
ATOM     24  C   UNL d   1     -41.368-123.248 -47.961  0.00  0.00     0.092 A 
ATOM     25  C   UNL d   1     -41.141-123.560 -47.232  0.00  0.00     0.020 A 
ATOM     26  C   UNL d   1     -41.699-123.817 -46.676  0.00  0.00     0.003 A 
ATOM     27  C   UNL d   1     -42.499-123.759 -46.861  0.00  0.00     0.020 A 
ATOM     28  C   UNL d   1     -42.740-123.447 -47.593  0.00  0.00     0.092 A 
ENDBRANCH  20  23
ENDBRANCH   1  20
TORSDOF 6
ENDMDL
MODEL 2
REMARK VINA RESULT:      -2.1      2.023      6.056
REMARK  6 active torsions:
REMARK  status: ('A' for Active; 'I' for Inactive)
REMARK    1  A    between atoms: N_2  and  S_1 
REMARK    2  A    between atoms: C_3  and  S_1 
REMARK    3  A    between atoms: C_4  and  C_9 
REMARK    4  A    between atoms: O_12  and  C_4 
REMARK    5  A    between atoms: C_19  and  O_12 
REMARK    6  A    between atoms: C_18  and  C_19 
ROOT
ATOM      1  C   UNL d   1     -41.601-121.876 -52.868  0.00  0.00     0.104 A 
ATOM      2  C   UNL d   1     -41.556-122.540 -52.366  0.00  0.00     0.018 A 
ATOM      3  C   UNL d   1     -41.413-122.427 -51.560  0.00  0.00     0.064 A 
ATOM      4  C   UNL d   1     -41.505-121.113 -52.569  0.00  0.00     0.013 A 
ATOM      5  C   UNL d   1     -41.315-121.661 -51.257  0.00  0.00     0.005 A 
ATOM      6  C   UNL d   1     -41.361-121.001 -51.763  0.00  0.00     0.001 A 
ENDROOT
BRANCH   3   7
ATOM      7  C   UNL d   1     -41.364-123.077 -51.047  0.00  0.00     0.300 C 
ATOM      8  O   UNL d   1     -41.129-123.817 -51.329  0.00  0.00    -0.259 OA
BRANCH   7   9
ATOM      9  O   UNL d   1     -41.555-122.977 -50.249  0.00  0.00    -0.271 OA
BRANCH   9  10
ATOM     10  C   UNL d   1     -41.392-123.578 -49.711  0.00  0.00     0.126 C 
BRANCH  10  11
ATOM     11  C   UNL d   1     -41.652-123.513 -48.939  0.00  0.00     0.027 A 
ATOM     12  C   UNL d   1     -42.417-123.719 -48.754  0.00  0.00     0.028 A 
ATOM     13  C   UNL d   1     -42.677-123.653 -47.977  0.00  0.00     0.119 A 
ATOM     14  O   UNL d   1     -43.411-123.817 -47.623  0.00  0.00    -0.300 OA
ATOM     15  C   UNL d   1     -42.173-123.382 -47.390  0.00  0.00     0.119 A 
ATOM     16  C   UNL d   1     -43.344-123.643 -46.819  0.00  0.00     0.304 A 
ATOM     17  O   UNL d   1     -42.582-123.375 -46.676  0.00  0.00    -0.300 OA
ATOM     18  C   UNL d   1     -41.399-123.174 -47.580  0.00  0.00     0.026 A 
ATOM     19  C   UNL d   1     -41.139-123.240 -48.357  0.00  0.00     0.004 A 
ENDBRANCH  10  11
ENDBRANCH   9  10
ENDBRANCH   7   9
ENDBRANCH   3   7
BRANCH   1  20
ATOM     20  S   UNL d   1     -41.745-121.988 -53.674  0.00  0.00     0.271 S 
ATOM     21  O   UNL d   1     -42.319-121.387 -53.692  0.00  0.00    -0.200 OA
ATOM     22  O   UNL d   1     -41.171-122.590 -53.660  0.00  0.00    -0.200 OA
BRANCH  20  23
ATOM     23  N   UNL d   1     -41.899-122.090 -54.485  0.00  0.00    -0.229 N 
ATOM     24  C   UNL d   1     -41.718-121.477 -55.019  0.00  0.00     0.092 A 
ATOM     25  C   UNL d   1     -41.875-121.590 -55.821  0.00  0.00     0.020 A 
ATOM     26  C   UNL d   1     -42.207-122.294 -56.104  0.00  0.00     0.003 A 
ATOM     27  C   UNL d   1     -42.382-122.894 -55.568  0.00  0.00     0.020 A 
ATOM     28  C   UNL d   1     -42.228-122.792 -54.758  0.00  0.00     0.092 A 
ENDBRANCH  20  23
ENDBRANCH   1  20
TORSDOF 6
ENDMDL
