MODEL 1
REMARK VINA RESULT:       2.0      0.000      0.000
REMARK  2 active torsions:
REMARK  status: ('A' for Active; 'I' for Inactive)
REMARK    1  A    between atoms: C_6  and  C_2 
REMARK    2  A    between atoms: C_7  and  C_6 
ROOT
ATOM      1  N   UNL d   1      46.381 -13.419  44.536  0.00  0.00    -0.193 NA
ATOM      2  C   UNL d   1      45.183 -13.188  44.000  0.00  0.00     0.153 A 
ATOM      3  N   UNL d   1      45.187 -13.959  44.285  0.00  0.00    -0.306 N 
ATOM      4  C   UNL d   1      45.927 -14.102  44.616  0.00  0.00     0.147 A 
ATOM      5  C   UNL d   1      45.919 -12.847  44.152  0.00  0.00     0.276 A 
ATOM      6  C   UNL d   1      44.611 -14.557  44.287  0.00  0.00     0.077 A 
ATOM      7  C   UNL d   1      46.102 -14.845  44.954  0.00  0.00     0.037 A 
ATOM      8  O   UNL d   1      46.153 -12.080  43.959  0.00  0.00    -0.268 OA
ATOM      9  C   UNL d   1      44.780 -15.289  44.619  0.00  0.00     0.019 A 
ATOM     10  C   UNL d   1      45.529 -15.433  44.955  0.00  0.00     0.005 A 
ATOM     11  C   UNL d   1      44.423 -13.446  43.809  0.00  0.00     0.033 C 
ENDROOT
BRANCH   2  12
ATOM     12  C   UNL d   1      45.203 -12.407  43.721  0.00  0.00     0.128 C 
BRANCH  12  13
ATOM     13  C   UNL d   1      44.776 -12.206  43.045  0.00  0.00     0.188 C 
ATOM     14  O   UNL d   1      43.962 -12.097  43.081  0.00  0.00    -0.647 OA
ATOM     15  O   UNL d   1      45.173 -12.113  42.323  0.00  0.00    -0.647 OA
ENDBRANCH  12  13
ENDBRANCH   2  12
TORSDOF 2
ENDMDL
MODEL 2
REMARK VINA RESULT:       3.3      5.343      6.226
REMARK  2 active torsions:
REMARK  status: ('A' for Active; 'I' for Inactive)
REMARK    1  A    between atoms: C_6  and  C_2 
REMARK    2  A    between atoms: C_7  and  C_6 
ROOT
ATOM      1  N   UNL d   1      46.308 -18.156  43.320  0.00  0.00    -0.193 NA
ATOM      2  C   UNL d   1      46.523 -19.212  42.536  0.00  0.00     0.153 A 
ATOM      3  N   UNL d   1      46.498 -19.477  43.314  0.00  0.00    -0.306 N 
ATOM      4  C   UNL d   1      46.364 -18.824  43.799  0.00  0.00     0.147 A 
ATOM      5  C   UNL d   1      46.406 -18.395  42.532  0.00  0.00     0.276 A 
ATOM      6  C   UNL d   1      46.578 -20.231  43.650  0.00  0.00     0.077 A 
ATOM      7  C   UNL d   1      46.310 -18.917  44.626  0.00  0.00     0.037 A 
ATOM      8  O   UNL d   1      46.390 -17.905  41.869  0.00  0.00    -0.268 OA
ATOM      9  C   UNL d   1      46.526 -20.326  44.464  0.00  0.00     0.019 A 
ATOM     10  C   UNL d   1      46.391 -19.666  44.954  0.00  0.00     0.005 A 
ATOM     11  C   UNL d   1      46.647 -20.023  42.446  0.00  0.00     0.033 C 
ENDROOT
BRANCH   2  12
ATOM     12  C   UNL d   1      46.544 -18.920  41.760  0.00  0.00     0.128 C 
BRANCH  12  13
ATOM     13  C   UNL d   1      46.449 -19.440  41.127  0.00  0.00     0.188 C 
ATOM     14  O   UNL d   1      46.232 -19.162  40.385  0.00  0.00    -0.647 OA
ATOM     15  O   UNL d   1      46.573 -20.252  41.244  0.00  0.00    -0.647 OA
ENDBRANCH  12  13
ENDBRANCH   2  12
TORSDOF 2
ENDMDL
MODEL 3
REMARK VINA RESULT:       4.1      5.442      6.427
REMARK  2 active torsions:
REMARK  status: ('A' for Active; 'I' for Inactive)
REMARK    1  A    between atoms: C_6  and  C_2 
REMARK    2  A    between atoms: C_7  and  C_6 
ROOT
ATOM      1  N   UNL d   1      46.358 -18.089  42.770  0.00  0.00    -0.193 NA
ATOM      2  C   UNL d   1      46.531 -19.266  43.372  0.00  0.00     0.153 A 
ATOM      3  N   UNL d   1      46.540 -19.394  42.559  0.00  0.00    -0.306 N 
ATOM      4  C   UNL d   1      46.433 -18.667  42.187  0.00  0.00     0.147 A 
ATOM      5  C   UNL d   1      46.418 -18.460  43.509  0.00  0.00     0.276 A 
ATOM      6  C   UNL d   1      46.633 -20.081  42.103  0.00  0.00     0.077 A 
ATOM      7  C   UNL d   1      46.417 -18.617  41.354  0.00  0.00     0.037 A 
ATOM      8  O   UNL d   1      46.374 -18.090  44.245  0.00  0.00    -0.268 OA
ATOM      9  C   UNL d   1      46.618 -20.036  41.283  0.00  0.00     0.019 A 
ATOM     10  C   UNL d   1      46.509 -19.300  40.907  0.00  0.00     0.005 A 
ATOM     11  C   UNL d   1      46.646 -20.082  43.327  0.00  0.00     0.033 C 
ENDROOT
BRANCH   2  12
ATOM     12  C   UNL d   1      46.518 -19.111  44.186  0.00  0.00     0.128 C 
BRANCH  12  13
ATOM     13  C   UNL d   1      46.052 -19.578  44.681  0.00  0.00     0.188 C 
ATOM     14  O   UNL d   1      46.312 -20.320  44.922  0.00  0.00    -0.647 OA
ATOM     15  O   UNL d   1      45.316 -19.295  44.937  0.00  0.00    -0.647 OA
ENDBRANCH  12  13
ENDBRANCH   2  12
TORSDOF 2
ENDMDL
MODEL 4
REMARK VINA RESULT:       5.0      1.610      2.650
REMARK  2 active torsions:
REMARK  status: ('A' for Active; 'I' for Inactive)
REMARK    1  A    between atoms: C_6  and  C_2 
REMARK    2  A    between atoms: C_7  and  C_6 
ROOT
ATOM      1  N   UNL d   1      46.277 -13.177  43.915  0.00  0.00    -0.193 NA
ATOM      2  C   UNL d   1      45.206 -13.808  44.396  0.00  0.00     0.153 A 
ATOM      3  N   UNL d   1      44.948 -13.262  43.838  0.00  0.00    -0.306 N 
ATOM      4  C   UNL d   1      45.610 -12.873  43.540  0.00  0.00     0.147 A 
ATOM      5  C   UNL d   1      46.029 -13.761  44.449  0.00  0.00     0.276 A 
ATOM      6  C   UNL d   1      44.192 -13.065  43.557  0.00  0.00     0.077 A 
ATOM      7  C   UNL d   1      45.524 -12.281  42.958  0.00  0.00     0.037 A 
ATOM      8  O   UNL d   1      46.515 -14.210  44.941  0.00  0.00    -0.268 OA
ATOM      9  C   UNL d   1      44.105 -12.484  42.984  0.00  0.00     0.019 A 
ATOM     10  C   UNL d   1      44.774 -12.090  42.683  0.00  0.00     0.005 A 
ATOM     11  C   UNL d   1      44.389 -13.922  44.409  0.00  0.00     0.033 C 
ENDROOT
BRANCH   2  12
ATOM     12  C   UNL d   1      45.492 -14.350  44.955  0.00  0.00     0.128 C 
BRANCH  12  13
ATOM     13  C   UNL d   1      45.241 -15.135  44.924  0.00  0.00     0.188 C 
ATOM     14  O   UNL d   1      44.440 -15.319  44.912  0.00  0.00    -0.647 OA
ATOM     15  O   UNL d   1      45.805 -15.743  44.903  0.00  0.00    -0.647 OA
ENDBRANCH  12  13
ENDBRANCH   2  12
TORSDOF 2
ENDMDL
