MODEL 1
REMARK VINA RESULT:      57.2      0.000      0.000
REMARK  3 active torsions:
REMARK  status: ('A' for Active; 'I' for Inactive)
REMARK    1  A    between atoms: N_10  and  C_3 
REMARK    2  A    between atoms: C_13  and  C_5 
REMARK    3  A    between atoms: C_12  and  C_9 
ROOT
ATOM      1  N   UNL d   1      46.131 -17.988  42.426  0.00  0.00    -0.196 N 
ATOM      2  C   UNL d   1      46.057 -17.718  43.197  0.00  0.00     0.167 A 
ATOM      3  C   UNL d   1      46.326 -18.776  42.278  0.00  0.00     0.152 A 
ATOM      4  N   UNL d   1      45.982 -17.360  41.920  0.00  0.00    -0.163 NA
ATOM      5  C   UNL d   1      45.861 -16.921  43.171  0.00  0.00     0.055 A 
ATOM      6  N   UNL d   1      46.177 -18.230  43.832  0.00  0.00    -0.231 NA
ATOM      7  C   UNL d   1      46.446 -19.290  42.913  0.00  0.00     0.052 A 
ATOM      8  C   UNL d   1      45.814 -16.696  42.386  0.00  0.00     0.104 A 
ATOM      9  C   UNL d   1      46.372 -19.019  43.684  0.00  0.00     0.063 A 
ATOM     10  C   UNL d   1      45.631 -15.942  42.118  0.00  0.00     0.023 C 
ENDROOT
BRANCH   3  11
ATOM     11  N   UNL d   1      46.400 -19.046  41.507  0.00  0.00    -0.286 N 
ATOM     12  C   UNL d   1      46.564 -19.842  41.358  0.00  0.00     0.101 A 
ATOM     13  C   UNL d   1      46.638 -20.114  40.583  0.00  0.00     0.100 A 
ATOM     14  N   UNL d   1      46.549 -19.592  39.953  0.00  0.00    -0.299 N 
ATOM     15  C   UNL d   1      46.387 -18.799  40.097  0.00  0.00     0.100 A 
ATOM     16  C   UNL d   1      46.624 -19.864  39.177  0.00  0.00     0.100 C 
ATOM     17  C   UNL d   1      46.312 -18.527  40.872  0.00  0.00     0.101 A 
ENDBRANCH   3  11
BRANCH   9  18
ATOM     18  C   UNL d   1      46.497 -19.554  44.323  0.00  0.00     0.036 C 
ATOM     19  C   UNL d   1      46.621 -20.083  44.955  0.00  0.00     0.006 C 
ATOM     20  C   UNL d   1      46.578 -20.183  43.781  0.00  0.00     0.006 C 
ATOM     21  C   UNL d   1      46.416 -18.923  44.863  0.00  0.00     0.006 C 
ENDBRANCH   9  18
BRANCH   5  22
ATOM     22  C   UNL d   1      45.719 -16.365  43.763  0.00  0.00     0.004 A 
ATOM     23  C   UNL d   1      45.024 -16.397  44.215  0.00  0.00     0.000 A 
ATOM     24  C   UNL d   1      44.886 -15.840  44.805  0.00  0.00     0.000 A 
ATOM     25  C   UNL d   1      45.438 -15.242  44.954  0.00  0.00     0.000 A 
ATOM     26  C   UNL d   1      46.137 -15.208  44.500  0.00  0.00     0.000 A 
ATOM     27  C   UNL d   1      46.271 -15.769  43.910  0.00  0.00     0.000 A 
ENDBRANCH   5  22
TORSDOF 3
ENDMDL
