MODEL 1
REMARK VINA RESULT:      57.3      0.000      0.000
REMARK  4 active torsions:
REMARK  status: ('A' for Active; 'I' for Inactive)
REMARK    1  A    between atoms: C_8  and  C_1 
REMARK    2  A    between atoms: C_4  and  C_2 
REMARK    3  A    between atoms: O_16  and  C_8 
REMARK    4  A    between atoms: C_21  and  O_16 
ROOT
ATOM      1  C   UNL d   1     -58.318 -98.854 -44.271  0.00  0.00     0.099 A 
ATOM      2  C   UNL d   1     -57.612 -98.836 -43.846  0.00  0.00     0.096 A 
ATOM      3  C   UNL d   1     -59.049 -98.843 -43.861  0.00  0.00     0.093 A 
ATOM      4  C   UNL d   1     -58.351 -98.795 -42.618  0.00  0.00     0.369 A 
ATOM      5  N   UNL d   1     -59.060 -98.813 -43.034  0.00  0.00    -0.191 NA
ATOM      6  N   UNL d   1     -57.630 -98.807 -43.022  0.00  0.00    -0.191 NA
ATOM      7  O   UNL d   1     -58.362 -98.766 -41.790  0.00  0.00    -0.242 OA
ATOM      8  C   UNL d   1     -59.756 -98.860 -44.274  0.00  0.00     0.021 C 
ENDROOT
BRANCH   2   9
ATOM      9  C   UNL d   1     -56.899 -98.848 -44.245  0.00  0.00     0.057 A 
ATOM     10  C   UNL d   1     -56.186 -98.822 -43.831  0.00  0.00     0.005 A 
ATOM     11  C   UNL d   1     -55.465 -98.834 -44.236  0.00  0.00     0.000 A 
ATOM     12  C   UNL d   1     -56.201 -98.784 -43.002  0.00  0.00     0.000 A 
ATOM     13  C   UNL d   1     -54.755 -98.808 -43.813  0.00  0.00     0.000 A 
ATOM     14  C   UNL d   1     -55.453 -98.871 -45.056  0.00  0.00     0.003 A 
ATOM     15  C   UNL d   1     -54.766 -98.770 -42.990  0.00  0.00     0.000 A 
ATOM     16  C   UNL d   1     -55.487 -98.759 -42.586  0.00  0.00     0.000 A 
ATOM     17  C   UNL d   1     -56.163 -98.897 -45.479  0.00  0.00     0.042 A 
ATOM     18  C   UNL d   1     -56.913 -98.885 -45.058  0.00  0.00     0.197 A 
ATOM     19  O   UNL d   1     -56.799 -98.923 -45.914  0.00  0.00    -0.286 OA
ENDBRANCH   2   9
BRANCH   1  20
ATOM     20  C   UNL d   1     -58.295 -98.884 -45.093  0.00  0.00     0.303 C 
ATOM     21  O   UNL d   1     -57.574 -98.920 -45.483  0.00  0.00    -0.259 OA
BRANCH  20  22
ATOM     22  O   UNL d   1     -59.003 -98.876 -45.516  0.00  0.00    -0.271 OA
BRANCH  22  23
ATOM     23  C   UNL d   1     -59.135 -99.459 -46.079  0.00  0.00     0.126 C 
ATOM     24  C   UNL d   1     -59.875 -99.804 -46.151  0.00  0.00     0.029 C 
ENDBRANCH  22  23
ENDBRANCH  20  22
ENDBRANCH   1  20
TORSDOF 4
ENDMDL
