MODEL 1
REMARK VINA RESULT:      63.5      0.000      0.000
REMARK  3 active torsions:
REMARK  status: ('A' for Active; 'I' for Inactive)
REMARK    1  A    between atoms: C_10  and  C_1 
REMARK    2  A    between atoms: C_8  and  N_5 
REMARK    3  A    between atoms: N_9  and  C_10 
ROOT
ATOM      1  C   UNL d   1      59.501  49.708  51.086  0.00  0.00     0.084 C 
ENDROOT
BRANCH   1   2
ATOM      2  N   UNL d   1      59.985  49.082  50.849  0.00  0.00    -0.300 N 
ATOM      3  C   UNL d   1      60.591  49.212  50.309  0.00  0.00     0.100 A 
ATOM      4  C   UNL d   1      61.079  48.585  50.070  0.00  0.00     0.101 A 
ATOM      5  N   UNL d   1      60.954  47.830  50.377  0.00  0.00    -0.286 N 
ATOM      6  C   UNL d   1      60.340  47.692  50.926  0.00  0.00     0.101 A 
ATOM      7  C   UNL d   1      59.851  48.331  51.162  0.00  0.00     0.100 A 
BRANCH   5   8
ATOM      8  C   UNL d   1      61.426  47.197  50.152  0.00  0.00     0.148 A 
ATOM      9  N   UNL d   1      62.097  47.349  49.671  0.00  0.00    -0.227 NA
ATOM     10  C   UNL d   1      62.584  46.711  49.438  0.00  0.00     0.101 A 
ATOM     11  C   UNL d   1      62.398  45.946  49.682  0.00  0.00     0.021 A 
ATOM     12  C   UNL d   1      61.732  45.804  50.157  0.00  0.00     0.005 A 
ATOM     13  C   UNL d   1      61.250  46.429  50.390  0.00  0.00     0.037 A 
ENDBRANCH   5   8
ENDBRANCH   1   2
BRANCH   1  14
ATOM     14  C   UNL d   1      58.693  49.708  50.895  0.00  0.00     0.059 A 
ATOM     15  C   UNL d   1      58.455  49.708  50.090  0.00  0.00     0.214 A 
ATOM     16  C   UNL d   1      57.652  49.708  49.920  0.00  0.00     0.121 A 
ATOM     17  O   UNL d   1      59.015  49.708  49.492  0.00  0.00    -0.285 OA
ATOM     18  N   UNL d   1      57.413  49.708  49.132  0.00  0.00    -0.241 NA
ATOM     19  C   UNL d   1      57.094  49.708  50.515  0.00  0.00     0.032 A 
ATOM     20  C   UNL d   1      56.597  49.708  48.933  0.00  0.00     0.099 A 
ATOM     21  C   UNL d   1      56.034  49.708  49.534  0.00  0.00     0.021 A 
ATOM     22  C   UNL d   1      56.281  49.708  50.330  0.00  0.00     0.004 A 
ATOM     23  C   UNL d   1      57.320  49.708  51.302  0.00  0.00     0.059 A 
ATOM     24  C   UNL d   1      58.142  49.708  51.497  0.00  0.00     0.016 A 
ATOM     25 CL   UNL d   1      56.754  49.708  51.907  0.00  0.00    -0.082 Cl
ENDBRANCH   1  14
TORSDOF 3
ENDMDL
