MODEL 1
REMARK VINA RESULT:      -6.2      0.000      0.000
REMARK  7 active torsions:
REMARK  status: ('A' for Active; 'I' for Inactive)
REMARK    1  A    between atoms: N_5  and  S_1 
REMARK    2  A    between atoms: C_8  and  S_1 
REMARK    3  A    between atoms: C_2  and  C_11 
REMARK    4  A    between atoms: C_9  and  N_5 
REMARK    5  A    between atoms: C_10  and  C_9 
REMARK       I    between atoms: N_14  and  C_10 
REMARK    6  A    between atoms: C_24  and  N_14 
REMARK    7  A    between atoms: C_15  and  C_16 
ROOT
ATOM      1  C   UNL d   1     -44.737  12.883  22.014  0.00  0.00     0.299 C 
ATOM      2  N   UNL d   1     -45.091  13.031  22.730  0.00  0.00    -0.207 NA
ATOM      3  O   UNL d   1     -45.196  12.684  21.352  0.00  0.00    -0.263 OA
ENDROOT
BRANCH   1   4
ATOM      4  C   UNL d   1     -43.909  12.928  21.934  0.00  0.00     0.174 C 
BRANCH   4   5
ATOM      5  N   UNL d   1     -43.591  13.074  21.195  0.00  0.00    -0.152 NA
BRANCH   5   6
ATOM      6  S   UNL d   1     -42.808  13.354  21.133  0.00  0.00     0.285 S 
ATOM      7  O   UNL d   1     -42.589  12.651  20.761  0.00  0.00    -0.198 OA
ATOM      8  O   UNL d   1     -43.031  14.056  21.506  0.00  0.00    -0.198 OA
BRANCH   6   9
ATOM      9  C   UNL d   1     -42.034  13.635  21.075  0.00  0.00     0.105 A 
ATOM     10  C   UNL d   1     -41.440  13.307  21.532  0.00  0.00     0.013 A 
ATOM     11  C   UNL d   1     -40.666  13.587  21.473  0.00  0.00    -0.004 A 
ATOM     12  C   UNL d   1     -40.491  14.204  20.949  0.00  0.00    -0.023 A 
ATOM     13  C   UNL d   1     -41.096  14.534  20.487  0.00  0.00    -0.004 A 
ATOM     14  C   UNL d   1     -41.860  14.251  20.551  0.00  0.00     0.013 A 
BRANCH  12  15
ATOM     15  C   UNL d   1     -39.719  14.490  20.885  0.00  0.00     0.019 C 
ATOM     16  C   UNL d   1     -39.721  14.302  20.085  0.00  0.00     0.004 C 
ATOM     17  C   UNL d   1     -39.722  14.678  21.692  0.00  0.00     0.004 C 
ATOM     18  C   UNL d   1     -38.948  14.775  20.815  0.00  0.00     0.004 C 
ENDBRANCH  12  15
ENDBRANCH   6   9
ENDBRANCH   5   6
ENDBRANCH   4   5
ENDBRANCH   1   4
BRANCH   2  19
ATOM     19  C   UNL d   1     -45.912  12.985  22.802  0.00  0.00     0.085 A 
ATOM     20  C   UNL d   1     -46.247  12.325  23.160  0.00  0.00     0.019 A 
ATOM     21  C   UNL d   1     -47.075  12.264  23.240  0.00  0.00     0.004 A 
ATOM     22  C   UNL d   1     -47.560  12.867  22.959  0.00  0.00     0.024 A 
ATOM     23  C   UNL d   1     -47.224  13.530  22.599  0.00  0.00     0.004 A 
ATOM     24  C   UNL d   1     -46.404  13.594  22.518  0.00  0.00     0.019 A 
BRANCH  22  25
ATOM     25  C   UNL d   1     -48.382  12.794  23.044  0.00  0.00     0.111 A 
ATOM     26  N   UNL d   1     -48.871  13.430  23.213  0.00  0.00    -0.239 NA
ATOM     27  C   UNL d   1     -49.649  13.158  23.258  0.00  0.00     0.088 A 
ATOM     28  C   UNL d   1     -50.362  13.542  23.410  0.00  0.00     0.020 A 
ATOM     29  C   UNL d   1     -49.638  12.347  23.116  0.00  0.00     0.049 A 
ATOM     30  C   UNL d   1     -51.064  13.112  23.418  0.00  0.00     0.002 A 
ATOM     31  C   UNL d   1     -51.053  12.300  23.276  0.00  0.00     0.001 A 
ATOM     32  C   UNL d   1     -50.341  11.917  23.124  0.00  0.00     0.008 A 
ATOM     33  S   UNL d   1     -48.853  12.121  22.983  0.00  0.00    -0.066 SA
ENDBRANCH  22  25
ENDBRANCH   2  19
TORSDOF 7
ENDMDL
MODEL 2
REMARK VINA RESULT:      -5.0      1.868      8.139
REMARK  7 active torsions:
REMARK  status: ('A' for Active; 'I' for Inactive)
REMARK    1  A    between atoms: N_5  and  S_1 
REMARK    2  A    between atoms: C_8  and  S_1 
REMARK    3  A    between atoms: C_2  and  C_11 
REMARK    4  A    between atoms: C_9  and  N_5 
REMARK    5  A    between atoms: C_10  and  C_9 
REMARK       I    between atoms: N_14  and  C_10 
REMARK    6  A    between atoms: C_24  and  N_14 
REMARK    7  A    between atoms: C_15  and  C_16 
ROOT
ATOM      1  C   UNL d   1     -42.612  13.305  21.211  0.00  0.00     0.299 C 
ATOM      2  N   UNL d   1     -42.096  13.914  21.363  0.00  0.00    -0.207 NA
ATOM      3  O   UNL d   1     -42.556  12.875  20.503  0.00  0.00    -0.263 OA
ENDROOT
BRANCH   1   4
ATOM      4  C   UNL d   1     -43.203  13.102  21.762  0.00  0.00     0.174 C 
BRANCH   4   5
ATOM      5  N   UNL d   1     -43.817  12.619  21.523  0.00  0.00    -0.152 NA
BRANCH   5   6
ATOM      6  S   UNL d   1     -44.562  12.689  21.893  0.00  0.00     0.285 S 
ATOM      7  O   UNL d   1     -44.286  12.234  22.524  0.00  0.00    -0.198 OA
ATOM      8  O   UNL d   1     -44.833  13.142  21.259  0.00  0.00    -0.198 OA
BRANCH   6   9
ATOM      9  C   UNL d   1     -45.299  12.760  22.255  0.00  0.00     0.105 A 
ATOM     10  C   UNL d   1     -45.653  12.109  22.603  0.00  0.00     0.013 A 
ATOM     11  C   UNL d   1     -46.391  12.179  22.966  0.00  0.00    -0.004 A 
ATOM     12  C   UNL d   1     -46.774  12.912  22.978  0.00  0.00    -0.023 A 
ATOM     13  C   UNL d   1     -46.413  13.571  22.625  0.00  0.00    -0.004 A 
ATOM     14  C   UNL d   1     -45.682  13.492  22.267  0.00  0.00     0.013 A 
BRANCH  12  15
ATOM     15  C   UNL d   1     -47.512  12.991  23.339  0.00  0.00     0.019 C 
ATOM     16  C   UNL d   1     -47.602  13.727  22.986  0.00  0.00     0.004 C 
ATOM     17  C   UNL d   1     -47.418  12.248  23.694  0.00  0.00     0.004 C 
ATOM     18  C   UNL d   1     -48.250  13.075  23.698  0.00  0.00     0.004 C 
ENDBRANCH  12  15
ENDBRANCH   6   9
ENDBRANCH   5   6
ENDBRANCH   4   5
ENDBRANCH   1   4
BRANCH   2  19
ATOM     19  C   UNL d   1     -41.513  14.109  20.813  0.00  0.00     0.085 A 
ATOM     20  C   UNL d   1     -41.736  14.381  20.070  0.00  0.00     0.019 A 
ATOM     21  C   UNL d   1     -41.159  14.581  19.503  0.00  0.00     0.004 A 
ATOM     22  C   UNL d   1     -40.361  14.507  19.687  0.00  0.00     0.024 A 
ATOM     23  C   UNL d   1     -40.135  14.234  20.433  0.00  0.00     0.004 A 
ATOM     24  C   UNL d   1     -40.704  14.035  20.998  0.00  0.00     0.019 A 
BRANCH  22  25
ATOM     25  C   UNL d   1     -39.795  14.710  19.115  0.00  0.00     0.111 A 
ATOM     26  N   UNL d   1     -39.445  14.159  18.619  0.00  0.00    -0.239 NA
ATOM     27  C   UNL d   1     -38.914  14.552  18.123  0.00  0.00     0.088 A 
ATOM     28  C   UNL d   1     -38.415  14.287  17.524  0.00  0.00     0.020 A 
ATOM     29  C   UNL d   1     -38.938  15.353  18.317  0.00  0.00     0.049 A 
ATOM     30  C   UNL d   1     -37.940  14.824  17.120  0.00  0.00     0.002 A 
ATOM     31  C   UNL d   1     -37.963  15.625  17.314  0.00  0.00     0.001 A 
ATOM     32  C   UNL d   1     -38.462  15.890  17.913  0.00  0.00     0.008 A 
ATOM     33  S   UNL d   1     -39.484  15.450  18.931  0.00  0.00    -0.066 SA
ENDBRANCH  22  25
ENDBRANCH   2  19
TORSDOF 7
ENDMDL
