MODEL 1
REMARK VINA RESULT:      -5.5      0.000      0.000
REMARK  0 active torsions:
REMARK  status: ('A' for Active; 'I' for Inactive)
ROOT
ATOM      1  N   UNL d   1     -41.419-122.454 -53.201  0.00  0.00    -0.273 N 
ATOM      2  C   UNL d   1     -41.241-123.192 -52.913  0.00  0.00     0.068 A 
ATOM      3  C   UNL d   1     -41.481-122.334 -54.021  0.00  0.00     0.265 A 
ATOM      4  C   UNL d   1     -41.180-123.306 -52.099  0.00  0.00     0.035 A 
ATOM      5  C   UNL d   1     -41.537-121.823 -52.679  0.00  0.00     0.085 A 
ATOM      6  C   UNL d   1     -41.125-123.817 -53.441  0.00  0.00     0.018 A 
ATOM      7  N   UNL d   1     -41.248-122.726 -50.692  0.00  0.00    -0.242 NA
ATOM      8  C   UNL d   1     -41.296-122.681 -51.572  0.00  0.00     0.006 A 
ATOM      9  C   UNL d   1     -41.474-121.943 -51.861  0.00  0.00     0.037 A 
ATOM     10  C   UNL d   1     -41.186-123.705 -54.259  0.00  0.00     0.006 A 
ATOM     11  C   UNL d   1     -41.363-122.967 -54.547  0.00  0.00     0.061 A 
ATOM     12  O   UNL d   1     -41.660-121.592 -54.307  0.00  0.00    -0.267 OA
ATOM     13  C   UNL d   1     -41.123-123.403 -51.284  0.00  0.00     0.100 A 
ATOM     14  C   UNL d   1     -41.424-122.002 -51.042  0.00  0.00     0.100 A 
ENDROOT
TORSDOF 0
ENDMDL
MODEL 2
REMARK VINA RESULT:      -5.2      1.199      2.726
REMARK  0 active torsions:
REMARK  status: ('A' for Active; 'I' for Inactive)
ROOT
ATOM      1  N   UNL d   1     -41.596-122.397 -53.242  0.00  0.00    -0.273 N 
ATOM      2  C   UNL d   1     -41.562-123.072 -53.692  0.00  0.00     0.068 A 
ATOM      3  C   UNL d   1     -41.395-122.425 -52.436  0.00  0.00     0.265 A 
ATOM      4  C   UNL d   1     -41.763-123.038 -54.490  0.00  0.00     0.035 A 
ATOM      5  C   UNL d   1     -41.833-121.682 -53.585  0.00  0.00     0.085 A 
ATOM      6  C   UNL d   1     -41.325-123.782 -53.341  0.00  0.00     0.018 A 
ATOM      7  N   UNL d   1     -42.229-122.216 -55.684  0.00  0.00    -0.242 NA
ATOM      8  C   UNL d   1     -41.999-122.329 -54.840  0.00  0.00     0.006 A 
ATOM      9  C   UNL d   1     -42.034-121.654 -54.390  0.00  0.00     0.037 A 
ATOM     10  C   UNL d   1     -41.123-123.817 -52.539  0.00  0.00     0.006 A 
ATOM     11  C   UNL d   1     -41.157-123.142 -52.089  0.00  0.00     0.061 A 
ATOM     12  O   UNL d   1     -41.431-121.746 -51.988  0.00  0.00    -0.267 OA
ATOM     13  C   UNL d   1     -41.967-122.988 -55.286  0.00  0.00     0.100 A 
ATOM     14  C   UNL d   1     -42.245-121.566 -55.179  0.00  0.00     0.100 A 
ENDROOT
TORSDOF 0
ENDMDL
MODEL 3
REMARK VINA RESULT:      -5.1      0.817      1.471
REMARK  0 active torsions:
REMARK  status: ('A' for Active; 'I' for Inactive)
ROOT
ATOM      1  N   UNL d   1     -41.418-122.883 -53.569  0.00  0.00    -0.273 N 
ATOM      2  C   UNL d   1     -41.704-122.159 -53.339  0.00  0.00     0.068 A 
ATOM      3  C   UNL d   1     -41.411-123.089 -54.374  0.00  0.00     0.265 A 
ATOM      4  C   UNL d   1     -41.709-121.960 -52.539  0.00  0.00     0.035 A 
ATOM      5  C   UNL d   1     -41.134-123.416 -53.002  0.00  0.00     0.085 A 
ATOM      6  C   UNL d   1     -41.986-121.634 -53.911  0.00  0.00     0.018 A 
ATOM      7  N   UNL d   1     -41.401-122.344 -51.097  0.00  0.00    -0.242 NA
ATOM      8  C   UNL d   1     -41.428-122.486 -51.968  0.00  0.00     0.006 A 
ATOM      9  C   UNL d   1     -41.141-123.210 -52.198  0.00  0.00     0.037 A 
ATOM     10  C   UNL d   1     -41.982-121.832 -54.714  0.00  0.00     0.006 A 
ATOM     11  C   UNL d   1     -41.695-122.556 -54.945  0.00  0.00     0.061 A 
ATOM     12  O   UNL d   1     -41.122-123.817 -54.601  0.00  0.00    -0.267 OA
ATOM     13  C   UNL d   1     -41.707-121.777 -51.737  0.00  0.00     0.100 A 
ATOM     14  C   UNL d   1     -41.124-123.062 -51.390  0.00  0.00     0.100 A 
ENDROOT
TORSDOF 0
ENDMDL
MODEL 4
REMARK VINA RESULT:      -4.1      1.704      2.697
REMARK  0 active torsions:
REMARK  status: ('A' for Active; 'I' for Inactive)
ROOT
ATOM      1  N   UNL d   1     -41.761-123.084 -51.096  0.00  0.00    -0.273 N 
ATOM      2  C   UNL d   1     -41.915-122.373 -50.736  0.00  0.00     0.068 A 
ATOM      3  C   UNL d   1     -41.366-123.102 -51.826  0.00  0.00     0.265 A 
ATOM      4  C   UNL d   1     -42.308-122.361 -50.011  0.00  0.00     0.035 A 
ATOM      5  C   UNL d   1     -41.998-123.791 -50.735  0.00  0.00     0.085 A 
ATOM      6  C   UNL d   1     -41.675-121.672 -51.102  0.00  0.00     0.018 A 
ATOM      7  N   UNL d   1     -42.970-123.128 -48.874  0.00  0.00    -0.242 NA
ATOM      8  C   UNL d   1     -42.547-123.062 -49.646  0.00  0.00     0.006 A 
ATOM      9  C   UNL d   1     -42.393-123.773 -50.006  0.00  0.00     0.037 A 
ATOM     10  C   UNL d   1     -41.281-121.682 -51.830  0.00  0.00     0.006 A 
ATOM     11  C   UNL d   1     -41.127-122.393 -52.190  0.00  0.00     0.061 A 
ATOM     12  O   UNL d   1     -41.213-123.817 -52.184  0.00  0.00    -0.267 OA
ATOM     13  C   UNL d   1     -42.701-122.367 -49.288  0.00  0.00     0.100 A 
ATOM     14  C   UNL d   1     -42.786-123.817 -49.286  0.00  0.00     0.100 A 
ENDROOT
TORSDOF 0
ENDMDL
MODEL 5
REMARK VINA RESULT:      -4.0      2.595      3.577
REMARK  0 active torsions:
REMARK  status: ('A' for Active; 'I' for Inactive)
ROOT
ATOM      1  N   UNL d   1     -42.376-122.697 -49.723  0.00  0.00    -0.273 N 
ATOM      2  C   UNL d   1     -41.660-123.070 -49.638  0.00  0.00     0.068 A 
ATOM      3  C   UNL d   1     -42.564-122.322 -50.440  0.00  0.00     0.265 A 
ATOM      4  C   UNL d   1     -41.478-123.441 -48.925  0.00  0.00     0.035 A 
ATOM      5  C   UNL d   1     -42.918-122.692 -49.097  0.00  0.00     0.085 A 
ATOM      6  C   UNL d   1     -41.125-123.071 -50.268  0.00  0.00     0.018 A 
ATOM      7  N   UNL d   1     -41.890-123.814 -47.506  0.00  0.00    -0.242 NA
ATOM      8  C   UNL d   1     -42.013-123.440 -48.296  0.00  0.00     0.006 A 
ATOM      9  C   UNL d   1     -42.729-123.067 -48.382  0.00  0.00     0.037 A 
ATOM     10  C   UNL d   1     -41.305-122.699 -50.984  0.00  0.00     0.006 A 
ATOM     11  C   UNL d   1     -42.022-122.326 -51.070  0.00  0.00     0.061 A 
ATOM     12  O   UNL d   1     -43.284-121.949 -50.522  0.00  0.00    -0.267 OA
ATOM     13  C   UNL d   1     -41.312-123.807 -48.206  0.00  0.00     0.100 A 
ATOM     14  C   UNL d   1     -42.599-123.421 -47.652  0.00  0.00     0.100 A 
ENDROOT
TORSDOF 0
ENDMDL
MODEL 6
REMARK VINA RESULT:      -3.7      2.523      3.974
REMARK  0 active torsions:
REMARK  status: ('A' for Active; 'I' for Inactive)
ROOT
ATOM      1  N   UNL d   1     -41.841-123.045 -49.446  0.00  0.00    -0.273 N 
ATOM      2  C   UNL d   1     -42.533-122.717 -49.716  0.00  0.00     0.068 A 
ATOM      3  C   UNL d   1     -41.826-123.436 -48.714  0.00  0.00     0.265 A 
ATOM      4  C   UNL d   1     -42.543-122.330 -50.443  0.00  0.00     0.035 A 
ATOM      5  C   UNL d   1     -41.152-122.989 -49.901  0.00  0.00     0.085 A 
ATOM      6  C   UNL d   1     -43.217-122.777 -49.255  0.00  0.00     0.018 A 
ATOM      7  N   UNL d   1     -41.793-121.873 -51.688  0.00  0.00    -0.242 NA
ATOM      8  C   UNL d   1     -41.860-122.270 -50.903  0.00  0.00     0.006 A 
ATOM      9  C   UNL d   1     -41.167-122.598 -50.633  0.00  0.00     0.037 A 
ATOM     10  C   UNL d   1     -43.209-123.166 -48.525  0.00  0.00     0.006 A 
ATOM     11  C   UNL d   1     -42.517-123.493 -48.255  0.00  0.00     0.061 A 
ATOM     12  O   UNL d   1     -41.129-123.764 -48.447  0.00  0.00    -0.267 OA
ATOM     13  C   UNL d   1     -42.536-121.947 -51.172  0.00  0.00     0.100 A 
ATOM     14  C   UNL d   1     -41.123-122.224 -51.363  0.00  0.00     0.100 A 
ENDROOT
TORSDOF 0
ENDMDL
