MODEL 1
REMARK VINA RESULT:      -7.4      0.000      0.000
REMARK  2 active torsions:
REMARK  status: ('A' for Active; 'I' for Inactive)
REMARK    1  A    between atoms: N_4  and  C_2 
REMARK       I    between atoms: C_3  and  N_4 
REMARK    2  A    between atoms: C_5  and  C_3 
ROOT
ATOM      1  C   UNL d   1     -48.866  11.884  22.324  0.00  0.00     0.282 C 
ATOM      2  N   UNL d   1     -49.609  12.248  22.295  0.00  0.00    -0.182 NA
ATOM      3  O   UNL d   1     -48.810  11.069  22.200  0.00  0.00    -0.265 OA
ENDROOT
BRANCH   1   4
ATOM      4  C   UNL d   1     -48.195  12.343  22.478  0.00  0.00     0.069 A 
ATOM      5  C   UNL d   1     -47.772  12.206  23.166  0.00  0.00     0.063 A 
ATOM      6  C   UNL d   1     -47.101  12.661  23.323  0.00  0.00     0.023 A 
ATOM      7 CL   UNL d   1     -48.002  11.628  23.698  0.00  0.00    -0.082 Cl
ATOM      8  C   UNL d   1     -46.865  13.246  22.789  0.00  0.00     0.059 A 
ATOM      9  C   UNL d   1     -47.296  13.373  22.104  0.00  0.00     0.012 A 
ATOM     10 CL   UNL d   1     -46.183  13.705  22.954  0.00  0.00    -0.082 Cl
ATOM     11  C   UNL d   1     -47.961  12.916  21.957  0.00  0.00     0.006 A 
ENDBRANCH   1   4
BRANCH   2  12
ATOM     12  C   UNL d   1     -49.673  13.058  22.418  0.00  0.00     0.204 A 
ATOM     13  N   UNL d   1     -49.831  13.426  23.142  0.00  0.00    -0.203 NA
ATOM     14  C   UNL d   1     -49.848  14.251  23.019  0.00  0.00     0.174 A 
ATOM     15  S   UNL d   1     -49.698  14.374  22.212  0.00  0.00    -0.018 SA
ATOM     16  S   UNL d   1     -49.987  14.828  23.591  0.00  0.00    -0.050 SA
ATOM     17  S   UNL d   1     -49.586  13.619  21.823  0.00  0.00    -0.010 SA
ENDBRANCH   2  12
TORSDOF 2
ENDMDL
MODEL 2
REMARK VINA RESULT:      -7.1      1.409      1.701
REMARK  2 active torsions:
REMARK  status: ('A' for Active; 'I' for Inactive)
REMARK    1  A    between atoms: N_4  and  C_2 
REMARK       I    between atoms: C_3  and  N_4 
REMARK    2  A    between atoms: C_5  and  C_3 
ROOT
ATOM      1  C   UNL d   1     -50.254  12.057  23.371  0.00  0.00     0.282 C 
ATOM      2  N   UNL d   1     -50.737  12.657  23.671  0.00  0.00    -0.182 NA
ATOM      3  O   UNL d   1     -50.322  11.292  23.676  0.00  0.00    -0.265 OA
ENDROOT
BRANCH   1   4
ATOM      4  C   UNL d   1     -49.711  12.233  22.771  0.00  0.00     0.069 A 
ATOM      5  C   UNL d   1     -48.910  12.184  22.936  0.00  0.00     0.063 A 
ATOM      6  C   UNL d   1     -48.365  12.359  22.341  0.00  0.00     0.023 A 
ATOM      7 CL   UNL d   1     -48.642  11.965  23.678  0.00  0.00    -0.082 Cl
ATOM      8  C   UNL d   1     -48.631  12.581  21.591  0.00  0.00     0.059 A 
ATOM      9  C   UNL d   1     -49.434  12.627  21.438  0.00  0.00     0.012 A 
ATOM     10 CL   UNL d   1     -48.072  12.758  20.991  0.00  0.00    -0.082 Cl
ATOM     11  C   UNL d   1     -49.968  12.451  22.035  0.00  0.00     0.006 A 
ENDBRANCH   1   4
BRANCH   2  12
ATOM     12  C   UNL d   1     -50.675  13.420  23.372  0.00  0.00     0.204 A 
ATOM     13  N   UNL d   1     -50.222  14.031  23.698  0.00  0.00    -0.203 NA
ATOM     14  C   UNL d   1     -50.317  14.710  23.223  0.00  0.00     0.174 A 
ATOM     15  S   UNL d   1     -50.833  14.499  22.607  0.00  0.00    -0.018 SA
ATOM     16  S   UNL d   1     -49.965  15.445  23.344  0.00  0.00    -0.050 SA
ATOM     17  S   UNL d   1     -51.064  13.680  22.696  0.00  0.00    -0.010 SA
ENDBRANCH   2  12
TORSDOF 2
ENDMDL
MODEL 3
REMARK VINA RESULT:      -6.9      1.648      2.152
REMARK  2 active torsions:
REMARK  status: ('A' for Active; 'I' for Inactive)
REMARK    1  A    between atoms: N_4  and  C_2 
REMARK       I    between atoms: C_3  and  N_4 
REMARK    2  A    between atoms: C_5  and  C_3 
ROOT
ATOM      1  C   UNL d   1     -48.137  12.948  21.692  0.00  0.00     0.282 C 
ATOM      2  N   UNL d   1     -48.585  12.254  21.722  0.00  0.00    -0.182 NA
ATOM      3  O   UNL d   1     -47.394  12.935  21.330  0.00  0.00    -0.265 OA
ENDROOT
BRANCH   1   4
ATOM      4  C   UNL d   1     -48.440  13.643  22.026  0.00  0.00     0.069 A 
ATOM      5  C   UNL d   1     -48.063  13.965  22.677  0.00  0.00     0.063 A 
ATOM      6  C   UNL d   1     -48.362  14.658  23.014  0.00  0.00     0.023 A 
ATOM      7 CL   UNL d   1     -47.398  13.614  23.000  0.00  0.00    -0.082 Cl
ATOM      8  C   UNL d   1     -49.033  15.015  22.691  0.00  0.00     0.059 A 
ATOM      9  C   UNL d   1     -49.402  14.684  22.039  0.00  0.00     0.012 A 
ATOM     10 CL   UNL d   1     -49.332  15.719  23.037  0.00  0.00    -0.082 Cl
ATOM     11  C   UNL d   1     -49.097  13.996  21.712  0.00  0.00     0.006 A 
ENDBRANCH   1   4
BRANCH   2  12
ATOM     12  C   UNL d   1     -49.325  12.259  22.081  0.00  0.00     0.204 A 
ATOM     13  N   UNL d   1     -49.486  12.028  22.859  0.00  0.00    -0.203 NA
ATOM     14  C   UNL d   1     -50.303  12.120  22.996  0.00  0.00     0.174 A 
ATOM     15  S   UNL d   1     -50.632  12.410  22.291  0.00  0.00    -0.018 SA
ATOM     16  S   UNL d   1     -50.703  11.954  23.698  0.00  0.00    -0.050 SA
ATOM     17  S   UNL d   1     -50.015  12.501  21.705  0.00  0.00    -0.010 SA
ENDBRANCH   2  12
TORSDOF 2
ENDMDL
MODEL 4
REMARK VINA RESULT:      -6.9      1.967      2.701
REMARK  2 active torsions:
REMARK  status: ('A' for Active; 'I' for Inactive)
REMARK    1  A    between atoms: N_4  and  C_2 
REMARK       I    between atoms: C_3  and  N_4 
REMARK    2  A    between atoms: C_5  and  C_3 
ROOT
ATOM      1  C   UNL d   1     -49.515  11.657  23.242  0.00  0.00     0.282 C 
ATOM      2  N   UNL d   1     -48.716  11.759  23.428  0.00  0.00    -0.182 NA
ATOM      3  O   UNL d   1     -49.946  11.062  23.622  0.00  0.00    -0.265 OA
ENDROOT
BRANCH   1   4
ATOM      4  C   UNL d   1     -49.868  12.151  22.680  0.00  0.00     0.069 A 
ATOM      5  C   UNL d   1     -50.467  12.656  22.920  0.00  0.00     0.063 A 
ATOM      6  C   UNL d   1     -50.823  13.151  22.362  0.00  0.00     0.023 A 
ATOM      7 CL   UNL d   1     -50.719  12.678  23.698  0.00  0.00    -0.082 Cl
ATOM      8  C   UNL d   1     -50.572  13.132  21.575  0.00  0.00     0.059 A 
ATOM      9  C   UNL d   1     -49.972  12.623  21.348  0.00  0.00     0.012 A 
ATOM     10 CL   UNL d   1     -50.937  13.638  21.014  0.00  0.00    -0.082 Cl
ATOM     11  C   UNL d   1     -49.625  12.135  21.909  0.00  0.00     0.006 A 
ENDBRANCH   1   4
BRANCH   2  12
ATOM     12  C   UNL d   1     -48.281  12.348  23.055  0.00  0.00     0.204 A 
ATOM     13  N   UNL d   1     -48.156  13.113  23.345  0.00  0.00    -0.203 NA
ATOM     14  C   UNL d   1     -47.686  13.528  22.795  0.00  0.00     0.174 A 
ATOM     15  S   UNL d   1     -47.530  13.003  22.171  0.00  0.00    -0.018 SA
ATOM     16  S   UNL d   1     -47.429  14.308  22.861  0.00  0.00    -0.050 SA
ATOM     17  S   UNL d   1     -47.906  12.250  22.330  0.00  0.00    -0.010 SA
ENDBRANCH   2  12
TORSDOF 2
ENDMDL
MODEL 5
REMARK VINA RESULT:      -6.8      2.333      3.096
REMARK  2 active torsions:
REMARK  status: ('A' for Active; 'I' for Inactive)
REMARK    1  A    between atoms: N_4  and  C_2 
REMARK       I    between atoms: C_3  and  N_4 
REMARK    2  A    between atoms: C_5  and  C_3 
ROOT
ATOM      1  C   UNL d   1     -48.580  14.808  22.659  0.00  0.00     0.282 C 
ATOM      2  N   UNL d   1     -47.813  14.685  22.943  0.00  0.00    -0.182 NA
ATOM      3  O   UNL d   1     -48.905  15.568  22.689  0.00  0.00    -0.265 OA
ENDROOT
BRANCH   1   4
ATOM      4  C   UNL d   1     -49.007  14.170  22.351  0.00  0.00     0.069 A 
ATOM      5  C   UNL d   1     -49.671  13.908  22.753  0.00  0.00     0.063 A 
ATOM      6  C   UNL d   1     -50.101  13.271  22.449  0.00  0.00     0.023 A 
ATOM      7 CL   UNL d   1     -49.916  14.266  23.447  0.00  0.00    -0.082 Cl
ATOM      8  C   UNL d   1     -49.858  12.908  21.748  0.00  0.00     0.059 A 
ATOM      9  C   UNL d   1     -49.192  13.178  21.355  0.00  0.00     0.012 A 
ATOM     10 CL   UNL d   1     -50.298  12.261  21.445  0.00  0.00    -0.082 Cl
ATOM     11  C   UNL d   1     -48.772  13.811  21.665  0.00  0.00     0.006 A 
ENDBRANCH   1   4
BRANCH   2  12
ATOM     12  C   UNL d   1     -47.483  13.932  22.916  0.00  0.00     0.204 A 
ATOM     13  N   UNL d   1     -47.511  13.371  23.524  0.00  0.00    -0.203 NA
ATOM     14  C   UNL d   1     -47.109  12.687  23.267  0.00  0.00     0.174 A 
ATOM     15  S   UNL d   1     -46.839  12.844  22.498  0.00  0.00    -0.018 SA
ATOM     16  S   UNL d   1     -47.003  11.992  23.697  0.00  0.00    -0.050 SA
ATOM     17  S   UNL d   1     -47.074  13.635  22.269  0.00  0.00    -0.010 SA
ENDBRANCH   2  12
TORSDOF 2
ENDMDL
MODEL 6
REMARK VINA RESULT:      -6.8      1.864      2.373
REMARK  2 active torsions:
REMARK  status: ('A' for Active; 'I' for Inactive)
REMARK    1  A    between atoms: N_4  and  C_2 
REMARK       I    between atoms: C_3  and  N_4 
REMARK    2  A    between atoms: C_5  and  C_3 
ROOT
ATOM      1  C   UNL d   1     -46.522  11.920  23.436  0.00  0.00     0.282 C 
ATOM      2  N   UNL d   1     -47.172  11.408  23.410  0.00  0.00    -0.182 NA
ATOM      3  O   UNL d   1     -45.788  11.628  23.680  0.00  0.00    -0.265 OA
ENDROOT
BRANCH   1   4
ATOM      4  C   UNL d   1     -46.619  12.712  23.219  0.00  0.00     0.069 A 
ATOM      5  C   UNL d   1     -46.191  13.003  22.584  0.00  0.00     0.063 A 
ATOM      6  C   UNL d   1     -46.284  13.793  22.363  0.00  0.00     0.023 A 
ATOM      7 CL   UNL d   1     -45.673  12.526  22.167  0.00  0.00    -0.082 Cl
ATOM      8  C   UNL d   1     -46.806  14.278  22.781  0.00  0.00     0.059 A 
ATOM      9  C   UNL d   1     -47.229  13.976  23.414  0.00  0.00     0.012 A 
ATOM     10 CL   UNL d   1     -46.897  15.080  22.552  0.00  0.00    -0.082 Cl
ATOM     11  C   UNL d   1     -47.129  13.190  23.626  0.00  0.00     0.006 A 
ENDBRANCH   1   4
BRANCH   2  12
ATOM     12  C   UNL d   1     -47.905  11.691  23.169  0.00  0.00     0.204 A 
ATOM     13  N   UNL d   1     -48.191  11.691  22.392  0.00  0.00    -0.203 NA
ATOM     14  C   UNL d   1     -48.955  12.025  22.395  0.00  0.00     0.174 A 
ATOM     15  S   UNL d   1     -49.125  12.226  23.182  0.00  0.00    -0.018 SA
ATOM     16  S   UNL d   1     -49.444  12.133  21.740  0.00  0.00    -0.050 SA
ATOM     17  S   UNL d   1     -48.461  12.016  23.680  0.00  0.00    -0.010 SA
ENDBRANCH   2  12
TORSDOF 2
ENDMDL
MODEL 7
REMARK VINA RESULT:      -6.6      1.657      2.400
REMARK  2 active torsions:
REMARK  status: ('A' for Active; 'I' for Inactive)
REMARK    1  A    between atoms: N_4  and  C_2 
REMARK       I    between atoms: C_3  and  N_4 
REMARK    2  A    between atoms: C_5  and  C_3 
ROOT
ATOM      1  C   UNL d   1     -47.027  14.269  22.798  0.00  0.00     0.282 C 
ATOM      2  N   UNL d   1     -47.761  14.496  22.492  0.00  0.00    -0.182 NA
ATOM      3  O   UNL d   1     -46.442  14.842  22.915  0.00  0.00    -0.265 OA
ENDROOT
BRANCH   1   4
ATOM      4  C   UNL d   1     -46.892  13.474  22.981  0.00  0.00     0.069 A 
ATOM      5  C   UNL d   1     -46.270  13.085  22.616  0.00  0.00     0.063 A 
ATOM      6  C   UNL d   1     -46.131  12.290  22.796  0.00  0.00     0.023 A 
ATOM      7 CL   UNL d   1     -45.786  13.468  22.079  0.00  0.00    -0.082 Cl
ATOM      8  C   UNL d   1     -46.617  11.900  23.338  0.00  0.00     0.059 A 
ATOM      9  C   UNL d   1     -47.235  12.300  23.697  0.00  0.00     0.012 A 
ATOM     10 CL   UNL d   1     -46.471  11.093  23.517  0.00  0.00    -0.082 Cl
ATOM     11  C   UNL d   1     -47.366  13.088  23.512  0.00  0.00     0.006 A 
ENDBRANCH   1   4
BRANCH   2  12
ATOM     12  C   UNL d   1     -48.347  13.933  22.373  0.00  0.00     0.204 A 
ATOM     13  N   UNL d   1     -48.478  13.512  21.672  0.00  0.00    -0.203 NA
ATOM     14  C   UNL d   1     -49.125  13.000  21.791  0.00  0.00     0.174 A 
ATOM     15  S   UNL d   1     -49.381  13.117  22.572  0.00  0.00    -0.018 SA
ATOM     16  S   UNL d   1     -49.444  12.479  21.238  0.00  0.00    -0.050 SA
ATOM     17  S   UNL d   1     -48.891  13.709  22.948  0.00  0.00    -0.010 SA
ENDBRANCH   2  12
TORSDOF 2
ENDMDL
MODEL 8
REMARK VINA RESULT:      -5.8      1.267      2.047
REMARK  2 active torsions:
REMARK  status: ('A' for Active; 'I' for Inactive)
REMARK    1  A    between atoms: N_4  and  C_2 
REMARK       I    between atoms: C_3  and  N_4 
REMARK    2  A    between atoms: C_5  and  C_3 
ROOT
ATOM      1  C   UNL d   1     -48.089  13.052  22.114  0.00  0.00     0.282 C 
ATOM      2  N   UNL d   1     -48.157  13.868  22.000  0.00  0.00    -0.182 NA
ATOM      3  O   UNL d   1     -47.418  12.659  21.833  0.00  0.00    -0.265 OA
ENDROOT
BRANCH   1   4
ATOM      4  C   UNL d   1     -48.693  12.645  22.507  0.00  0.00     0.069 A 
ATOM      5  C   UNL d   1     -48.534  12.315  23.240  0.00  0.00     0.063 A 
ATOM      6  C   UNL d   1     -49.133  11.907  23.636  0.00  0.00     0.023 A 
ATOM      7 CL   UNL d   1     -47.795  12.382  23.585  0.00  0.00    -0.082 Cl
ATOM      8  C   UNL d   1     -49.881  11.837  23.291  0.00  0.00     0.059 A 
ATOM      9  C   UNL d   1     -50.027  12.171  22.557  0.00  0.00     0.012 A 
ATOM     10 CL   UNL d   1     -50.486  11.422  23.698  0.00  0.00    -0.082 Cl
ATOM     11  C   UNL d   1     -49.426  12.574  22.172  0.00  0.00     0.006 A 
ENDBRANCH   1   4
BRANCH   2  12
ATOM     12  C   UNL d   1     -48.821  14.266  22.277  0.00  0.00     0.204 A 
ATOM     13  N   UNL d   1     -48.878  14.666  22.999  0.00  0.00    -0.203 NA
ATOM     14  C   UNL d   1     -49.644  14.990  23.059  0.00  0.00     0.174 A 
ATOM     15  S   UNL d   1     -50.047  14.780  22.364  0.00  0.00    -0.018 SA
ATOM     16  S   UNL d   1     -49.940  15.432  23.689  0.00  0.00    -0.050 SA
ATOM     17  S   UNL d   1     -49.529  14.319  21.862  0.00  0.00    -0.010 SA
ENDBRANCH   2  12
TORSDOF 2
ENDMDL
