MODEL 1
REMARK VINA RESULT:      -3.8      0.000      0.000
REMARK  5 active torsions:
REMARK  status: ('A' for Active; 'I' for Inactive)
REMARK    1  A    between atoms: C_7  and  N_1 
REMARK       I    between atoms: C_4  and  N_8 
REMARK       I    between atoms: N_10  and  C_4 
REMARK    2  A    between atoms: N_8  and  C_5 
REMARK    3  A    between atoms: C_15  and  N_10 
REMARK    4  A    between atoms: O_18  and  C_14 
REMARK    5  A    between atoms: C_19  and  C_15 
ROOT
ATOM      1  N   UNL d   1      58.699  -1.109  29.618  0.00  0.00    -0.272 N 
ATOM      2  C   UNL d   1      58.494  -0.395  29.252  0.00  0.00     0.266 A 
ATOM      3  C   UNL d   1      57.931  -0.026  29.739  0.00  0.00     0.082 A 
ATOM      4  C   UNL d   1      57.795  -0.511  30.393  0.00  0.00     0.108 A 
ATOM      5  C   UNL d   1      58.273  -1.180  30.312  0.00  0.00     0.102 A 
ATOM      6  O   UNL d   1      58.790  -0.106  28.545  0.00  0.00    -0.267 OA
ENDROOT
BRANCH   1   7
ATOM      7  C   UNL d   1      59.243  -1.656  29.326  0.00  0.00     0.067 A 
ATOM      8  C   UNL d   1      60.053  -1.533  29.442  0.00  0.00     0.020 A 
ATOM      9  C   UNL d   1      60.597  -2.080  29.150  0.00  0.00     0.026 A 
ATOM     10  C   UNL d   1      60.335  -2.747  28.744  0.00  0.00     0.094 A 
ATOM     11  C   UNL d   1      59.531  -2.874  28.626  0.00  0.00     0.026 A 
ATOM     12  C   UNL d   1      58.981  -2.322  28.921  0.00  0.00     0.020 A 
BRANCH  10  13
ATOM     13  O   UNL d   1      60.886  -3.289  28.455  0.00  0.00    -0.328 OA
ATOM     14  C   UNL d   1      61.121  -3.919  28.931  0.00  0.00     0.181 C 
ENDBRANCH  10  13
ENDBRANCH   1   7
BRANCH   4  15
ATOM     15  N   UNL d   1      57.272  -0.350  31.014  0.00  0.00    -0.189 NA
ATOM     16  C   UNL d   1      57.457   0.235  31.559  0.00  0.00     0.369 C 
ATOM     17  N   UNL d   1      56.938   0.399  32.181  0.00  0.00    -0.189 NA
ATOM     18  O   UNL d   1      58.157   0.661  31.491  0.00  0.00    -0.242 OA
BRANCH  17  19
ATOM     19  C   UNL d   1      56.245  -0.025  32.245  0.00  0.00     0.104 C 
BRANCH  19  20
ATOM     20  C   UNL d   1      55.822  -0.028  32.954  0.00  0.00     0.019 C 
ATOM     21  C   UNL d   1      55.717  -0.725  33.378  0.00  0.00     0.002 C 
ATOM     22  C   UNL d   1      55.497   0.677  33.245  0.00  0.00     0.002 C 
ENDBRANCH  19  20
ENDBRANCH  17  19
ENDBRANCH   4  15
TORSDOF 5
ENDMDL
MODEL 2
REMARK VINA RESULT:      -3.7      2.012      2.524
REMARK  5 active torsions:
REMARK  status: ('A' for Active; 'I' for Inactive)
REMARK    1  A    between atoms: C_7  and  N_1 
REMARK       I    between atoms: C_4  and  N_8 
REMARK       I    between atoms: N_10  and  C_4 
REMARK    2  A    between atoms: N_8  and  C_5 
REMARK    3  A    between atoms: C_15  and  N_10 
REMARK    4  A    between atoms: O_18  and  C_14 
REMARK    5  A    between atoms: C_19  and  C_15 
ROOT
ATOM      1  N   UNL d   1      57.729  -0.392  30.631  0.00  0.00    -0.272 N 
ATOM      2  C   UNL d   1      57.428  -1.162  30.676  0.00  0.00     0.266 A 
ATOM      3  C   UNL d   1      56.876  -1.171  31.296  0.00  0.00     0.082 A 
ATOM      4  C   UNL d   1      56.842  -0.415  31.625  0.00  0.00     0.108 A 
ATOM      5  C   UNL d   1      57.373   0.063  31.209  0.00  0.00     0.102 A 
ATOM      6  O   UNL d   1      57.634  -1.796  30.199  0.00  0.00    -0.267 OA
ENDROOT
BRANCH   1   7
ATOM      7  C   UNL d   1      58.295  -0.132  30.091  0.00  0.00     0.067 A 
ATOM      8  C   UNL d   1      58.056   0.207  29.375  0.00  0.00     0.020 A 
ATOM      9  C   UNL d   1      58.622   0.467  28.835  0.00  0.00     0.026 A 
ATOM     10  C   UNL d   1      59.424   0.391  29.007  0.00  0.00     0.094 A 
ATOM     11  C   UNL d   1      59.667   0.055  29.718  0.00  0.00     0.026 A 
ATOM     12  C   UNL d   1      59.095  -0.209  30.264  0.00  0.00     0.020 A 
BRANCH  10  13
ATOM     13  O   UNL d   1      59.984   0.654  28.461  0.00  0.00    -0.328 OA
ATOM     14  C   UNL d   1      60.785   0.567  28.630  0.00  0.00     0.181 C 
ENDBRANCH  10  13
ENDBRANCH   1   7
BRANCH   4  15
ATOM     15  N   UNL d   1      56.361  -0.184  32.258  0.00  0.00    -0.189 NA
ATOM     16  C   UNL d   1      56.153  -0.733  32.831  0.00  0.00     0.369 C 
ATOM     17  N   UNL d   1      55.673  -0.507  33.465  0.00  0.00    -0.189 NA
ATOM     18  O   UNL d   1      56.419  -1.510  32.781  0.00  0.00    -0.242 OA
BRANCH  17  19
ATOM     19  C   UNL d   1      55.411   0.264  33.513  0.00  0.00     0.104 C 
BRANCH  19  20
ATOM     20  C   UNL d   1      55.003   0.526  34.181  0.00  0.00     0.019 C 
ATOM     21  C   UNL d   1      55.395   0.634  34.896  0.00  0.00     0.002 C 
ATOM     22  C   UNL d   1      54.191   0.682  34.134  0.00  0.00     0.002 C 
ENDBRANCH  19  20
ENDBRANCH  17  19
ENDBRANCH   4  15
TORSDOF 5
ENDMDL
MODEL 3
REMARK VINA RESULT:      -3.0      1.078      5.124
REMARK  5 active torsions:
REMARK  status: ('A' for Active; 'I' for Inactive)
REMARK    1  A    between atoms: C_7  and  N_1 
REMARK       I    between atoms: C_4  and  N_8 
REMARK       I    between atoms: N_10  and  C_4 
REMARK    2  A    between atoms: N_8  and  C_5 
REMARK    3  A    between atoms: C_15  and  N_10 
REMARK    4  A    between atoms: O_18  and  C_14 
REMARK    5  A    between atoms: C_19  and  C_15 
ROOT
ATOM      1  N   UNL d   1      57.445  -0.474  31.054  0.00  0.00    -0.272 N 
ATOM      2  C   UNL d   1      57.409  -0.019  30.363  0.00  0.00     0.266 A 
ATOM      3  C   UNL d   1      57.869  -0.409  29.792  0.00  0.00     0.082 A 
ATOM      4  C   UNL d   1      58.182  -1.093  30.132  0.00  0.00     0.108 A 
ATOM      5  C   UNL d   1      57.915  -1.128  30.914  0.00  0.00     0.102 A 
ATOM      6  O   UNL d   1      56.998   0.682  30.261  0.00  0.00    -0.267 OA
ENDROOT
BRANCH   1   7
ATOM      7  C   UNL d   1      57.067  -0.294  31.764  0.00  0.00     0.067 A 
ATOM      8  C   UNL d   1      56.372  -0.690  31.974  0.00  0.00     0.020 A 
ATOM      9  C   UNL d   1      55.994  -0.510  32.685  0.00  0.00     0.026 A 
ATOM     10  C   UNL d   1      56.308   0.065  33.185  0.00  0.00     0.094 A 
ATOM     11  C   UNL d   1      56.999   0.462  32.981  0.00  0.00     0.026 A 
ATOM     12  C   UNL d   1      57.380   0.280  32.264  0.00  0.00     0.020 A 
BRANCH  10  13
ATOM     13  O   UNL d   1      55.923   0.239  33.894  0.00  0.00    -0.328 OA
ATOM     14  C   UNL d   1      55.159   0.545  33.875  0.00  0.00     0.181 C 
ENDBRANCH  10  13
ENDBRANCH   1   7
BRANCH   4  15
ATOM     15  N   UNL d   1      58.672  -1.641  29.753  0.00  0.00    -0.189 NA
ATOM     16  C   UNL d   1      59.332  -1.378  29.341  0.00  0.00     0.369 C 
ATOM     17  N   UNL d   1      59.825  -1.922  28.961  0.00  0.00    -0.189 NA
ATOM     18  O   UNL d   1      59.507  -0.576  29.303  0.00  0.00    -0.242 OA
BRANCH  17  19
ATOM     19  C   UNL d   1      59.649  -2.717  29.001  0.00  0.00     0.104 C 
BRANCH  19  20
ATOM     20  C   UNL d   1      60.153  -3.273  28.658  0.00  0.00     0.019 C 
ATOM     21  C   UNL d   1      60.924  -3.073  28.457  0.00  0.00     0.002 C 
ATOM     22  C   UNL d   1      59.881  -4.042  28.512  0.00  0.00     0.002 C 
ENDBRANCH  19  20
ENDBRANCH  17  19
ENDBRANCH   4  15
TORSDOF 5
ENDMDL
MODEL 4
REMARK VINA RESULT:      -2.2      1.937      2.949
REMARK  5 active torsions:
REMARK  status: ('A' for Active; 'I' for Inactive)
REMARK    1  A    between atoms: C_7  and  N_1 
REMARK       I    between atoms: C_4  and  N_8 
REMARK       I    between atoms: N_10  and  C_4 
REMARK    2  A    between atoms: N_8  and  C_5 
REMARK    3  A    between atoms: C_15  and  N_10 
REMARK    4  A    between atoms: O_18  and  C_14 
REMARK    5  A    between atoms: C_19  and  C_15 
ROOT
ATOM      1  N   UNL d   1      57.283  -0.281  31.456  0.00  0.00    -0.272 N 
ATOM      2  C   UNL d   1      56.916  -1.021  31.518  0.00  0.00     0.266 A 
ATOM      3  C   UNL d   1      56.349  -0.960  32.121  0.00  0.00     0.082 A 
ATOM      4  C   UNL d   1      56.371  -0.193  32.423  0.00  0.00     0.108 A 
ATOM      5  C   UNL d   1      56.952   0.223  32.007  0.00  0.00     0.102 A 
ATOM      6  O   UNL d   1      57.081  -1.687  31.069  0.00  0.00    -0.267 OA
ENDROOT
BRANCH   1   7
ATOM      7  C   UNL d   1      57.884  -0.090  30.924  0.00  0.00     0.067 A 
ATOM      8  C   UNL d   1      58.443   0.486  31.125  0.00  0.00     0.020 A 
ATOM      9  C   UNL d   1      59.044   0.678  30.593  0.00  0.00     0.026 A 
ATOM     10  C   UNL d   1      59.088   0.297  29.864  0.00  0.00     0.094 A 
ATOM     11  C   UNL d   1      58.535  -0.277  29.660  0.00  0.00     0.026 A 
ATOM     12  C   UNL d   1      57.928  -0.471  30.197  0.00  0.00     0.020 A 
BRANCH  10  13
ATOM     13  O   UNL d   1      59.693   0.494  29.339  0.00  0.00    -0.328 OA
ATOM     14  C   UNL d   1      60.266  -0.067  29.153  0.00  0.00     0.181 C 
ENDBRANCH  10  13
ENDBRANCH   1   7
BRANCH   4  15
ATOM     15  N   UNL d   1      55.895   0.102  33.032  0.00  0.00    -0.189 NA
ATOM     16  C   UNL d   1      56.100  -0.043  33.813  0.00  0.00     0.369 C 
ATOM     17  N   UNL d   1      55.628   0.249  34.426  0.00  0.00    -0.189 NA
ATOM     18  O   UNL d   1      56.774  -0.478  33.993  0.00  0.00    -0.242 OA
BRANCH  17  19
ATOM     19  C   UNL d   1      54.959   0.679  34.244  0.00  0.00     0.104 C 
BRANCH  19  20
ATOM     20  C   UNL d   1      54.306   0.668  34.748  0.00  0.00     0.019 C 
ATOM     21  C   UNL d   1      53.542   0.644  34.444  0.00  0.00     0.002 C 
ATOM     22  C   UNL d   1      54.416   0.679  35.569  0.00  0.00     0.002 C 
ENDBRANCH  19  20
ENDBRANCH  17  19
ENDBRANCH   4  15
TORSDOF 5
ENDMDL
