MODEL 1
REMARK VINA RESULT:      -2.7      0.000      0.000
REMARK  3 active torsions:
REMARK  status: ('A' for Active; 'I' for Inactive)
REMARK    1  A    between atoms: C_11  and  C_8 
REMARK       I    between atoms: N_14  and  C_11 
REMARK    2  A    between atoms: C_20  and  N_14 
REMARK    3  A    between atoms: C_21  and  C_20 
ROOT
ATOM      1  C   UNL d   1      32.950  20.168 -23.023  0.00  0.00     0.154 A 
ATOM      2  C   UNL d   1      32.927  19.709 -22.338  0.00  0.00     0.093 A 
ATOM      3  N   UNL d   1      33.027  20.992 -22.964  0.00  0.00    -0.210 NA
ATOM      4  N   UNL d   1      33.056  20.892 -21.540  0.00  0.00    -0.258 N 
ATOM      5  C   UNL d   1      32.980  20.073 -21.594  0.00  0.00     0.269 A 
ATOM      6  N   UNL d   1      32.887  19.668 -23.671  0.00  0.00    -0.285 N 
ATOM      7  C   UNL d   1      33.079  21.351 -22.224  0.00  0.00     0.152 A 
ATOM      8  C   UNL d   1      32.824  18.897 -23.393  0.00  0.00     0.124 A 
ATOM      9  C   UNL d   1      32.849  18.926 -22.565  0.00  0.00     0.030 A 
ATOM     10  C   UNL d   1      33.109  21.249 -20.800  0.00  0.00     0.084 A 
ATOM     11  C   UNL d   1      33.155  22.169 -22.170  0.00  0.00     0.038 A 
ATOM     12  C   UNL d   1      33.185  22.068 -20.746  0.00  0.00     0.018 A 
ATOM     13  C   UNL d   1      33.208  22.528 -21.430  0.00  0.00     0.005 A 
ATOM     14  O   UNL d   1      32.957  19.614 -20.909  0.00  0.00    -0.266 OA
ATOM     15  C   UNL d   1      32.886  19.894 -24.469  0.00  0.00     0.101 C 
ATOM     16  C   UNL d   1      33.239  22.437 -19.999  0.00  0.00     0.002 C 
ENDROOT
BRANCH   8  17
ATOM     17  C   UNL d   1      32.750  18.219 -23.856  0.00  0.00     0.295 C 
ATOM     18  N   UNL d   1      32.178  17.652 -23.664  0.00  0.00    -0.203 NA
ATOM     19  O   UNL d   1      33.240  18.102 -24.507  0.00  0.00    -0.264 OA
BRANCH  18  20
ATOM     20  C   UNL d   1      32.101  16.972 -24.124  0.00  0.00     0.127 C 
BRANCH  20  21
ATOM     21  C   UNL d   1      31.487  16.443 -23.978  0.00  0.00     0.119 A 
ATOM     22  O   UNL d   1      31.235  16.060 -23.284  0.00  0.00    -0.304 OA
ATOM     23  C   UNL d   1      30.585  15.590 -23.477  0.00  0.00     0.123 A 
ATOM     24  C   UNL d   1      30.429  15.675 -24.276  0.00  0.00     0.029 A 
ATOM     25  C   UNL d   1      30.986  16.204 -24.594  0.00  0.00     0.028 A 
ENDBRANCH  20  21
ENDBRANCH  18  20
ENDBRANCH   8  17
TORSDOF 3
ENDMDL
MODEL 2
REMARK VINA RESULT:      -2.4      1.133      2.020
REMARK  3 active torsions:
REMARK  status: ('A' for Active; 'I' for Inactive)
REMARK    1  A    between atoms: C_11  and  C_8 
REMARK       I    between atoms: N_14  and  C_11 
REMARK    2  A    between atoms: C_20  and  N_14 
REMARK    3  A    between atoms: C_21  and  C_20 
ROOT
ATOM      1  C   UNL d   1      32.949  21.806 -21.758  0.00  0.00     0.154 A 
ATOM      2  C   UNL d   1      33.068  21.172 -21.242  0.00  0.00     0.093 A 
ATOM      3  N   UNL d   1      32.886  22.576 -21.456  0.00  0.00    -0.210 NA
ATOM      4  N   UNL d   1      33.059  22.076 -20.130  0.00  0.00    -0.258 N 
ATOM      5  C   UNL d   1      33.123  21.310 -20.425  0.00  0.00     0.269 A 
ATOM      6  N   UNL d   1      32.917  21.512 -22.524  0.00  0.00    -0.285 N 
ATOM      7  C   UNL d   1      32.941  22.709 -20.646  0.00  0.00     0.152 A 
ATOM      8  C   UNL d   1      33.014  20.697 -22.489  0.00  0.00     0.124 A 
ATOM      9  C   UNL d   1      33.108  20.489 -21.691  0.00  0.00     0.030 A 
ATOM     10  C   UNL d   1      33.115  22.208 -19.320  0.00  0.00     0.084 A 
ATOM     11  C   UNL d   1      32.878  23.475 -20.350  0.00  0.00     0.038 A 
ATOM     12  C   UNL d   1      33.051  22.975 -19.024  0.00  0.00     0.018 A 
ATOM     13  C   UNL d   1      32.933  23.608 -19.540  0.00  0.00     0.005 A 
ATOM     14  O   UNL d   1      33.241  20.676 -19.910  0.00  0.00    -0.266 OA
ATOM     15  C   UNL d   1      32.805  21.954 -23.217  0.00  0.00     0.101 C 
ATOM     16  C   UNL d   1      33.107  23.115 -18.204  0.00  0.00     0.002 C 
ENDROOT
BRANCH   8  17
ATOM     17  C   UNL d   1      33.018  20.180 -23.131  0.00  0.00     0.295 C 
ATOM     18  N   UNL d   1      32.797  19.390 -23.023  0.00  0.00    -0.203 NA
ATOM     19  O   UNL d   1      33.241  20.445 -23.878  0.00  0.00    -0.264 OA
BRANCH  18  20
ATOM     20  C   UNL d   1      32.800  18.869 -23.663  0.00  0.00     0.127 C 
BRANCH  20  21
ATOM     21  C   UNL d   1      32.501  18.107 -23.576  0.00  0.00     0.119 A 
ATOM     22  O   UNL d   1      32.650  17.510 -23.017  0.00  0.00    -0.304 OA
ATOM     23  C   UNL d   1      32.183  16.858 -23.213  0.00  0.00     0.123 A 
ATOM     24  C   UNL d   1      31.748  17.040 -23.882  0.00  0.00     0.029 A 
ATOM     25  C   UNL d   1      31.940  17.815 -24.114  0.00  0.00     0.028 A 
ENDBRANCH  20  21
ENDBRANCH  18  20
ENDBRANCH   8  17
TORSDOF 3
ENDMDL
MODEL 3
REMARK VINA RESULT:      -2.0      1.463      5.036
REMARK  3 active torsions:
REMARK  status: ('A' for Active; 'I' for Inactive)
REMARK    1  A    between atoms: C_11  and  C_8 
REMARK       I    between atoms: N_14  and  C_11 
REMARK    2  A    between atoms: C_20  and  N_14 
REMARK    3  A    between atoms: C_21  and  C_20 
ROOT
ATOM      1  C   UNL d   1      33.215  19.367 -23.874  0.00  0.00     0.154 A 
ATOM      2  C   UNL d   1      33.191  19.154 -23.077  0.00  0.00     0.093 A 
ATOM      3  N   UNL d   1      33.229  18.779 -24.458  0.00  0.00    -0.210 NA
ATOM      4  N   UNL d   1      33.196  17.770 -23.448  0.00  0.00    -0.258 N 
ATOM      5  C   UNL d   1      33.182  18.352 -22.865  0.00  0.00     0.269 A 
ATOM      6  N   UNL d   1      33.219  20.188 -23.921  0.00  0.00    -0.285 N 
ATOM      7  C   UNL d   1      33.220  17.983 -24.245  0.00  0.00     0.152 A 
ATOM      8  C   UNL d   1      33.199  20.487 -23.156  0.00  0.00     0.124 A 
ATOM      9  C   UNL d   1      33.181  19.843 -22.634  0.00  0.00     0.030 A 
ATOM     10  C   UNL d   1      33.187  16.975 -23.234  0.00  0.00     0.084 A 
ATOM     11  C   UNL d   1      33.234  17.402 -24.827  0.00  0.00     0.038 A 
ATOM     12  C   UNL d   1      33.202  16.393 -23.817  0.00  0.00     0.018 A 
ATOM     13  C   UNL d   1      33.225  16.607 -24.614  0.00  0.00     0.005 A 
ATOM     14  O   UNL d   1      33.159  18.138 -22.068  0.00  0.00    -0.266 OA
ATOM     15  C   UNL d   1      33.241  20.641 -24.615  0.00  0.00     0.101 C 
ATOM     16  C   UNL d   1      33.193  15.586 -23.606  0.00  0.00     0.002 C 
ENDROOT
BRANCH   8  17
ATOM     17  C   UNL d   1      33.196  21.285 -22.946  0.00  0.00     0.295 C 
ATOM     18  N   UNL d   1      33.152  21.498 -22.148  0.00  0.00    -0.203 NA
ATOM     19  O   UNL d   1      33.236  21.868 -23.526  0.00  0.00    -0.264 OA
BRANCH  18  20
ATOM     20  C   UNL d   1      33.149  22.295 -21.934  0.00  0.00     0.127 C 
BRANCH  20  21
ATOM     21  C   UNL d   1      32.943  22.515 -21.168  0.00  0.00     0.119 A 
ATOM     22  O   UNL d   1      33.241  22.292 -20.425  0.00  0.00    -0.304 OA
ATOM     23  C   UNL d   1      32.812  22.698 -19.848  0.00  0.00     0.123 A 
ATOM     24  C   UNL d   1      32.255  23.169 -20.220  0.00  0.00     0.029 A 
ATOM     25  C   UNL d   1      32.330  23.060 -21.041  0.00  0.00     0.028 A 
ENDBRANCH  20  21
ENDBRANCH  18  20
ENDBRANCH   8  17
TORSDOF 3
ENDMDL
MODEL 4
REMARK VINA RESULT:      -0.5      2.277      5.651
REMARK  3 active torsions:
REMARK  status: ('A' for Active; 'I' for Inactive)
REMARK    1  A    between atoms: C_11  and  C_8 
REMARK       I    between atoms: N_14  and  C_11 
REMARK    2  A    between atoms: C_20  and  N_14 
REMARK    3  A    between atoms: C_21  and  C_20 
ROOT
ATOM      1  C   UNL d   1      30.352  16.591 -23.632  0.00  0.00     0.154 A 
ATOM      2  C   UNL d   1      29.987  16.906 -24.301  0.00  0.00     0.093 A 
ATOM      3  N   UNL d   1      29.907  16.148 -23.089  0.00  0.00    -0.210 NA
ATOM      4  N   UNL d   1      28.738  16.340 -23.886  0.00  0.00    -0.258 N 
ATOM      5  C   UNL d   1      29.176  16.779 -24.427  0.00  0.00     0.269 A 
ATOM      6  N   UNL d   1      31.146  16.800 -23.649  0.00  0.00    -0.285 N 
ATOM      7  C   UNL d   1      29.103  16.024 -23.217  0.00  0.00     0.152 A 
ATOM      8  C   UNL d   1      31.277  17.246 -24.327  0.00  0.00     0.124 A 
ATOM      9  C   UNL d   1      30.556  17.310 -24.730  0.00  0.00     0.030 A 
ATOM     10  C   UNL d   1      27.934  16.216 -24.014  0.00  0.00     0.084 A 
ATOM     11  C   UNL d   1      28.665  15.585 -22.676  0.00  0.00     0.038 A 
ATOM     12  C   UNL d   1      27.496  15.776 -23.472  0.00  0.00     0.018 A 
ATOM     13  C   UNL d   1      27.861  15.461 -22.804  0.00  0.00     0.005 A 
ATOM     14  O   UNL d   1      28.810  17.095 -25.096  0.00  0.00    -0.266 OA
ATOM     15  C   UNL d   1      31.720  16.601 -23.085  0.00  0.00     0.101 C 
ATOM     16  C   UNL d   1      26.681  15.648 -23.597  0.00  0.00     0.002 C 
ENDROOT
BRANCH   8  17
ATOM     17  C   UNL d   1      31.998  17.570 -24.563  0.00  0.00     0.295 C 
ATOM     18  N   UNL d   1      32.235  18.305 -24.263  0.00  0.00    -0.203 NA
ATOM     19  O   UNL d   1      32.482  17.168 -25.094  0.00  0.00    -0.264 OA
BRANCH  18  20
ATOM     20  C   UNL d   1      32.955  18.632 -24.497  0.00  0.00     0.127 C 
BRANCH  20  21
ATOM     21  C   UNL d   1      33.059  19.449 -24.485  0.00  0.00     0.119 A 
ATOM     22  O   UNL d   1      33.099  20.015 -25.092  0.00  0.00    -0.304 OA
ATOM     23  C   UNL d   1      33.211  20.754 -24.743  0.00  0.00     0.123 A 
ATOM     24  C   UNL d   1      33.241  20.657 -23.930  0.00  0.00     0.029 A 
ATOM     25  C   UNL d   1      33.147  19.848 -23.762  0.00  0.00     0.028 A 
ENDBRANCH  20  21
ENDBRANCH  18  20
ENDBRANCH   8  17
TORSDOF 3
ENDMDL
