MODEL 1
REMARK VINA RESULT:      -5.2      0.000      0.000
REMARK  3 active torsions:
REMARK  status: ('A' for Active; 'I' for Inactive)
REMARK    1  A    between atoms: C_16  and  C_4 
REMARK    2  A    between atoms: C_10  and  O_14 
REMARK    3  A    between atoms: O_14  and  C_16 
ROOT
ATOM      1  C   UNL d   1      59.995  -1.357  28.871  0.00  0.00     0.030 A 
ATOM      2  C   UNL d   1      59.534  -0.800  29.237  0.00  0.00     0.105 A 
ATOM      3  C   UNL d   1      58.818  -1.032  29.578  0.00  0.00     0.118 A 
ATOM      4  N   UNL d   1      59.759  -0.012  29.277  0.00  0.00    -0.242 NA
ATOM      5  C   UNL d   1      59.770  -2.140  28.831  0.00  0.00     0.059 A 
ATOM      6  C   UNL d   1      58.573  -1.809  29.551  0.00  0.00     0.027 A 
ATOM      7  C   UNL d   1      59.050  -2.374  29.174  0.00  0.00     0.013 A 
ATOM      8 CL   UNL d   1      60.248  -2.704  28.455  0.00  0.00    -0.082 Cl
ATOM      9  C   UNL d   1      60.709  -1.129  28.530  0.00  0.00     0.004 A 
ATOM     10  C   UNL d   1      60.479   0.222  28.934  0.00  0.00     0.099 A 
ATOM     11  C   UNL d   1      60.956  -0.342  28.558  0.00  0.00     0.021 A 
ENDROOT
BRANCH   3  12
ATOM     12  O   UNL d   1      58.340  -0.469  29.954  0.00  0.00    -0.302 OA
BRANCH  12  13
ATOM     13  C   UNL d   1      57.861   0.090  30.338  0.00  0.00     0.144 C 
BRANCH  13  14
ATOM     14  C   UNL d   1      57.431  -0.128  31.013  0.00  0.00     0.142 A 
ATOM     15  N   UNL d   1      57.040  -0.819  31.122  0.00  0.00    -0.057 NA
ATOM     16  C   UNL d   1      56.698  -0.804  31.851  0.00  0.00     0.735 A 
ATOM     17  N   UNL d   1      56.890  -0.072  32.202  0.00  0.00    -0.136 N 
ATOM     18  N   UNL d   1      56.233  -1.344  32.270  0.00  0.00    -0.059 NA
ATOM     19  C   UNL d   1      57.339   0.335  31.682  0.00  0.00     0.120 A 
ATOM     20  C   UNL d   1      56.616   0.103  32.957  0.00  0.00     0.100 A 
ATOM     21  C   UNL d   1      56.155  -0.434  33.367  0.00  0.00     0.041 A 
ATOM     22  C   UNL d   1      55.961  -1.168  33.019  0.00  0.00     0.119 A 
ENDBRANCH  13  14
ENDBRANCH  12  13
ENDBRANCH   3  12
TORSDOF 3
ENDMDL
MODEL 2
REMARK VINA RESULT:      -4.9      1.318      2.090
REMARK  3 active torsions:
REMARK  status: ('A' for Active; 'I' for Inactive)
REMARK    1  A    between atoms: C_16  and  C_4 
REMARK    2  A    between atoms: C_10  and  O_14 
REMARK    3  A    between atoms: O_14  and  C_16 
ROOT
ATOM      1  C   UNL d   1      58.848  -0.632  29.350  0.00  0.00     0.030 A 
ATOM      2  C   UNL d   1      58.351  -0.975  29.890  0.00  0.00     0.105 A 
ATOM      3  C   UNL d   1      57.909  -0.491  30.392  0.00  0.00     0.118 A 
ATOM      4  N   UNL d   1      58.275  -1.790  29.950  0.00  0.00    -0.242 NA
ATOM      5  C   UNL d   1      58.923   0.178  29.291  0.00  0.00     0.059 A 
ATOM      6  C   UNL d   1      57.966   0.321  30.352  0.00  0.00     0.027 A 
ATOM      7  C   UNL d   1      58.478   0.665  29.797  0.00  0.00     0.013 A 
ATOM      8 CL   UNL d   1      59.434   0.522  28.736  0.00  0.00    -0.082 Cl
ATOM      9  C   UNL d   1      59.291  -1.110  28.847  0.00  0.00     0.004 A 
ATOM     10  C   UNL d   1      58.720  -2.277  29.444  0.00  0.00     0.099 A 
ATOM     11  C   UNL d   1      59.231  -1.933  28.889  0.00  0.00     0.021 A 
ENDROOT
BRANCH   3  12
ATOM     12  O   UNL d   1      57.397  -0.835  30.948  0.00  0.00    -0.302 OA
BRANCH  12  13
ATOM     13  C   UNL d   1      56.880  -1.181  31.497  0.00  0.00     0.144 C 
BRANCH  13  14
ATOM     14  C   UNL d   1      56.611  -0.741  32.146  0.00  0.00     0.142 A 
ATOM     15  N   UNL d   1      57.054  -0.495  32.767  0.00  0.00    -0.057 NA
ATOM     16  C   UNL d   1      56.577  -0.086  33.271  0.00  0.00     0.735 A 
ATOM     17  N   UNL d   1      55.810  -0.082  32.943  0.00  0.00    -0.136 N 
ATOM     18  N   UNL d   1      56.710   0.296  33.993  0.00  0.00    -0.059 NA
ATOM     19  C   UNL d   1      55.841  -0.486  32.255  0.00  0.00     0.120 A 
ATOM     20  C   UNL d   1      55.199   0.298  33.339  0.00  0.00     0.100 A 
ATOM     21  C   UNL d   1      55.335   0.674  34.052  0.00  0.00     0.041 A 
ATOM     22  C   UNL d   1      56.101   0.673  34.384  0.00  0.00     0.119 A 
ENDBRANCH  13  14
ENDBRANCH  12  13
ENDBRANCH   3  12
TORSDOF 3
ENDMDL
MODEL 3
REMARK VINA RESULT:      -4.4      2.037      4.959
REMARK  3 active torsions:
REMARK  status: ('A' for Active; 'I' for Inactive)
REMARK    1  A    between atoms: C_16  and  C_4 
REMARK    2  A    between atoms: C_10  and  O_14 
REMARK    3  A    between atoms: O_14  and  C_16 
ROOT
ATOM      1  C   UNL d   1      56.630   0.624  33.687  0.00  0.00     0.030 A 
ATOM      2  C   UNL d   1      56.597   0.627  32.877  0.00  0.00     0.105 A 
ATOM      3  C   UNL d   1      57.302   0.656  32.447  0.00  0.00     0.118 A 
ATOM      4  N   UNL d   1      55.884   0.602  32.474  0.00  0.00    -0.242 NA
ATOM      5  C   UNL d   1      57.341   0.649  34.087  0.00  0.00     0.059 A 
ATOM      6  C   UNL d   1      58.024   0.682  32.825  0.00  0.00     0.027 A 
ATOM      7  C   UNL d   1      58.050   0.678  33.655  0.00  0.00     0.013 A 
ATOM      8 CL   UNL d   1      57.365   0.645  34.916  0.00  0.00    -0.082 Cl
ATOM      9  C   UNL d   1      55.930   0.595  34.119  0.00  0.00     0.004 A 
ATOM     10  C   UNL d   1      55.175   0.573  32.907  0.00  0.00     0.099 A 
ATOM     11  C   UNL d   1      55.200   0.569  33.735  0.00  0.00     0.021 A 
ENDROOT
BRANCH   3  12
ATOM     12  O   UNL d   1      57.278   0.660  31.618  0.00  0.00    -0.302 OA
BRANCH  12  13
ATOM     13  C   UNL d   1      57.251   0.672  30.789  0.00  0.00     0.144 C 
BRANCH  13  14
ATOM     14  C   UNL d   1      57.791   0.219  30.351  0.00  0.00     0.142 A 
ATOM     15  N   UNL d   1      57.781  -0.578  30.267  0.00  0.00    -0.057 NA
ATOM     16  C   UNL d   1      58.401  -0.790  29.799  0.00  0.00     0.735 A 
ATOM     17  N   UNL d   1      58.807  -0.092  29.589  0.00  0.00    -0.136 N 
ATOM     18  N   UNL d   1      58.676  -1.518  29.519  0.00  0.00    -0.059 NA
ATOM     19  C   UNL d   1      58.426   0.520  29.932  0.00  0.00     0.120 A 
ATOM     20  C   UNL d   1      59.472  -0.136  29.109  0.00  0.00     0.100 A 
ATOM     21  C   UNL d   1      59.741  -0.858  28.834  0.00  0.00     0.041 A 
ATOM     22  C   UNL d   1      59.337  -1.559  29.042  0.00  0.00     0.119 A 
ENDBRANCH  13  14
ENDBRANCH  12  13
ENDBRANCH   3  12
TORSDOF 3
ENDMDL
MODEL 4
REMARK VINA RESULT:      -4.3      1.923      4.797
REMARK  3 active torsions:
REMARK  status: ('A' for Active; 'I' for Inactive)
REMARK    1  A    between atoms: C_16  and  C_4 
REMARK    2  A    between atoms: C_10  and  O_14 
REMARK    3  A    between atoms: O_14  and  C_16 
ROOT
ATOM      1  C   UNL d   1      56.096  -0.675  33.332  0.00  0.00     0.030 A 
ATOM      2  C   UNL d   1      56.610  -0.169  32.963  0.00  0.00     0.105 A 
ATOM      3  C   UNL d   1      56.862  -0.340  32.195  0.00  0.00     0.118 A 
ATOM      4  N   UNL d   1      56.886   0.509  33.332  0.00  0.00    -0.242 NA
ATOM      5  C   UNL d   1      55.822  -1.350  32.963  0.00  0.00     0.059 A 
ATOM      6  C   UNL d   1      56.601  -1.008  31.807  0.00  0.00     0.027 A 
ATOM      7  C   UNL d   1      56.075  -1.523  32.190  0.00  0.00     0.013 A 
ATOM      8 CL   UNL d   1      55.296  -1.863  33.347  0.00  0.00    -0.082 Cl
ATOM      9  C   UNL d   1      55.843  -0.508  34.097  0.00  0.00     0.004 A 
ATOM     10  C   UNL d   1      56.633   0.682  34.105  0.00  0.00     0.099 A 
ATOM     11  C   UNL d   1      56.108   0.168  34.488  0.00  0.00     0.021 A 
ENDROOT
BRANCH   3  12
ATOM     12  O   UNL d   1      57.387   0.173  31.810  0.00  0.00    -0.302 OA
BRANCH  12  13
ATOM     13  C   UNL d   1      57.918   0.680  31.422  0.00  0.00     0.144 C 
BRANCH  13  14
ATOM     14  C   UNL d   1      58.339   0.409  30.761  0.00  0.00     0.142 A 
ATOM     15  N   UNL d   1      58.022   0.119  30.084  0.00  0.00    -0.057 NA
ATOM     16  C   UNL d   1      58.626  -0.080  29.588  0.00  0.00     0.735 A 
ATOM     17  N   UNL d   1      59.341   0.098  29.980  0.00  0.00    -0.136 N 
ATOM     18  N   UNL d   1      58.649  -0.400  28.826  0.00  0.00    -0.059 NA
ATOM     19  C   UNL d   1      59.155   0.396  30.696  0.00  0.00     0.120 A 
ATOM     20  C   UNL d   1      60.057  -0.048  29.605  0.00  0.00     0.100 A 
ATOM     21  C   UNL d   1      60.077  -0.365  28.851  0.00  0.00     0.041 A 
ATOM     22  C   UNL d   1      59.363  -0.543  28.456  0.00  0.00     0.119 A 
ENDBRANCH  13  14
ENDBRANCH  12  13
ENDBRANCH   3  12
TORSDOF 3
ENDMDL
MODEL 5
REMARK VINA RESULT:      -4.1      8.903      9.257
REMARK  3 active torsions:
REMARK  status: ('A' for Active; 'I' for Inactive)
REMARK    1  A    between atoms: C_16  and  C_4 
REMARK    2  A    between atoms: C_10  and  O_14 
REMARK    3  A    between atoms: O_14  and  C_16 
ROOT
ATOM      1  C   UNL d   1      58.178  -9.789  30.469  0.00  0.00     0.030 A 
ATOM      2  C   UNL d   1      58.834  -9.795  30.945  0.00  0.00     0.105 A 
ATOM      3  C   UNL d   1      58.735  -9.809  31.765  0.00  0.00     0.118 A 
ATOM      4  N   UNL d   1      59.593  -9.786  30.633  0.00  0.00    -0.242 NA
ATOM      5  C   UNL d   1      57.423  -9.797  30.780  0.00  0.00     0.059 A 
ATOM      6  C   UNL d   1      57.992  -9.817  32.098  0.00  0.00     0.027 A 
ATOM      7  C   UNL d   1      57.324  -9.812  31.605  0.00  0.00     0.013 A 
ATOM      8 CL   UNL d   1      56.757  -9.792  30.286  0.00  0.00    -0.082 Cl
ATOM      9  C   UNL d   1      58.271  -9.775  29.651  0.00  0.00     0.004 A 
ATOM     10  C   UNL d   1      59.692  -9.772  29.808  0.00  0.00     0.099 A 
ATOM     11  C   UNL d   1      59.025  -9.766  29.315  0.00  0.00     0.021 A 
ENDROOT
BRANCH   3  12
ATOM     12  O   UNL d   1      59.402  -9.815  32.259  0.00  0.00    -0.302 OA
BRANCH  12  13
ATOM     13  C   UNL d   1      60.064  -9.817  32.759  0.00  0.00     0.144 C 
BRANCH  13  14
ATOM     14  C   UNL d   1      60.023  -9.444  33.499  0.00  0.00     0.142 A 
ATOM     15  N   UNL d   1      60.305  -8.715  33.678  0.00  0.00    -0.057 NA
ATOM     16  C   UNL d   1      60.151  -8.569  34.455  0.00  0.00     0.735 A 
ATOM     17  N   UNL d   1      59.759  -9.238  34.763  0.00  0.00    -0.136 N 
ATOM     18  N   UNL d   1      60.303  -7.925  34.950  0.00  0.00    -0.059 NA
ATOM     19  C   UNL d   1      59.685  -9.768  34.171  0.00  0.00     0.120 A 
ATOM     20  C   UNL d   1      59.530  -9.249  35.552  0.00  0.00     0.100 A 
ATOM     21  C   UNL d   1      59.682  -8.609  36.039  0.00  0.00     0.041 A 
ATOM     22  C   UNL d   1      60.075  -7.938  35.734  0.00  0.00     0.119 A 
ENDBRANCH  13  14
ENDBRANCH  12  13
ENDBRANCH   3  12
TORSDOF 3
ENDMDL
