MODEL 1
REMARK VINA RESULT:     -10.5      0.000      0.000
REMARK  3 active torsions:
REMARK  status: ('A' for Active; 'I' for Inactive)
REMARK    1  A    between atoms: C_6  and  N_1 
REMARK    2  A    between atoms: C_7  and  C_6 
REMARK    3  A    between atoms: C_8  and  C_7 
ROOT
ATOM      1  N   UNL d   1      52.809  32.906  53.311  0.00  0.00    -0.305 N 
ATOM      2  C   UNL d   1      52.839  32.094  53.177  0.00  0.00     0.064 A 
ATOM      3  C   UNL d   1      53.370  33.409  53.986  0.00  0.00     0.064 A 
ATOM      4  C   UNL d   1      53.415  32.009  53.750  0.00  0.00     0.018 A 
ATOM      5  C   UNL d   1      53.685  32.665  54.160  0.00  0.00     0.018 A 
ATOM      6  C   UNL d   1      53.630  34.069  54.386  0.00  0.00     0.018 A 
ATOM      7  C   UNL d   1      52.566  31.430  52.764  0.00  0.00     0.018 A 
ATOM      8  C   UNL d   1      53.729  31.257  53.921  0.00  0.00     0.002 A 
ATOM      9  C   UNL d   1      54.264  32.588  54.737  0.00  0.00     0.002 A 
ATOM     10  C   UNL d   1      54.529  33.258  55.144  0.00  0.00     0.000 A 
ATOM     11  C   UNL d   1      52.872  30.680  52.927  0.00  0.00     0.002 A 
ATOM     12  C   UNL d   1      54.211  33.995  54.966  0.00  0.00     0.002 A 
ATOM     13  C   UNL d   1      53.458  30.601  53.511  0.00  0.00     0.000 A 
ENDROOT
BRANCH   1  14
ATOM     14  C   UNL d   1      52.289  33.377  52.873  0.00  0.00     0.086 C 
BRANCH  14  15
ATOM     15  C   UNL d   1      51.532  33.560  53.146  0.00  0.00     0.089 C 
BRANCH  15  16
ATOM     16  C   UNL d   1      51.035  34.034  52.685  0.00  0.00     0.213 C 
ATOM     17  O   UNL d   1      50.287  34.242  52.968  0.00  0.00    -0.644 OA
ATOM     18  O   UNL d   1      51.284  34.299  51.945  0.00  0.00    -0.644 OA
ENDBRANCH  15  16
ENDBRANCH  14  15
ENDBRANCH   1  14
TORSDOF 3
ENDMDL
MODEL 2
REMARK VINA RESULT:     -10.4      0.074      2.227
REMARK  3 active torsions:
REMARK  status: ('A' for Active; 'I' for Inactive)
REMARK    1  A    between atoms: C_6  and  N_1 
REMARK    2  A    between atoms: C_7  and  C_6 
REMARK    3  A    between atoms: C_8  and  C_7 
ROOT
ATOM      1  N   UNL d   1      52.853  32.983  53.368  0.00  0.00    -0.305 N 
ATOM      2  C   UNL d   1      53.329  33.341  53.936  0.00  0.00     0.064 A 
ATOM      3  C   UNL d   1      52.838  31.995  53.153  0.00  0.00     0.064 A 
ATOM      4  C   UNL d   1      53.658  32.619  54.132  0.00  0.00     0.018 A 
ATOM      5  C   UNL d   1      53.415  31.940  53.743  0.00  0.00     0.018 A 
ATOM      6  C   UNL d   1      52.589  31.327  52.759  0.00  0.00     0.018 A 
ATOM      7  C   UNL d   1      53.574  34.027  54.329  0.00  0.00     0.018 A 
ATOM      8  C   UNL d   1      54.238  32.571  54.726  0.00  0.00     0.002 A 
ATOM      9  C   UNL d   1      53.741  31.211  53.934  0.00  0.00     0.002 A 
ATOM     10  C   UNL d   1      53.488  30.532  53.534  0.00  0.00     0.000 A 
ATOM     11  C   UNL d   1      54.150  33.988  54.921  0.00  0.00     0.002 A 
ATOM     12  C   UNL d   1      52.914  30.593  52.949  0.00  0.00     0.002 A 
ATOM     13  C   UNL d   1      54.480  33.250  55.115  0.00  0.00     0.000 A 
ENDROOT
BRANCH   1  14
ATOM     14  C   UNL d   1      52.332  33.443  52.919  0.00  0.00     0.086 C 
BRANCH  14  15
ATOM     15  C   UNL d   1      51.550  33.569  53.153  0.00  0.00     0.089 C 
BRANCH  15  16
ATOM     16  C   UNL d   1      51.058  34.047  52.690  0.00  0.00     0.213 C 
ATOM     17  O   UNL d   1      50.321  34.283  52.982  0.00  0.00    -0.644 OA
ATOM     18  O   UNL d   1      51.300  34.288  51.940  0.00  0.00    -0.644 OA
ENDBRANCH  15  16
ENDBRANCH  14  15
ENDBRANCH   1  14
TORSDOF 3
ENDMDL
MODEL 3
REMARK VINA RESULT:     -10.2      1.620      2.695
REMARK  3 active torsions:
REMARK  status: ('A' for Active; 'I' for Inactive)
REMARK    1  A    between atoms: C_6  and  N_1 
REMARK    2  A    between atoms: C_7  and  C_6 
REMARK    3  A    between atoms: C_8  and  C_7 
ROOT
ATOM      1  N   UNL d   1      53.009  32.609  53.322  0.00  0.00    -0.305 N 
ATOM      2  C   UNL d   1      52.445  33.146  53.056  0.00  0.00     0.064 A 
ATOM      3  C   UNL d   1      53.692  32.787  54.048  0.00  0.00     0.064 A 
ATOM      4  C   UNL d   1      52.716  33.709  53.582  0.00  0.00     0.018 A 
ATOM      5  C   UNL d   1      53.341  33.535  54.083  0.00  0.00     0.018 A 
ATOM      6  C   UNL d   1      54.314  32.601  54.539  0.00  0.00     0.018 A 
ATOM      7  C   UNL d   1      51.813  33.323  52.551  0.00  0.00     0.018 A 
ATOM      8  C   UNL d   1      52.359  34.460  53.613  0.00  0.00     0.002 A 
ATOM      9  C   UNL d   1      53.619  34.096  54.615  0.00  0.00     0.002 A 
ATOM     10  C   UNL d   1      54.251  33.908  55.114  0.00  0.00     0.000 A 
ATOM     11  C   UNL d   1      51.453  34.067  52.574  0.00  0.00     0.002 A 
ATOM     12  C   UNL d   1      54.595  33.162  55.075  0.00  0.00     0.002 A 
ATOM     13  C   UNL d   1      51.734  34.635  53.112  0.00  0.00     0.000 A 
ENDROOT
BRANCH   1  14
ATOM     14  C   UNL d   1      53.046  31.852  52.990  0.00  0.00     0.086 C 
BRANCH  14  15
ATOM     15  C   UNL d   1      52.598  31.225  53.285  0.00  0.00     0.089 C 
BRANCH  15  16
ATOM     16  C   UNL d   1      52.703  30.466  52.972  0.00  0.00     0.213 C 
ATOM     17  O   UNL d   1      52.513  29.803  53.428  0.00  0.00    -0.644 OA
ATOM     18  O   UNL d   1      52.994  30.370  52.207  0.00  0.00    -0.644 OA
ENDBRANCH  15  16
ENDBRANCH  14  15
ENDBRANCH   1  14
TORSDOF 3
ENDMDL
MODEL 4
REMARK VINA RESULT:     -10.2      1.630      3.018
REMARK  3 active torsions:
REMARK  status: ('A' for Active; 'I' for Inactive)
REMARK    1  A    between atoms: C_6  and  N_1 
REMARK    2  A    between atoms: C_7  and  C_6 
REMARK    3  A    between atoms: C_8  and  C_7 
ROOT
ATOM      1  N   UNL d   1      53.103  32.584  53.396  0.00  0.00    -0.305 N 
ATOM      2  C   UNL d   1      53.632  32.783  53.994  0.00  0.00     0.064 A 
ATOM      3  C   UNL d   1      52.389  33.194  53.018  0.00  0.00     0.064 A 
ATOM      4  C   UNL d   1      53.305  33.530  54.050  0.00  0.00     0.018 A 
ATOM      5  C   UNL d   1      52.681  33.742  53.563  0.00  0.00     0.018 A 
ATOM      6  C   UNL d   1      51.769  33.392  52.528  0.00  0.00     0.018 A 
ATOM      7  C   UNL d   1      54.262  32.570  54.487  0.00  0.00     0.018 A 
ATOM      8  C   UNL d   1      53.604  34.078  54.601  0.00  0.00     0.002 A 
ATOM      9  C   UNL d   1      52.348  34.491  53.613  0.00  0.00     0.002 A 
ATOM     10  C   UNL d   1      51.718  34.693  53.116  0.00  0.00     0.000 A 
ATOM     11  C   UNL d   1      54.565  33.108  55.037  0.00  0.00     0.002 A 
ATOM     12  C   UNL d   1      51.432  34.143  52.576  0.00  0.00     0.002 A 
ATOM     13  C   UNL d   1      54.228  33.866  55.088  0.00  0.00     0.000 A 
ENDROOT
BRANCH   1  14
ATOM     14  C   UNL d   1      53.132  31.831  53.055  0.00  0.00     0.086 C 
BRANCH  14  15
ATOM     15  C   UNL d   1      52.638  31.220  53.307  0.00  0.00     0.089 C 
BRANCH  15  16
ATOM     16  C   UNL d   1      52.730  30.463  52.986  0.00  0.00     0.213 C 
ATOM     17  O   UNL d   1      52.537  29.798  53.440  0.00  0.00    -0.644 OA
ATOM     18  O   UNL d   1      53.012  30.369  52.218  0.00  0.00    -0.644 OA
ENDBRANCH  15  16
ENDBRANCH  14  15
ENDBRANCH   1  14
TORSDOF 3
ENDMDL
MODEL 5
REMARK VINA RESULT:     -10.1      1.903      2.867
REMARK  3 active torsions:
REMARK  status: ('A' for Active; 'I' for Inactive)
REMARK    1  A    between atoms: C_6  and  N_1 
REMARK    2  A    between atoms: C_7  and  C_6 
REMARK    3  A    between atoms: C_8  and  C_7 
ROOT
ATOM      1  N   UNL d   1      53.661  32.935  53.652  0.00  0.00    -0.305 N 
ATOM      2  C   UNL d   1      53.565  32.125  53.540  0.00  0.00     0.064 A 
ATOM      3  C   UNL d   1      52.998  33.648  53.376  0.00  0.00     0.064 A 
ATOM      4  C   UNL d   1      52.839  32.249  53.185  0.00  0.00     0.018 A 
ATOM      5  C   UNL d   1      52.549  33.012  53.100  0.00  0.00     0.018 A 
ATOM      6  C   UNL d   1      52.722  34.410  53.298  0.00  0.00     0.018 A 
ATOM      7  C   UNL d   1      53.857  31.355  53.625  0.00  0.00     0.018 A 
ATOM      8  C   UNL d   1      52.392  31.604  52.909  0.00  0.00     0.002 A 
ATOM      9  C   UNL d   1      51.821  33.144  52.745  0.00  0.00     0.002 A 
ATOM     10  C   UNL d   1      51.540  33.918  52.665  0.00  0.00     0.000 A 
ATOM     11  C   UNL d   1      53.419  30.709  53.354  0.00  0.00     0.002 A 
ATOM     12  C   UNL d   1      51.991  34.547  52.941  0.00  0.00     0.002 A 
ATOM     13  C   UNL d   1      52.681  30.842  52.994  0.00  0.00     0.000 A 
ENDROOT
BRANCH   1  14
ATOM     14  C   UNL d   1      54.345  33.221  54.019  0.00  0.00     0.086 C 
BRANCH  14  15
ATOM     15  C   UNL d   1      54.415  33.260  54.840  0.00  0.00     0.089 C 
BRANCH  15  16
ATOM     16  C   UNL d   1      55.057  33.659  55.177  0.00  0.00     0.213 C 
ATOM     17  O   UNL d   1      55.000  33.953  55.947  0.00  0.00    -0.644 OA
ATOM     18  O   UNL d   1      55.753  33.764  54.746  0.00  0.00    -0.644 OA
ENDBRANCH  15  16
ENDBRANCH  14  15
ENDBRANCH   1  14
TORSDOF 3
ENDMDL
MODEL 6
REMARK VINA RESULT:     -10.0      1.900      3.334
REMARK  3 active torsions:
REMARK  status: ('A' for Active; 'I' for Inactive)
REMARK    1  A    between atoms: C_6  and  N_1 
REMARK    2  A    between atoms: C_7  and  C_6 
REMARK    3  A    between atoms: C_8  and  C_7 
ROOT
ATOM      1  N   UNL d   1      53.629  33.020  53.646  0.00  0.00    -0.305 N 
ATOM      2  C   UNL d   1      53.055  33.554  53.394  0.00  0.00     0.064 A 
ATOM      3  C   UNL d   1      53.579  32.014  53.545  0.00  0.00     0.064 A 
ATOM      4  C   UNL d   1      52.592  32.941  53.113  0.00  0.00     0.018 A 
ATOM      5  C   UNL d   1      52.850  32.167  53.186  0.00  0.00     0.018 A 
ATOM      6  C   UNL d   1      53.846  31.249  53.623  0.00  0.00     0.018 A 
ATOM      7  C   UNL d   1      52.794  34.336  53.321  0.00  0.00     0.018 A 
ATOM      8  C   UNL d   1      51.860  33.101  52.753  0.00  0.00     0.002 A 
ATOM      9  C   UNL d   1      52.391  31.546  52.905  0.00  0.00     0.002 A 
ATOM     10  C   UNL d   1      52.662  30.768  52.984  0.00  0.00     0.000 A 
ATOM     11  C   UNL d   1      52.067  34.503  52.964  0.00  0.00     0.002 A 
ATOM     12  C   UNL d   1      53.388  30.623  53.342  0.00  0.00     0.002 A 
ATOM     13  C   UNL d   1      51.602  33.876  52.680  0.00  0.00     0.000 A 
ENDROOT
BRANCH   1  14
ATOM     14  C   UNL d   1      54.315  33.297  54.016  0.00  0.00     0.086 C 
BRANCH  14  15
ATOM     15  C   UNL d   1      54.397  33.296  54.837  0.00  0.00     0.089 C 
BRANCH  15  16
ATOM     16  C   UNL d   1      55.045  33.678  55.183  0.00  0.00     0.213 C 
ATOM     17  O   UNL d   1      54.981  33.985  55.948  0.00  0.00    -0.644 OA
ATOM     18  O   UNL d   1      55.753  33.752  54.766  0.00  0.00    -0.644 OA
ENDBRANCH  15  16
ENDBRANCH  14  15
ENDBRANCH   1  14
TORSDOF 3
ENDMDL
MODEL 7
REMARK VINA RESULT:      -8.3      1.576      2.673
REMARK  3 active torsions:
REMARK  status: ('A' for Active; 'I' for Inactive)
REMARK    1  A    between atoms: C_6  and  N_1 
REMARK    2  A    between atoms: C_7  and  C_6 
REMARK    3  A    between atoms: C_8  and  C_7 
ROOT
ATOM      1  N   UNL d   1      52.727  34.103  53.512  0.00  0.00    -0.305 N 
ATOM      2  C   UNL d   1      51.949  34.015  53.259  0.00  0.00     0.064 A 
ATOM      3  C   UNL d   1      53.392  33.350  53.634  0.00  0.00     0.064 A 
ATOM      4  C   UNL d   1      52.048  33.207  53.196  0.00  0.00     0.018 A 
ATOM      5  C   UNL d   1      52.770  32.867  53.383  0.00  0.00     0.018 A 
ATOM      6  C   UNL d   1      54.115  33.025  53.822  0.00  0.00     0.018 A 
ATOM      7  C   UNL d   1      51.219  34.358  53.070  0.00  0.00     0.018 A 
ATOM      8  C   UNL d   1      51.418  32.726  52.944  0.00  0.00     0.002 A 
ATOM      9  C   UNL d   1      52.878  32.055  53.323  0.00  0.00     0.002 A 
ATOM     10  C   UNL d   1      53.611  31.724  53.514  0.00  0.00     0.000 A 
ATOM     11  C   UNL d   1      50.588  33.887  52.818  0.00  0.00     0.002 A 
ATOM     12  C   UNL d   1      54.226  32.211  53.763  0.00  0.00     0.002 A 
ATOM     13  C   UNL d   1      50.696  33.065  52.757  0.00  0.00     0.000 A 
ENDROOT
BRANCH   1  14
ATOM     14  C   UNL d   1      53.020  34.856  53.691  0.00  0.00     0.086 C 
BRANCH  14  15
ATOM     15  C   UNL d   1      52.937  35.189  54.442  0.00  0.00     0.089 C 
BRANCH  15  16
ATOM     16  C   UNL d   1      53.171  35.972  54.569  0.00  0.00     0.213 C 
ATOM     17  O   UNL d   1      52.750  36.445  55.101  0.00  0.00    -0.644 OA
ATOM     18  O   UNL d   1      53.821  36.281  54.168  0.00  0.00    -0.644 OA
ENDBRANCH  15  16
ENDBRANCH  14  15
ENDBRANCH   1  14
TORSDOF 3
ENDMDL
