MODEL 1
REMARK VINA RESULT:      92.5      0.000      0.000
REMARK  3 active torsions:
REMARK  status: ('A' for Active; 'I' for Inactive)
REMARK    1  A    between atoms: C_5  and  N_1 
REMARK    2  A    between atoms: C_13  and  C_6 
REMARK    3  A    between atoms: O_24  and  C_19 
ROOT
ATOM      1  N   UNL d   1      46.012 -17.310  42.739  0.00  0.00    -0.256 N 
ATOM      2  C   UNL d   1      46.164 -18.278  41.822  0.00  0.00     0.083 A 
ATOM      3  C   UNL d   1      46.230 -17.551  41.442  0.00  0.00     0.161 A 
ATOM      4  C   UNL d   1      46.138 -16.949  42.005  0.00  0.00     0.289 A 
ATOM      5  C   UNL d   1      46.028 -18.133  42.625  0.00  0.00     0.075 A 
ATOM      6  C   UNL d   1      46.233 -18.981  41.395  0.00  0.00     0.201 A 
ATOM      7  O   UNL d   1      46.369 -17.526  40.622  0.00  0.00    -0.302 OA
ATOM      8  C   UNL d   1      46.370 -18.951  40.583  0.00  0.00     0.063 A 
ATOM      9  C   UNL d   1      46.438 -18.226  40.200  0.00  0.00     0.103 A 
ATOM     10  O   UNL d   1      46.164 -16.143  41.864  0.00  0.00    -0.264 OA
ATOM     11  O   UNL d   1      46.166 -19.707  41.775  0.00  0.00    -0.286 OA
ATOM     12  C   UNL d   1      46.441 -19.656  40.153  0.00  0.00     0.017 A 
ATOM     13  C   UNL d   1      46.577 -18.205  39.377  0.00  0.00     0.026 A 
ATOM     14  C   UNL d   1      46.577 -19.633  39.344  0.00  0.00     0.058 A 
ATOM     15  C   UNL d   1      46.646 -18.906  38.956  0.00  0.00     0.013 A 
ATOM     16 CL   UNL d   1      46.647 -20.329  38.919  0.00  0.00    -0.082 Cl
ENDROOT
BRANCH   5  17
ATOM     17  C   UNL d   1      45.961 -18.858  43.008  0.00  0.00     0.039 A 
ATOM     18  C   UNL d   1      45.217 -19.174  43.184  0.00  0.00     0.096 A 
ATOM     19  C   UNL d   1      45.154 -19.898  43.567  0.00  0.00     0.024 A 
ATOM     20  C   UNL d   1      45.838 -20.319  43.781  0.00  0.00     0.002 A 
ATOM     21  C   UNL d   1      46.583 -20.005  43.606  0.00  0.00     0.000 A 
ATOM     22  C   UNL d   1      46.642 -19.272  43.218  0.00  0.00     0.003 A 
BRANCH  18  23
ATOM     23  O   UNL d   1      44.541 -18.753  42.970  0.00  0.00    -0.328 OA
ATOM     24  C   UNL d   1      43.798 -19.092  43.075  0.00  0.00     0.181 C 
ENDBRANCH  18  23
ENDBRANCH   5  17
BRANCH   1  25
ATOM     25  C   UNL d   1      45.892 -16.925  43.456  0.00  0.00     0.179 A 
ATOM     26  N   UNL d   1      46.023 -17.238  44.202  0.00  0.00    -0.108 NA
ATOM     27  O   UNL d   1      45.832 -16.664  44.760  0.00  0.00    -0.210 OA
ATOM     28  C   UNL d   1      45.582 -15.992  44.356  0.00  0.00     0.128 A 
ATOM     29  C   UNL d   1      45.618 -16.149  43.548  0.00  0.00     0.067 A 
ATOM     30  C   UNL d   1      45.337 -15.282  44.697  0.00  0.00     0.029 C 
ENDBRANCH   1  25
TORSDOF 3
ENDMDL
