MODEL 1
REMARK VINA RESULT:     100.9      0.000      0.000
REMARK  5 active torsions:
REMARK  status: ('A' for Active; 'I' for Inactive)
REMARK    1  A    between atoms: C_3  and  C_1 
REMARK    2  A    between atoms: N_2  and  C_7 
REMARK       I    between atoms: N_4  and  C_3 
REMARK    3  A    between atoms: C_9  and  N_4 
REMARK    4  A    between atoms: O_19  and  C_6 
REMARK    5  A    between atoms: O_20  and  C_10 
ROOT
ATOM      1  C   UNL d   1      60.543  47.604  50.349  0.00  0.00     0.281 C 
ATOM      2  N   UNL d   1      60.461  46.795  50.494  0.00  0.00    -0.206 NA
ATOM      3  O   UNL d   1      61.180  47.876  49.947  0.00  0.00    -0.265 OA
ENDROOT
BRANCH   1   4
ATOM      4  C   UNL d   1      59.959  48.127  50.624  0.00  0.00     0.080 A 
ATOM      5  C   UNL d   1      59.170  47.997  50.459  0.00  0.00     0.007 A 
ATOM      6  C   UNL d   1      58.595  48.537  50.746  0.00  0.00     0.000 A 
ATOM      7  C   UNL d   1      57.803  48.397  50.574  0.00  0.00     0.000 A 
ATOM      8  C   UNL d   1      58.846  49.187  51.189  0.00  0.00     0.002 A 
ATOM      9  C   UNL d   1      57.232  48.943  50.865  0.00  0.00     0.000 A 
ATOM     10  C   UNL d   1      57.474  49.568  51.292  0.00  0.00     0.000 A 
ATOM     11  C   UNL d   1      58.269  49.706  51.463  0.00  0.00     0.000 A 
ATOM     12  C   UNL d   1      59.643  49.298  51.343  0.00  0.00     0.024 A 
ATOM     13  C   UNL d   1      60.200  48.756  51.053  0.00  0.00     0.099 A 
BRANCH  13  14
ATOM     14  O   UNL d   1      61.018  48.853  51.199  0.00  0.00    -0.328 OA
ATOM     15  C   UNL d   1      61.268  49.412  51.767  0.00  0.00     0.181 C 
ENDBRANCH  13  14
ENDBRANCH   1   4
BRANCH   2  16
ATOM     16  C   UNL d   1      61.008  46.271  50.240  0.00  0.00     0.107 A 
ATOM     17  C   UNL d   1      60.972  45.498  50.509  0.00  0.00     0.113 A 
ATOM     18  C   UNL d   1      61.532  44.944  50.255  0.00  0.00     0.049 A 
ATOM     19  C   UNL d   1      62.134  45.160  49.728  0.00  0.00     0.129 A 
ATOM     20  C   UNL d   1      62.168  45.936  49.459  0.00  0.00     0.025 A 
ATOM     21  C   UNL d   1      61.614  46.491  49.708  0.00  0.00     0.023 A 
BRANCH  17  22
ATOM     22  O   UNL d   1      60.368  45.265  51.044  0.00  0.00    -0.327 OA
ATOM     23  C   UNL d   1      60.580  44.839  51.734  0.00  0.00     0.181 C 
ENDBRANCH  17  22
BRANCH  19  24
ATOM     24  N   UNL d   1      62.686  44.587  49.485  0.00  0.00    -0.114 N 
ATOM     25  O   UNL d   1      62.735  43.891  49.928  0.00  0.00    -0.532 OA
ATOM     26  O   UNL d   1      63.158  44.720  48.828  0.00  0.00    -0.532 OA
ENDBRANCH  19  24
ENDBRANCH   2  16
TORSDOF 5
ENDMDL
