MODEL 1
REMARK VINA RESULT:      -3.1      0.000      0.000
REMARK  8 active torsions:
REMARK  status: ('A' for Active; 'I' for Inactive)
REMARK       I    between atoms: C_2  and  N_1 
REMARK    1  A    between atoms: C_3  and  N_1 
REMARK    2  A    between atoms: C_4  and  C_2 
REMARK    3  A    between atoms: N_12  and  C_3 
REMARK    4  A    between atoms: O_19  and  C_5 
REMARK    5  A    between atoms: O_20  and  C_6 
REMARK    6  A    between atoms: O_21  and  C_7 
REMARK    7  A    between atoms: C_10  and  C_18 
REMARK    8  A    between atoms: C_18  and  N_12 
ROOT
ATOM      1  C   UNL d   1      57.007  -0.141  31.926  0.00  0.00     0.062 A 
ATOM      2  C   UNL d   1      56.394  -0.244  33.464  0.00  0.00     0.138 A 
ATOM      3  C   UNL d   1      56.048  -0.685  32.848  0.00  0.00     0.118 A 
ATOM      4  C   UNL d   1      57.043   0.240  33.291  0.00  0.00     0.118 A 
ATOM      5  C   UNL d   1      57.346   0.291  32.533  0.00  0.00     0.031 A 
ATOM      6  C   UNL d   1      56.359  -0.630  32.078  0.00  0.00     0.031 A 
ENDROOT
BRANCH   1   7
ATOM      7  C   UNL d   1      57.321  -0.085  31.151  0.00  0.00     0.281 C 
ATOM      8  N   UNL d   1      57.935  -0.600  30.924  0.00  0.00    -0.179 NA
ATOM      9  O   UNL d   1      57.037   0.464  30.619  0.00  0.00    -0.265 OA
BRANCH   8  10
ATOM     10  C   UNL d   1      58.246  -0.544  30.156  0.00  0.00     0.224 C 
ATOM     11  S   UNL d   1      58.479   0.161  29.795  0.00  0.00    -0.037 SA
BRANCH  10  12
ATOM     12  N   UNL d   1      58.315  -1.247  29.754  0.00  0.00    -0.214 NA
BRANCH  12  13
ATOM     13  C   UNL d   1      59.017  -1.433  29.365  0.00  0.00     0.126 C 
BRANCH  13  14
ATOM     14  C   UNL d   1      59.133  -2.175  29.034  0.00  0.00     0.119 A 
ATOM     15  O   UNL d   1      58.550  -2.703  28.729  0.00  0.00    -0.304 OA
ATOM     16  C   UNL d   1      58.938  -3.376  28.459  0.00  0.00     0.123 A 
ATOM     17  C   UNL d   1      59.736  -3.287  28.584  0.00  0.00     0.029 A 
ATOM     18  C   UNL d   1      59.868  -2.537  28.944  0.00  0.00     0.028 A 
ENDBRANCH  13  14
ENDBRANCH  12  13
ENDBRANCH  10  12
ENDBRANCH   8  10
ENDBRANCH   1   7
BRANCH   4  19
ATOM     19  O   UNL d   1      57.388   0.681  33.916  0.00  0.00    -0.326 OA
ATOM     20  C   UNL d   1      58.217   0.628  34.039  0.00  0.00     0.181 C 
ENDBRANCH   4  19
BRANCH   3  21
ATOM     21  O   UNL d   1      55.386  -1.182  33.008  0.00  0.00    -0.326 OA
ATOM     22  C   UNL d   1      55.482  -1.982  33.150  0.00  0.00     0.181 C 
ENDBRANCH   3  21
BRANCH   2  23
ATOM     23  O   UNL d   1      56.091  -0.290  34.245  0.00  0.00    -0.324 OA
ATOM     24  C   UNL d   1      55.542   0.265  34.526  0.00  0.00     0.182 C 
ENDBRANCH   2  23
TORSDOF 8
ENDMDL
MODEL 2
REMARK VINA RESULT:      -3.1      1.261      5.139
REMARK  8 active torsions:
REMARK  status: ('A' for Active; 'I' for Inactive)
REMARK       I    between atoms: C_2  and  N_1 
REMARK    1  A    between atoms: C_3  and  N_1 
REMARK    2  A    between atoms: C_4  and  C_2 
REMARK    3  A    between atoms: N_12  and  C_3 
REMARK    4  A    between atoms: O_19  and  C_5 
REMARK    5  A    between atoms: O_20  and  C_6 
REMARK    6  A    between atoms: O_21  and  C_7 
REMARK    7  A    between atoms: C_10  and  C_18 
REMARK    8  A    between atoms: C_18  and  N_12 
ROOT
ATOM      1  C   UNL d   1      58.823  -0.846  29.486  0.00  0.00     0.062 A 
ATOM      2  C   UNL d   1      60.013  -1.841  28.897  0.00  0.00     0.138 A 
ATOM      3  C   UNL d   1      59.236  -2.127  28.982  0.00  0.00     0.118 A 
ATOM      4  C   UNL d   1      60.174  -1.057  29.111  0.00  0.00     0.118 A 
ATOM      5  C   UNL d   1      59.589  -0.566  29.401  0.00  0.00     0.031 A 
ATOM      6  C   UNL d   1      58.642  -1.624  29.278  0.00  0.00     0.031 A 
ENDROOT
BRANCH   1   7
ATOM      7  C   UNL d   1      58.227  -0.338  29.785  0.00  0.00     0.281 C 
ATOM      8  N   UNL d   1      57.946  -0.455  30.560  0.00  0.00    -0.179 NA
ATOM      9  O   UNL d   1      57.920   0.265  29.330  0.00  0.00    -0.265 OA
BRANCH   8  10
ATOM     10  C   UNL d   1      57.354   0.049  30.855  0.00  0.00     0.224 C 
ATOM     11  S   UNL d   1      57.028   0.682  30.439  0.00  0.00    -0.037 SA
BRANCH  10  12
ATOM     12  N   UNL d   1      57.098  -0.117  31.609  0.00  0.00    -0.214 NA
BRANCH  12  13
ATOM     13  C   UNL d   1      56.552   0.378  31.977  0.00  0.00     0.126 C 
BRANCH  13  14
ATOM     14  C   UNL d   1      56.242   0.190  32.713  0.00  0.00     0.119 A 
ATOM     15  O   UNL d   1      56.548   0.398  33.471  0.00  0.00    -0.304 OA
ATOM     16  C   UNL d   1      56.043   0.083  34.039  0.00  0.00     0.123 A 
ATOM     17  C   UNL d   1      55.438  -0.310  33.664  0.00  0.00     0.029 A 
ATOM     18  C   UNL d   1      55.554  -0.248  32.833  0.00  0.00     0.028 A 
ENDBRANCH  13  14
ENDBRANCH  12  13
ENDBRANCH  10  12
ENDBRANCH   8  10
ENDBRANCH   1   7
BRANCH   4  19
ATOM     19  O   UNL d   1      60.959  -0.774  29.022  0.00  0.00    -0.326 OA
ATOM     20  C   UNL d   1      61.093   0.055  29.033  0.00  0.00     0.181 C 
ENDBRANCH   4  19
BRANCH   3  21
ATOM     21  O   UNL d   1      59.055  -2.922  28.769  0.00  0.00    -0.326 OA
ATOM     22  C   UNL d   1      58.282  -3.171  28.674  0.00  0.00     0.181 C 
ENDBRANCH   3  21
BRANCH   2  23
ATOM     23  O   UNL d   1      60.620  -2.337  28.599  0.00  0.00    -0.324 OA
ATOM     24  C   UNL d   1      61.133  -2.742  29.110  0.00  0.00     0.182 C 
ENDBRANCH   2  23
TORSDOF 8
ENDMDL
MODEL 3
REMARK VINA RESULT:      -2.9      0.388      1.559
REMARK  8 active torsions:
REMARK  status: ('A' for Active; 'I' for Inactive)
REMARK       I    between atoms: C_2  and  N_1 
REMARK    1  A    between atoms: C_3  and  N_1 
REMARK    2  A    between atoms: C_4  and  C_2 
REMARK    3  A    between atoms: N_12  and  C_3 
REMARK    4  A    between atoms: O_19  and  C_5 
REMARK    5  A    between atoms: O_20  and  C_6 
REMARK    6  A    between atoms: O_21  and  C_7 
REMARK    7  A    between atoms: C_10  and  C_18 
REMARK    8  A    between atoms: C_18  and  N_12 
ROOT
ATOM      1  C   UNL d   1      57.206  -0.095  31.661  0.00  0.00     0.062 A 
ATOM      2  C   UNL d   1      56.550  -0.182  33.183  0.00  0.00     0.138 A 
ATOM      3  C   UNL d   1      57.237   0.269  33.051  0.00  0.00     0.118 A 
ATOM      4  C   UNL d   1      56.208  -0.581  32.543  0.00  0.00     0.118 A 
ATOM      5  C   UNL d   1      56.530  -0.539  31.793  0.00  0.00     0.031 A 
ATOM      6  C   UNL d   1      57.563   0.310  32.286  0.00  0.00     0.031 A 
ENDROOT
BRANCH   1   7
ATOM      7  C   UNL d   1      57.533  -0.055  30.890  0.00  0.00     0.281 C 
ATOM      8  N   UNL d   1      58.051  -0.655  30.638  0.00  0.00    -0.179 NA
ATOM      9  O   UNL d   1      57.351   0.560  30.387  0.00  0.00    -0.265 OA
BRANCH   8  10
ATOM     10  C   UNL d   1      58.374  -0.615  29.874  0.00  0.00     0.224 C 
ATOM     11  S   UNL d   1      58.697   0.065  29.537  0.00  0.00    -0.037 SA
BRANCH  10  12
ATOM     12  N   UNL d   1      58.358  -1.309  29.450  0.00  0.00    -0.214 NA
BRANCH  12  13
ATOM     13  C   UNL d   1      58.880  -1.919  29.638  0.00  0.00     0.126 C 
BRANCH  13  14
ATOM     14  C   UNL d   1      58.903  -2.607  29.191  0.00  0.00     0.119 A 
ATOM     15  O   UNL d   1      58.253  -3.065  28.910  0.00  0.00    -0.304 OA
ATOM     16  C   UNL d   1      58.558  -3.702  28.489  0.00  0.00     0.123 A 
ATOM     17  C   UNL d   1      59.370  -3.657  28.497  0.00  0.00     0.029 A 
ATOM     18  C   UNL d   1      59.596  -2.974  28.935  0.00  0.00     0.028 A 
ENDBRANCH  13  14
ENDBRANCH  12  13
ENDBRANCH  10  12
ENDBRANCH   8  10
ENDBRANCH   1   7
BRANCH   4  19
ATOM     19  O   UNL d   1      55.516  -1.034  32.681  0.00  0.00    -0.326 OA
ATOM     20  C   UNL d   1      55.598  -1.831  32.936  0.00  0.00     0.181 C 
ENDBRANCH   4  19
BRANCH   3  21
ATOM     21  O   UNL d   1      57.598   0.681  33.692  0.00  0.00    -0.326 OA
ATOM     22  C   UNL d   1      58.410   0.682  33.793  0.00  0.00     0.181 C 
ENDBRANCH   3  21
BRANCH   2  23
ATOM     23  O   UNL d   1      56.212  -0.232  33.948  0.00  0.00    -0.324 OA
ATOM     24  C   UNL d   1      55.613   0.290  34.189  0.00  0.00     0.182 C 
ENDBRANCH   2  23
TORSDOF 8
ENDMDL
