MODEL 1
REMARK VINA RESULT:      -8.1      0.000      0.000
REMARK  3 active torsions:
REMARK  status: ('A' for Active; 'I' for Inactive)
REMARK    1  A    between atoms: C_5  and  C_1 
REMARK    2  A    between atoms: C_2  and  C_5 
REMARK    3  A    between atoms: C_12  and  C_5 
ROOT
ATOM      1  C   UNL d   1     -49.088  12.988  22.325  0.00  0.00     0.021 C 
ENDROOT
BRANCH   1   2
ATOM      2  C   UNL d   1     -48.322  13.035  22.021  0.00  0.00     0.021 A 
ATOM      3  C   UNL d   1     -48.023  12.894  21.251  0.00  0.00     0.082 A 
ATOM      4  N   UNL d   1     -47.211  13.031  21.284  0.00  0.00    -0.246 NA
ATOM      5  C   UNL d   1     -48.449  12.662  20.578  0.00  0.00     0.021 C 
ATOM      6  C   UNL d   1     -47.006  13.251  22.050  0.00  0.00     0.081 A 
ATOM      7  C   UNL d   1     -47.697  13.251  22.498  0.00  0.00     0.019 A 
ATOM      8  C   UNL d   1     -46.289  13.454  22.414  0.00  0.00     0.019 A 
ATOM      9  C   UNL d   1     -47.674  13.451  23.299  0.00  0.00     0.002 A 
ATOM     10  C   UNL d   1     -46.963  13.653  23.664  0.00  0.00     0.000 A 
ATOM     11  C   UNL d   1     -46.291  13.651  23.219  0.00  0.00     0.002 A 
ENDBRANCH   1   2
BRANCH   1  12
ATOM     12  C   UNL d   1     -49.640  13.594  22.173  0.00  0.00     0.021 A 
ATOM     13  C   UNL d   1     -50.151  13.607  21.533  0.00  0.00     0.082 A 
ATOM     14  N   UNL d   1     -50.602  14.295  21.587  0.00  0.00    -0.246 NA
ATOM     15  C   UNL d   1     -50.209  13.020  20.925  0.00  0.00     0.021 C 
ATOM     16  C   UNL d   1     -50.366  14.702  22.260  0.00  0.00     0.081 A 
ATOM     17  C   UNL d   1     -49.773  14.269  22.621  0.00  0.00     0.019 A 
ATOM     18  C   UNL d   1     -50.617  15.416  22.592  0.00  0.00     0.019 A 
ATOM     19  C   UNL d   1     -49.424  14.546  23.319  0.00  0.00     0.002 A 
ATOM     20  C   UNL d   1     -49.676  15.261  23.651  0.00  0.00     0.000 A 
ATOM     21  C   UNL d   1     -50.270  15.694  23.289  0.00  0.00     0.002 A 
ENDBRANCH   1  12
BRANCH   1  22
ATOM     22  C   UNL d   1     -49.317  12.349  22.779  0.00  0.00     0.082 A 
ATOM     23  N   UNL d   1     -48.876  11.663  22.777  0.00  0.00    -0.244 NA
ATOM     24  C   UNL d   1     -49.102  11.020  23.231  0.00  0.00     0.099 A 
ATOM     25  C   UNL d   1     -49.799  11.084  23.697  0.00  0.00     0.021 A 
ATOM     26  C   UNL d   1     -50.222  11.752  23.694  0.00  0.00     0.003 A 
ATOM     27  C   UNL d   1     -50.002  12.397  23.244  0.00  0.00     0.019 A 
ENDBRANCH   1  22
TORSDOF 3
ENDMDL
MODEL 2
REMARK VINA RESULT:      -8.0      8.903     10.792
REMARK  3 active torsions:
REMARK  status: ('A' for Active; 'I' for Inactive)
REMARK    1  A    between atoms: C_5  and  C_1 
REMARK    2  A    between atoms: C_2  and  C_5 
REMARK    3  A    between atoms: C_12  and  C_5 
ROOT
ATOM      1  C   UNL d   1     -39.123  14.708  18.123  0.00  0.00     0.021 C 
ENDROOT
BRANCH   1   2
ATOM      2  C   UNL d   1     -39.278  15.159  17.450  0.00  0.00     0.021 A 
ATOM      3  C   UNL d   1     -38.766  15.574  16.932  0.00  0.00     0.082 A 
ATOM      4  N   UNL d   1     -39.242  15.922  16.357  0.00  0.00    -0.246 NA
ATOM      5  C   UNL d   1     -37.940  15.631  16.978  0.00  0.00     0.021 C 
ATOM      6  C   UNL d   1     -40.029  15.732  16.508  0.00  0.00     0.081 A 
ATOM      7  C   UNL d   1     -40.042  15.262  17.184  0.00  0.00     0.019 A 
ATOM      8  C   UNL d   1     -40.744  15.917  16.131  0.00  0.00     0.019 A 
ATOM      9  C   UNL d   1     -40.759  14.978  17.480  0.00  0.00     0.002 A 
ATOM     10  C   UNL d   1     -41.471  15.160  17.108  0.00  0.00     0.000 A 
ATOM     11  C   UNL d   1     -41.451  15.621  16.447  0.00  0.00     0.002 A 
ENDBRANCH   1   2
BRANCH   1  12
ATOM     12  C   UNL d   1     -39.173  15.051  18.882  0.00  0.00     0.021 A 
ATOM     13  C   UNL d   1     -38.647  15.605  19.177  0.00  0.00     0.082 A 
ATOM     14  N   UNL d   1     -38.891  15.800  19.940  0.00  0.00    -0.246 NA
ATOM     15  C   UNL d   1     -37.973  15.922  18.773  0.00  0.00     0.021 C 
ATOM     16  C   UNL d   1     -39.566  15.365  20.110  0.00  0.00     0.081 A 
ATOM     17  C   UNL d   1     -39.740  14.903  19.457  0.00  0.00     0.019 A 
ATOM     18  C   UNL d   1     -40.048  15.330  20.780  0.00  0.00     0.019 A 
ATOM     19  C   UNL d   1     -40.397  14.401  19.469  0.00  0.00     0.002 A 
ATOM     20  C   UNL d   1     -40.880  14.367  20.141  0.00  0.00     0.000 A 
ATOM     21  C   UNL d   1     -40.706  14.829  20.794  0.00  0.00     0.002 A 
ENDBRANCH   1  12
BRANCH   1  22
ATOM     22  C   UNL d   1     -38.919  13.920  18.058  0.00  0.00     0.082 A 
ATOM     23  N   UNL d   1     -39.465  13.373  17.798  0.00  0.00    -0.244 NA
ATOM     24  C   UNL d   1     -39.264  12.582  17.732  0.00  0.00     0.099 A 
ATOM     25  C   UNL d   1     -38.483  12.348  17.939  0.00  0.00     0.021 A 
ATOM     26  C   UNL d   1     -37.959  12.884  18.190  0.00  0.00     0.003 A 
ATOM     27  C   UNL d   1     -38.152  13.673  18.258  0.00  0.00     0.019 A 
ENDBRANCH   1  22
TORSDOF 3
ENDMDL
MODEL 3
REMARK VINA RESULT:      -8.0      1.072      3.281
REMARK  3 active torsions:
REMARK  status: ('A' for Active; 'I' for Inactive)
REMARK    1  A    between atoms: C_5  and  C_1 
REMARK    2  A    between atoms: C_2  and  C_5 
REMARK    3  A    between atoms: C_12  and  C_5 
ROOT
ATOM      1  C   UNL d   1     -49.107  12.863  22.556  0.00  0.00     0.021 C 
ENDROOT
BRANCH   1   2
ATOM      2  C   UNL d   1     -49.503  13.467  22.955  0.00  0.00     0.021 A 
ATOM      3  C   UNL d   1     -50.169  13.450  23.463  0.00  0.00     0.082 A 
ATOM      4  N   UNL d   1     -50.311  14.229  23.693  0.00  0.00    -0.246 NA
ATOM      5  C   UNL d   1     -50.609  12.787  23.697  0.00  0.00     0.021 C 
ATOM      6  C   UNL d   1     -49.752  14.720  23.341  0.00  0.00     0.081 A 
ATOM      7  C   UNL d   1     -49.258  14.242  22.887  0.00  0.00     0.019 A 
ATOM      8  C   UNL d   1     -49.614  15.537  23.363  0.00  0.00     0.019 A 
ATOM      9  C   UNL d   1     -48.634  14.574  22.460  0.00  0.00     0.002 A 
ATOM     10  C   UNL d   1     -48.495  15.387  22.479  0.00  0.00     0.000 A 
ATOM     11  C   UNL d   1     -48.982  15.848  22.925  0.00  0.00     0.002 A 
ENDBRANCH   1   2
BRANCH   1  12
ATOM     12  C   UNL d   1     -48.610  12.338  22.971  0.00  0.00     0.021 A 
ATOM     13  C   UNL d   1     -48.867  11.665  23.361  0.00  0.00     0.082 A 
ATOM     14  N   UNL d   1     -48.206  11.304  23.698  0.00  0.00    -0.246 NA
ATOM     15  C   UNL d   1     -49.665  11.388  23.410  0.00  0.00     0.021 C 
ATOM     16  C   UNL d   1     -47.547  11.756  23.514  0.00  0.00     0.081 A 
ATOM     17  C   UNL d   1     -47.796  12.395  23.065  0.00  0.00     0.019 A 
ATOM     18  C   UNL d   1     -46.746  11.669  23.698  0.00  0.00     0.019 A 
ATOM     19  C   UNL d   1     -47.246  12.952  22.797  0.00  0.00     0.002 A 
ATOM     20  C   UNL d   1     -46.444  12.863  22.982  0.00  0.00     0.000 A 
ATOM     21  C   UNL d   1     -46.195  12.225  23.430  0.00  0.00     0.002 A 
ENDBRANCH   1  12
BRANCH   1  22
ATOM     22  C   UNL d   1     -49.195  12.769  21.750  0.00  0.00     0.082 A 
ATOM     23  N   UNL d   1     -48.567  12.908  21.248  0.00  0.00    -0.244 NA
ATOM     24  C   UNL d   1     -48.650  12.815  20.438  0.00  0.00     0.099 A 
ATOM     25  C   UNL d   1     -49.398  12.573  20.138  0.00  0.00     0.021 A 
ATOM     26  C   UNL d   1     -50.003  12.440  20.630  0.00  0.00     0.003 A 
ATOM     27  C   UNL d   1     -49.926  12.531  21.437  0.00  0.00     0.019 A 
ENDBRANCH   1  22
TORSDOF 3
ENDMDL
MODEL 4
REMARK VINA RESULT:      -8.0      0.999      1.951
REMARK  3 active torsions:
REMARK  status: ('A' for Active; 'I' for Inactive)
REMARK    1  A    between atoms: C_5  and  C_1 
REMARK    2  A    between atoms: C_2  and  C_5 
REMARK    3  A    between atoms: C_12  and  C_5 
ROOT
ATOM      1  C   UNL d   1     -48.828  12.909  22.563  0.00  0.00     0.021 C 
ENDROOT
BRANCH   1   2
ATOM      2  C   UNL d   1     -48.142  12.687  22.965  0.00  0.00     0.021 A 
ATOM      3  C   UNL d   1     -47.975  12.026  23.453  0.00  0.00     0.082 A 
ATOM      4  N   UNL d   1     -47.192  12.105  23.698  0.00  0.00    -0.246 NA
ATOM      5  C   UNL d   1     -48.489  11.408  23.657  0.00  0.00     0.021 C 
ATOM      6  C   UNL d   1     -46.876  12.793  23.375  0.00  0.00     0.081 A 
ATOM      7  C   UNL d   1     -47.469  13.146  22.924  0.00  0.00     0.019 A 
ATOM      8  C   UNL d   1     -46.133  13.157  23.421  0.00  0.00     0.019 A 
ATOM      9  C   UNL d   1     -47.322  13.853  22.524  0.00  0.00     0.002 A 
ATOM     10  C   UNL d   1     -46.584  14.218  22.568  0.00  0.00     0.000 A 
ATOM     11  C   UNL d   1     -46.009  13.867  23.011  0.00  0.00     0.002 A 
ENDBRANCH   1   2
BRANCH   1  12
ATOM     12  C   UNL d   1     -49.466  13.252  22.975  0.00  0.00     0.021 A 
ATOM     13  C   UNL d   1     -50.050  12.829  23.365  0.00  0.00     0.082 A 
ATOM     14  N   UNL d   1     -50.573  13.373  23.698  0.00  0.00    -0.246 NA
ATOM     15  C   UNL d   1     -50.108  11.986  23.417  0.00  0.00     0.021 C 
ATOM     16  C   UNL d   1     -50.308  14.127  23.512  0.00  0.00     0.081 A 
ATOM     17  C   UNL d   1     -49.626  14.053  23.066  0.00  0.00     0.019 A 
ATOM     18  C   UNL d   1     -50.603  14.878  23.692  0.00  0.00     0.019 A 
ATOM     19  C   UNL d   1     -49.231  14.728  22.797  0.00  0.00     0.002 A 
ATOM     20  C   UNL d   1     -49.528  15.480  22.978  0.00  0.00     0.000 A 
ATOM     21  C   UNL d   1     -50.211  15.554  23.424  0.00  0.00     0.002 A 
ENDBRANCH   1  12
BRANCH   1  22
ATOM     22  C   UNL d   1     -48.893  12.796  21.757  0.00  0.00     0.082 A 
ATOM     23  N   UNL d   1     -48.825  13.427  21.246  0.00  0.00    -0.244 NA
ATOM     24  C   UNL d   1     -48.890  13.318  20.436  0.00  0.00     0.099 A 
ATOM     25  C   UNL d   1     -49.028  12.540  20.147  0.00  0.00     0.021 A 
ATOM     26  C   UNL d   1     -49.094  11.933  20.649  0.00  0.00     0.003 A 
ATOM     27  C   UNL d   1     -49.030  12.035  21.456  0.00  0.00     0.019 A 
ENDBRANCH   1  22
TORSDOF 3
ENDMDL
MODEL 5
REMARK VINA RESULT:      -7.9      0.352      2.759
REMARK  3 active torsions:
REMARK  status: ('A' for Active; 'I' for Inactive)
REMARK    1  A    between atoms: C_5  and  C_1 
REMARK    2  A    between atoms: C_2  and  C_5 
REMARK    3  A    between atoms: C_12  and  C_5 
ROOT
ATOM      1  C   UNL d   1     -49.159  13.019  22.300  0.00  0.00     0.021 C 
ENDROOT
BRANCH   1   2
ATOM      2  C   UNL d   1     -49.693  13.619  22.112  0.00  0.00     0.021 A 
ATOM      3  C   UNL d   1     -50.219  13.709  21.466  0.00  0.00     0.082 A 
ATOM      4  N   UNL d   1     -50.613  14.424  21.579  0.00  0.00    -0.246 NA
ATOM      5  C   UNL d   1     -50.332  13.188  20.831  0.00  0.00     0.021 C 
ATOM      6  C   UNL d   1     -50.343  14.773  22.274  0.00  0.00     0.081 A 
ATOM      7  C   UNL d   1     -49.776  14.270  22.597  0.00  0.00     0.019 A 
ATOM      8  C   UNL d   1     -50.527  15.479  22.669  0.00  0.00     0.019 A 
ATOM      9  C   UNL d   1     -49.397  14.467  23.303  0.00  0.00     0.002 A 
ATOM     10  C   UNL d   1     -49.578  15.169  23.698  0.00  0.00     0.000 A 
ATOM     11  C   UNL d   1     -50.134  15.656  23.377  0.00  0.00     0.002 A 
ENDBRANCH   1   2
BRANCH   1  12
ATOM     12  C   UNL d   1     -48.376  13.046  22.014  0.00  0.00     0.021 A 
ATOM     13  C   UNL d   1     -48.153  12.851  21.251  0.00  0.00     0.082 A 
ATOM     14  N   UNL d   1     -47.336  12.950  21.195  0.00  0.00    -0.246 NA
ATOM     15  C   UNL d   1     -48.667  12.593  20.629  0.00  0.00     0.021 C 
ATOM     16  C   UNL d   1     -47.061  13.206  21.924  0.00  0.00     0.081 A 
ATOM     17  C   UNL d   1     -47.702  13.265  22.430  0.00  0.00     0.019 A 
ATOM     18  C   UNL d   1     -46.304  13.395  22.196  0.00  0.00     0.019 A 
ATOM     19  C   UNL d   1     -47.592  13.513  23.212  0.00  0.00     0.002 A 
ATOM     20  C   UNL d   1     -46.833  13.702  23.482  0.00  0.00     0.000 A 
ATOM     21  C   UNL d   1     -46.191  13.643  22.977  0.00  0.00     0.002 A 
ENDBRANCH   1  12
BRANCH   1  22
ATOM     22  C   UNL d   1     -49.387  12.390  22.769  0.00  0.00     0.082 A 
ATOM     23  N   UNL d   1     -50.060  12.440  23.226  0.00  0.00    -0.244 NA
ATOM     24  C   UNL d   1     -50.293  11.811  23.697  0.00  0.00     0.099 A 
ATOM     25  C   UNL d   1     -49.820  11.115  23.698  0.00  0.00     0.021 A 
ATOM     26  C   UNL d   1     -49.168  11.074  23.252  0.00  0.00     0.003 A 
ATOM     27  C   UNL d   1     -48.931  11.696  22.781  0.00  0.00     0.019 A 
ENDBRANCH   1  22
TORSDOF 3
ENDMDL
MODEL 6
REMARK VINA RESULT:      -7.8      9.120     10.669
REMARK  3 active torsions:
REMARK  status: ('A' for Active; 'I' for Inactive)
REMARK    1  A    between atoms: C_5  and  C_1 
REMARK    2  A    between atoms: C_2  and  C_5 
REMARK    3  A    between atoms: C_12  and  C_5 
ROOT
ATOM      1  C   UNL d   1     -39.242  14.415  18.323  0.00  0.00     0.021 C 
ENDROOT
BRANCH   1   2
ATOM      2  C   UNL d   1     -38.845  14.961  18.797  0.00  0.00     0.021 A 
ATOM      3  C   UNL d   1     -38.273  15.544  18.609  0.00  0.00     0.082 A 
ATOM      4  N   UNL d   1     -38.078  15.922  19.315  0.00  0.00    -0.246 NA
ATOM      5  C   UNL d   1     -37.956  15.717  17.862  0.00  0.00     0.021 C 
ATOM      6  C   UNL d   1     -38.514  15.588  19.928  0.00  0.00     0.081 A 
ATOM      7  C   UNL d   1     -38.985  14.996  19.600  0.00  0.00     0.019 A 
ATOM      8  C   UNL d   1     -38.557  15.731  20.743  0.00  0.00     0.019 A 
ATOM      9  C   UNL d   1     -39.491  14.553  20.078  0.00  0.00     0.002 A 
ATOM     10  C   UNL d   1     -39.536  14.694  20.890  0.00  0.00     0.000 A 
ATOM     11  C   UNL d   1     -39.073  15.274  21.204  0.00  0.00     0.002 A 
ENDBRANCH   1   2
BRANCH   1  12
ATOM     12  C   UNL d   1     -40.020  14.569  18.063  0.00  0.00     0.021 A 
ATOM     13  C   UNL d   1     -40.695  14.260  18.408  0.00  0.00     0.082 A 
ATOM     14  N   UNL d   1     -41.344  14.546  17.987  0.00  0.00    -0.246 NA
ATOM     15  C   UNL d   1     -40.725  13.741  19.076  0.00  0.00     0.021 C 
ATOM     16  C   UNL d   1     -41.065  15.029  17.385  0.00  0.00     0.081 A 
ATOM     17  C   UNL d   1     -40.247  15.043  17.432  0.00  0.00     0.019 A 
ATOM     18  C   UNL d   1     -41.451  15.461  16.796  0.00  0.00     0.019 A 
ATOM     19  C   UNL d   1     -39.809  15.490  16.890  0.00  0.00     0.002 A 
ATOM     20  C   UNL d   1     -40.197  15.922  16.301  0.00  0.00     0.000 A 
ATOM     21  C   UNL d   1     -41.015  15.908  16.254  0.00  0.00     0.002 A 
ENDBRANCH   1  12
BRANCH   1  22
ATOM     22  C   UNL d   1     -38.883  13.717  18.102  0.00  0.00     0.082 A 
ATOM     23  N   UNL d   1     -39.024  13.030  18.519  0.00  0.00    -0.244 NA
ATOM     24  C   UNL d   1     -38.666  12.327  18.300  0.00  0.00     0.099 A 
ATOM     25  C   UNL d   1     -38.148  12.331  17.637  0.00  0.00     0.021 A 
ATOM     26  C   UNL d   1     -38.016  13.000  17.237  0.00  0.00     0.003 A 
ATOM     27  C   UNL d   1     -38.370  13.703  17.450  0.00  0.00     0.019 A 
ENDBRANCH   1  22
TORSDOF 3
ENDMDL
MODEL 7
REMARK VINA RESULT:      -6.0      1.314      3.642
REMARK  3 active torsions:
REMARK  status: ('A' for Active; 'I' for Inactive)
REMARK    1  A    between atoms: C_5  and  C_1 
REMARK    2  A    between atoms: C_2  and  C_5 
REMARK    3  A    between atoms: C_12  and  C_5 
ROOT
ATOM      1  C   UNL d   1     -48.217  13.285  22.416  0.00  0.00     0.021 C 
ENDROOT
BRANCH   1   2
ATOM      2  C   UNL d   1     -48.716  12.915  21.873  0.00  0.00     0.021 A 
ATOM      3  C   UNL d   1     -48.579  12.640  21.093  0.00  0.00     0.082 A 
ATOM      4  N   UNL d   1     -49.290  12.319  20.827  0.00  0.00    -0.246 NA
ATOM      5  C   UNL d   1     -47.871  12.676  20.663  0.00  0.00     0.021 C 
ATOM      6  C   UNL d   1     -49.856  12.391  21.420  0.00  0.00     0.081 A 
ATOM      7  C   UNL d   1     -49.494  12.760  22.062  0.00  0.00     0.019 A 
ATOM      8  C   UNL d   1     -50.655  12.176  21.476  0.00  0.00     0.019 A 
ATOM      9  C   UNL d   1     -49.922  12.912  22.751  0.00  0.00     0.002 A 
ATOM     10  C   UNL d   1     -50.717  12.699  22.810  0.00  0.00     0.000 A 
ATOM     11  C   UNL d   1     -51.064  12.339  22.179  0.00  0.00     0.002 A 
ENDBRANCH   1   2
BRANCH   1  12
ATOM     12  C   UNL d   1     -47.616  12.852  22.800  0.00  0.00     0.021 A 
ATOM     13  C   UNL d   1     -47.748  12.294  23.386  0.00  0.00     0.082 A 
ATOM     14  N   UNL d   1     -47.014  11.997  23.617  0.00  0.00    -0.246 NA
ATOM     15  C   UNL d   1     -48.500  12.062  23.698  0.00  0.00     0.021 C 
ATOM     16  C   UNL d   1     -46.435  12.373  23.174  0.00  0.00     0.081 A 
ATOM     17  C   UNL d   1     -46.807  12.901  22.669  0.00  0.00     0.019 A 
ATOM     18  C   UNL d   1     -45.612  12.304  23.163  0.00  0.00     0.019 A 
ATOM     19  C   UNL d   1     -46.359  13.363  22.150  0.00  0.00     0.002 A 
ATOM     20  C   UNL d   1     -45.534  13.293  22.141  0.00  0.00     0.000 A 
ATOM     21  C   UNL d   1     -45.162  12.765  22.645  0.00  0.00     0.002 A 
ENDBRANCH   1  12
BRANCH   1  22
ATOM     22  C   UNL d   1     -48.301  14.079  22.586  0.00  0.00     0.082 A 
ATOM     23  N   UNL d   1     -48.551  14.318  23.325  0.00  0.00    -0.244 NA
ATOM     24  C   UNL d   1     -48.637  15.114  23.499  0.00  0.00     0.099 A 
ATOM     25  C   UNL d   1     -48.462  15.677  22.899  0.00  0.00     0.021 A 
ATOM     26  C   UNL d   1     -48.220  15.438  22.185  0.00  0.00     0.003 A 
ATOM     27  C   UNL d   1     -48.132  14.647  22.005  0.00  0.00     0.019 A 
ENDBRANCH   1  22
TORSDOF 3
ENDMDL
MODEL 8
REMARK VINA RESULT:      -5.7      7.681     10.184
REMARK  3 active torsions:
REMARK  status: ('A' for Active; 'I' for Inactive)
REMARK    1  A    between atoms: C_5  and  C_1 
REMARK    2  A    between atoms: C_2  and  C_5 
REMARK    3  A    between atoms: C_12  and  C_5 
ROOT
ATOM      1  C   UNL d   1     -39.357  14.470  19.556  0.00  0.00     0.021 C 
ENDROOT
BRANCH   1   2
ATOM      2  C   UNL d   1     -39.775  14.680  20.235  0.00  0.00     0.021 A 
ATOM      3  C   UNL d   1     -39.605  15.233  20.841  0.00  0.00     0.082 A 
ATOM      4  N   UNL d   1     -40.231  15.199  21.376  0.00  0.00    -0.246 NA
ATOM      5  C   UNL d   1     -38.940  15.726  20.902  0.00  0.00     0.021 C 
ATOM      6  C   UNL d   1     -40.778  14.642  21.115  0.00  0.00     0.081 A 
ATOM      7  C   UNL d   1     -40.489  14.326  20.410  0.00  0.00     0.019 A 
ATOM      8  C   UNL d   1     -41.502  14.369  21.412  0.00  0.00     0.019 A 
ATOM      9  C   UNL d   1     -40.917  13.747  20.007  0.00  0.00     0.002 A 
ATOM     10  C   UNL d   1     -41.638  13.473  20.300  0.00  0.00     0.000 A 
ATOM     11  C   UNL d   1     -41.914  13.786  20.990  0.00  0.00     0.002 A 
ENDBRANCH   1   2
BRANCH   1  12
ATOM     12  C   UNL d   1     -39.367  14.964  18.884  0.00  0.00     0.021 A 
ATOM     13  C   UNL d   1     -38.834  15.570  18.744  0.00  0.00     0.082 A 
ATOM     14  N   UNL d   1     -39.036  15.920  18.025  0.00  0.00    -0.246 NA
ATOM     15  C   UNL d   1     -38.192  15.799  19.246  0.00  0.00     0.021 C 
ATOM     16  C   UNL d   1     -39.692  15.527  17.725  0.00  0.00     0.081 A 
ATOM     17  C   UNL d   1     -39.896  14.937  18.255  0.00  0.00     0.019 A 
ATOM     18  C   UNL d   1     -40.132  15.630  17.034  0.00  0.00     0.019 A 
ATOM     19  C   UNL d   1     -40.543  14.446  18.099  0.00  0.00     0.002 A 
ATOM     20  C   UNL d   1     -40.984  14.550  17.406  0.00  0.00     0.000 A 
ATOM     21  C   UNL d   1     -40.779  15.140  16.876  0.00  0.00     0.002 A 
ENDBRANCH   1  12
BRANCH   1  22
ATOM     22  C   UNL d   1     -38.927  13.777  19.529  0.00  0.00     0.082 A 
ATOM     23  N   UNL d   1     -39.044  13.241  18.926  0.00  0.00    -0.244 NA
ATOM     24  C   UNL d   1     -38.615  12.544  18.896  0.00  0.00     0.099 A 
ATOM     25  C   UNL d   1     -38.050  12.395  19.502  0.00  0.00     0.021 A 
ATOM     26  C   UNL d   1     -37.941  12.919  20.084  0.00  0.00     0.003 A 
ATOM     27  C   UNL d   1     -38.366  13.615  20.120  0.00  0.00     0.019 A 
ENDBRANCH   1  22
TORSDOF 3
ENDMDL
MODEL 9
REMARK VINA RESULT:      -5.7      1.239      2.460
REMARK  3 active torsions:
REMARK  status: ('A' for Active; 'I' for Inactive)
REMARK    1  A    between atoms: C_5  and  C_1 
REMARK    2  A    between atoms: C_2  and  C_5 
REMARK    3  A    between atoms: C_12  and  C_5 
ROOT
ATOM      1  C   UNL d   1     -49.755  13.077  22.501  0.00  0.00     0.021 C 
ENDROOT
BRANCH   1   2
ATOM      2  C   UNL d   1     -49.577  12.398  22.936  0.00  0.00     0.021 A 
ATOM      3  C   UNL d   1     -50.063  11.890  23.392  0.00  0.00     0.082 A 
ATOM      4  N   UNL d   1     -49.571  11.303  23.696  0.00  0.00    -0.246 NA
ATOM      5  C   UNL d   1     -50.880  11.953  23.519  0.00  0.00     0.021 C 
ATOM      6  C   UNL d   1     -48.800  11.438  23.440  0.00  0.00     0.081 A 
ATOM      7  C   UNL d   1     -48.813  12.116  22.971  0.00  0.00     0.019 A 
ATOM      8  C   UNL d   1     -48.080  11.045  23.562  0.00  0.00     0.019 A 
ATOM      9  C   UNL d   1     -48.117  12.398  22.628  0.00  0.00     0.002 A 
ATOM     10  C   UNL d   1     -47.399  12.010  22.748  0.00  0.00     0.000 A 
ATOM     11  C   UNL d   1     -47.395  11.348  23.207  0.00  0.00     0.002 A 
ENDBRANCH   1   2
BRANCH   1  12
ATOM     12  C   UNL d   1     -49.670  13.832  22.844  0.00  0.00     0.021 A 
ATOM     13  C   UNL d   1     -50.187  14.156  23.390  0.00  0.00     0.082 A 
ATOM     14  N   UNL d   1     -49.905  14.906  23.588  0.00  0.00    -0.246 NA
ATOM     15  C   UNL d   1     -50.886  13.790  23.698  0.00  0.00     0.021 C 
ATOM     16  C   UNL d   1     -49.216  15.039  23.162  0.00  0.00     0.081 A 
ATOM     17  C   UNL d   1     -49.071  14.376  22.703  0.00  0.00     0.019 A 
ATOM     18  C   UNL d   1     -48.698  15.682  23.133  0.00  0.00     0.019 A 
ATOM     19  C   UNL d   1     -48.407  14.351  22.210  0.00  0.00     0.002 A 
ATOM     20  C   UNL d   1     -47.889  14.996  22.182  0.00  0.00     0.000 A 
ATOM     21  C   UNL d   1     -48.034  15.659  22.641  0.00  0.00     0.002 A 
ENDBRANCH   1  12
BRANCH   1  22
ATOM     22  C   UNL d   1     -50.018  13.020  21.730  0.00  0.00     0.082 A 
ATOM     23  N   UNL d   1     -49.506  12.797  21.136  0.00  0.00    -0.244 NA
ATOM     24  C   UNL d   1     -49.766  12.739  20.361  0.00  0.00     0.099 A 
ATOM     25  C   UNL d   1     -50.571  12.915  20.194  0.00  0.00     0.021 A 
ATOM     26  C   UNL d   1     -51.062  13.131  20.775  0.00  0.00     0.003 A 
ATOM     27  C   UNL d   1     -50.810  13.190  21.549  0.00  0.00     0.019 A 
ENDBRANCH   1  22
TORSDOF 3
ENDMDL
