MODEL 1
REMARK VINA RESULT:      -5.8      0.000      0.000
REMARK  6 active torsions:
REMARK  status: ('A' for Active; 'I' for Inactive)
REMARK    1  A    between atoms: S_12  and  C_5 
REMARK    2  A    between atoms: C_16  and  C_6 
REMARK    3  A    between atoms: C_10  and  C_14 
REMARK    4  A    between atoms: C_19  and  S_12 
REMARK    5  A    between atoms: C_13  and  C_19 
REMARK       I    between atoms: N_15  and  C_13 
REMARK    6  A    between atoms: C_22  and  N_15 
ROOT
ATOM      1  C   UNL d   1     -39.575  14.410  19.938  0.00  0.00     0.186 A 
ATOM      2  C   UNL d   1     -40.399  14.297  19.955  0.00  0.00     0.065 A 
ATOM      3  N   UNL d   1     -39.128  14.311  20.621  0.00  0.00    -0.203 NA
ATOM      4  N   UNL d   1     -40.326  13.988  21.340  0.00  0.00    -0.220 NA
ATOM      5  C   UNL d   1     -40.762  14.088  20.656  0.00  0.00     0.116 A 
ATOM      6  C   UNL d   1     -39.503  14.099  21.327  0.00  0.00     0.165 A 
ATOM      7  O   UNL d   1     -39.201  14.622  19.228  0.00  0.00    -0.289 OA
ATOM      8  C   UNL d   1     -40.842  14.398  19.263  0.00  0.00     0.007 A 
ATOM      9  C   UNL d   1     -39.636  14.723  18.540  0.00  0.00     0.102 A 
ATOM     10  C   UNL d   1     -40.464  14.610  18.558  0.00  0.00     0.023 A 
ATOM     11  C   UNL d   1     -39.273  14.931  17.843  0.00  0.00     0.025 A 
ATOM     12  C   UNL d   1     -40.903  14.712  17.866  0.00  0.00     0.002 A 
ATOM     13  C   UNL d   1     -40.523  14.923  17.164  0.00  0.00     0.000 A 
ATOM     14  C   UNL d   1     -39.704  15.035  17.147  0.00  0.00     0.002 A 
ENDROOT
BRANCH   5  15
ATOM     15  S   UNL d   1     -41.585  13.977  20.666  0.00  0.00    -0.062 SA
BRANCH  15  16
ATOM     16  C   UNL d   1     -41.897  13.296  21.017  0.00  0.00     0.099 C 
BRANCH  16  17
ATOM     17  C   UNL d   1     -42.639  13.316  21.370  0.00  0.00     0.286 C 
ATOM     18  N   UNL d   1     -43.103  12.640  21.384  0.00  0.00    -0.208 NA
ATOM     19  O   UNL d   1     -42.920  14.012  21.708  0.00  0.00    -0.265 OA
BRANCH  18  20
ATOM     20  C   UNL d   1     -43.848  12.657  21.738  0.00  0.00     0.085 A 
ATOM     21  C   UNL d   1     -44.417  13.175  21.457  0.00  0.00     0.019 A 
ATOM     22  C   UNL d   1     -45.156  13.196  21.803  0.00  0.00     0.008 A 
ATOM     23  C   UNL d   1     -45.328  12.691  22.441  0.00  0.00     0.065 A 
ATOM     24  C   UNL d   1     -44.754  12.175  22.719  0.00  0.00     0.008 A 
ATOM     25  C   UNL d   1     -44.010  12.155  22.369  0.00  0.00     0.019 A 
BRANCH  23  26
ATOM     26  C   UNL d   1     -46.069  12.708  22.794  0.00  0.00     0.211 C 
ATOM     27  O   UNL d   1     -46.128  12.668  23.615  0.00  0.00    -0.644 OA
ATOM     28  O   UNL d   1     -46.750  12.763  22.335  0.00  0.00    -0.644 OA
ENDBRANCH  23  26
ENDBRANCH  18  20
ENDBRANCH  16  17
ENDBRANCH  15  16
ENDBRANCH   5  15
BRANCH   6  29
ATOM     29  C   UNL d   1     -39.056  14.001  22.010  0.00  0.00     0.036 A 
ATOM     30  C   UNL d   1     -38.995  14.624  22.555  0.00  0.00     0.003 A 
ATOM     31  C   UNL d   1     -38.549  14.530  23.241  0.00  0.00     0.000 A 
ATOM     32  C   UNL d   1     -38.160  13.815  23.386  0.00  0.00     0.000 A 
ATOM     33  C   UNL d   1     -38.217  13.190  22.845  0.00  0.00     0.000 A 
ATOM     34  C   UNL d   1     -38.669  13.289  22.154  0.00  0.00     0.003 A 
ENDBRANCH   6  29
TORSDOF 6
ENDMDL
