MODEL 1
REMARK VINA RESULT:      -6.1      0.000      0.000
REMARK  4 active torsions:
REMARK  status: ('A' for Active; 'I' for Inactive)
REMARK    1  A    between atoms: N_2  and  S_1 
REMARK    2  A    between atoms: C_3  and  S_1 
REMARK    3  A    between atoms: N_6  and  N_2 
REMARK    4  A    between atoms: C_9  and  N_6 
ROOT
ATOM      1  S   UNL d   1     -46.571  13.367  23.096  0.00  0.00     0.302 S 
ATOM      2  O   UNL d   1     -46.282  13.876  23.697  0.00  0.00    -0.197 OA
ATOM      3  O   UNL d   1     -46.856  12.871  22.507  0.00  0.00    -0.197 OA
ENDROOT
BRANCH   1   4
ATOM      4  N   UNL d   1     -45.948  12.831  23.250  0.00  0.00    -0.054 NA
BRANCH   4   5
ATOM      5  N   UNL d   1     -45.953  12.105  22.901  0.00  0.00    -0.137 NA
BRANCH   5   6
ATOM      6  C   UNL d   1     -45.362  11.539  23.085  0.00  0.00     0.104 A 
ATOM      7  C   UNL d   1     -44.593  11.657  22.839  0.00  0.00     0.021 A 
ATOM      8  C   UNL d   1     -44.023  11.091  23.028  0.00  0.00     0.002 A 
ATOM      9  C   UNL d   1     -44.235  10.428  23.456  0.00  0.00     0.000 A 
ATOM     10  C   UNL d   1     -45.001  10.318  23.698  0.00  0.00     0.002 A 
ATOM     11  C   UNL d   1     -43.640   9.856  23.643  0.00  0.00     0.000 C 
ATOM     12  C   UNL d   1     -45.578  10.873  23.515  0.00  0.00     0.021 A 
ENDBRANCH   5   6
ENDBRANCH   4   5
ENDBRANCH   1   4
BRANCH   1  13
ATOM     13  C   UNL d   1     -47.185  13.898  22.946  0.00  0.00     0.107 A 
ATOM     14  C   UNL d   1     -47.021  14.659  22.689  0.00  0.00     0.013 A 
ATOM     15  C   UNL d   1     -47.647  15.176  22.544  0.00  0.00     0.001 A 
ATOM     16  C   UNL d   1     -48.436  14.933  22.656  0.00  0.00     0.000 A 
ATOM     17  C   UNL d   1     -48.604  14.162  22.916  0.00  0.00     0.001 A 
ATOM     18  C   UNL d   1     -49.068  15.465  22.506  0.00  0.00     0.000 C 
ATOM     19  C   UNL d   1     -47.964  13.660  23.055  0.00  0.00     0.013 A 
ENDBRANCH   1  13
TORSDOF 4
ENDMDL
MODEL 2
REMARK VINA RESULT:      -6.1      1.441      2.111
REMARK  4 active torsions:
REMARK  status: ('A' for Active; 'I' for Inactive)
REMARK    1  A    between atoms: N_2  and  S_1 
REMARK    2  A    between atoms: C_3  and  S_1 
REMARK    3  A    between atoms: N_6  and  N_2 
REMARK    4  A    between atoms: C_9  and  N_6 
ROOT
ATOM      1  S   UNL d   1     -48.507  13.748  22.883  0.00  0.00     0.302 S 
ATOM      2  O   UNL d   1     -47.999  14.279  23.289  0.00  0.00    -0.197 OA
ATOM      3  O   UNL d   1     -49.005  13.230  22.487  0.00  0.00    -0.197 OA
ENDROOT
BRANCH   1   4
ATOM      4  N   UNL d   1     -47.865  13.225  22.765  0.00  0.00    -0.054 NA
BRANCH   4   5
ATOM      5  N   UNL d   1     -47.247  13.232  23.282  0.00  0.00    -0.137 NA
BRANCH   5   6
ATOM      6  C   UNL d   1     -46.701  12.595  23.302  0.00  0.00     0.104 A 
ATOM      7  C   UNL d   1     -46.894  11.903  23.688  0.00  0.00     0.021 A 
ATOM      8  C   UNL d   1     -46.346  11.286  23.698  0.00  0.00     0.002 A 
ATOM      9  C   UNL d   1     -45.625  11.377  23.325  0.00  0.00     0.000 A 
ATOM     10  C   UNL d   1     -45.440  12.068  22.943  0.00  0.00     0.002 A 
ATOM     11  C   UNL d   1     -45.073  10.736  23.343  0.00  0.00     0.000 C 
ATOM     12  C   UNL d   1     -45.976  12.689  22.926  0.00  0.00     0.021 A 
ENDBRANCH   5   6
ENDBRANCH   4   5
ENDBRANCH   1   4
BRANCH   1  13
ATOM     13  C   UNL d   1     -49.138  14.265  23.001  0.00  0.00     0.107 A 
ATOM     14  C   UNL d   1     -49.835  13.999  23.342  0.00  0.00     0.013 A 
ATOM     15  C   UNL d   1     -50.456  14.530  23.452  0.00  0.00     0.001 A 
ATOM     16  C   UNL d   1     -50.382  15.327  23.222  0.00  0.00     0.000 A 
ATOM     17  C   UNL d   1     -49.677  15.599  22.876  0.00  0.00     0.001 A 
ATOM     18  C   UNL d   1     -51.018  15.862  23.337  0.00  0.00     0.000 C 
ATOM     19  C   UNL d   1     -49.067  15.052  22.774  0.00  0.00     0.013 A 
ENDBRANCH   1  13
TORSDOF 4
ENDMDL
MODEL 3
REMARK VINA RESULT:      -5.8      1.276      4.834
REMARK  4 active torsions:
REMARK  status: ('A' for Active; 'I' for Inactive)
REMARK    1  A    between atoms: N_2  and  S_1 
REMARK    2  A    between atoms: C_3  and  S_1 
REMARK    3  A    between atoms: N_6  and  N_2 
REMARK    4  A    between atoms: C_9  and  N_6 
ROOT
ATOM      1  S   UNL d   1     -47.195  12.928  23.310  0.00  0.00     0.302 S 
ATOM      2  O   UNL d   1     -47.704  12.349  23.640  0.00  0.00    -0.197 OA
ATOM      3  O   UNL d   1     -46.694  13.493  22.987  0.00  0.00    -0.197 OA
ENDROOT
BRANCH   1   4
ATOM      4  N   UNL d   1     -47.821  13.482  23.316  0.00  0.00    -0.054 NA
BRANCH   4   5
ATOM      5  N   UNL d   1     -48.116  13.756  22.618  0.00  0.00    -0.137 NA
BRANCH   5   6
ATOM      6  C   UNL d   1     -48.855  14.152  22.594  0.00  0.00     0.104 A 
ATOM      7  C   UNL d   1     -49.474  13.837  22.165  0.00  0.00     0.021 A 
ATOM      8  C   UNL d   1     -50.194  14.240  22.152  0.00  0.00     0.002 A 
ATOM      9  C   UNL d   1     -50.276  14.940  22.564  0.00  0.00     0.000 A 
ATOM     10  C   UNL d   1     -49.657  15.247  22.988  0.00  0.00     0.002 A 
ATOM     11  C   UNL d   1     -51.020  15.341  22.542  0.00  0.00     0.000 C 
ATOM     12  C   UNL d   1     -48.935  14.856  23.009  0.00  0.00     0.021 A 
ENDBRANCH   5   6
ENDBRANCH   4   5
ENDBRANCH   1   4
BRANCH   1  13
ATOM     13  C   UNL d   1     -46.579  12.379  23.305  0.00  0.00     0.107 A 
ATOM     14  C   UNL d   1     -45.871  12.553  22.929  0.00  0.00     0.013 A 
ATOM     15  C   UNL d   1     -45.266  11.993  22.935  0.00  0.00     0.001 A 
ATOM     16  C   UNL d   1     -45.368  11.258  23.316  0.00  0.00     0.000 A 
ATOM     17  C   UNL d   1     -46.084  11.080  23.697  0.00  0.00     0.001 A 
ATOM     18  C   UNL d   1     -44.747  10.693  23.317  0.00  0.00     0.000 C 
ATOM     19  C   UNL d   1     -46.677  11.654  23.680  0.00  0.00     0.013 A 
ENDBRANCH   1  13
TORSDOF 4
ENDMDL
MODEL 4
REMARK VINA RESULT:      -5.6      7.521      7.925
REMARK  4 active torsions:
REMARK  status: ('A' for Active; 'I' for Inactive)
REMARK    1  A    between atoms: N_2  and  S_1 
REMARK    2  A    between atoms: C_3  and  S_1 
REMARK    3  A    between atoms: N_6  and  N_2 
REMARK    4  A    between atoms: C_9  and  N_6 
ROOT
ATOM      1  S   UNL d   1     -39.820  14.458  19.053  0.00  0.00     0.302 S 
ATOM      2  O   UNL d   1     -39.137  14.904  18.857  0.00  0.00    -0.197 OA
ATOM      3  O   UNL d   1     -40.490  14.023  19.243  0.00  0.00    -0.197 OA
ENDROOT
BRANCH   1   4
ATOM      4  N   UNL d   1     -39.405  14.099  19.684  0.00  0.00    -0.054 NA
BRANCH   4   5
ATOM      5  N   UNL d   1     -39.355  14.479  20.393  0.00  0.00    -0.137 NA
BRANCH   5   6
ATOM      6  C   UNL d   1     -39.004  14.101  21.055  0.00  0.00     0.104 A 
ATOM      7  C   UNL d   1     -38.272  13.746  20.982  0.00  0.00     0.021 A 
ATOM      8  C   UNL d   1     -37.941  13.379  21.643  0.00  0.00     0.002 A 
ATOM      9  C   UNL d   1     -38.346  13.376  22.352  0.00  0.00     0.000 A 
ATOM     10  C   UNL d   1     -39.073  13.730  22.417  0.00  0.00     0.002 A 
ATOM     11  C   UNL d   1     -37.994  12.995  23.021  0.00  0.00     0.000 C 
ATOM     12  C   UNL d   1     -39.413  14.099  21.767  0.00  0.00     0.021 A 
ENDBRANCH   5   6
ENDBRANCH   4   5
ENDBRANCH   1   4
BRANCH   1  13
ATOM     13  C   UNL d   1     -40.227  14.813  18.430  0.00  0.00     0.107 A 
ATOM     14  C   UNL d   1     -40.261  14.449  17.695  0.00  0.00     0.013 A 
ATOM     15  C   UNL d   1     -40.672  14.819  17.083  0.00  0.00     0.001 A 
ATOM     16  C   UNL d   1     -41.050  15.552  17.205  0.00  0.00     0.000 A 
ATOM     17  C   UNL d   1     -41.017  15.922  17.948  0.00  0.00     0.001 A 
ATOM     18  C   UNL d   1     -41.467  15.922  16.578  0.00  0.00     0.000 C 
ATOM     19  C   UNL d   1     -40.601  15.536  18.547  0.00  0.00     0.013 A 
ENDBRANCH   1  13
TORSDOF 4
ENDMDL
MODEL 5
REMARK VINA RESULT:      -5.4      7.472      8.716
REMARK  4 active torsions:
REMARK  status: ('A' for Active; 'I' for Inactive)
REMARK    1  A    between atoms: N_2  and  S_1 
REMARK    2  A    between atoms: C_3  and  S_1 
REMARK    3  A    between atoms: N_6  and  N_2 
REMARK    4  A    between atoms: C_9  and  N_6 
ROOT
ATOM      1  S   UNL d   1     -39.307  14.512  20.405  0.00  0.00     0.302 S 
ATOM      2  O   UNL d   1     -40.073  14.278  20.656  0.00  0.00    -0.197 OA
ATOM      3  O   UNL d   1     -38.557  14.739  20.161  0.00  0.00    -0.197 OA
ENDROOT
BRANCH   1   4
ATOM      4  N   UNL d   1     -39.643  14.906  19.749  0.00  0.00    -0.054 NA
BRANCH   4   5
ATOM      5  N   UNL d   1     -40.144  14.508  19.260  0.00  0.00    -0.137 NA
BRANCH   5   6
ATOM      6  C   UNL d   1     -40.418  14.863  18.550  0.00  0.00     0.104 A 
ATOM      7  C   UNL d   1     -40.792  15.588  18.573  0.00  0.00     0.021 A 
ATOM      8  C   UNL d   1     -41.055  15.922  17.865  0.00  0.00     0.002 A 
ATOM      9  C   UNL d   1     -40.939  15.526  17.161  0.00  0.00     0.000 A 
ATOM     10  C   UNL d   1     -40.566  14.806  17.146  0.00  0.00     0.002 A 
ATOM     11  C   UNL d   1     -41.214  15.881  16.444  0.00  0.00     0.000 C 
ATOM     12  C   UNL d   1     -40.300  14.462  17.842  0.00  0.00     0.021 A 
ENDBRANCH   5   6
ENDBRANCH   4   5
ENDBRANCH   1   4
BRANCH   1  13
ATOM     13  C   UNL d   1     -38.978  14.122  21.053  0.00  0.00     0.107 A 
ATOM     14  C   UNL d   1     -39.316  14.195  21.796  0.00  0.00     0.013 A 
ATOM     15  C   UNL d   1     -38.974  13.798  22.433  0.00  0.00     0.001 A 
ATOM     16  C   UNL d   1     -38.294  13.328  22.327  0.00  0.00     0.000 A 
ATOM     17  C   UNL d   1     -37.950  13.252  21.575  0.00  0.00     0.001 A 
ATOM     18  C   UNL d   1     -37.951  12.927  22.980  0.00  0.00     0.000 C 
ATOM     19  C   UNL d   1     -38.308  13.657  20.951  0.00  0.00     0.013 A 
ENDBRANCH   1  13
TORSDOF 4
ENDMDL
MODEL 6
REMARK VINA RESULT:      -5.4      1.638      2.295
REMARK  4 active torsions:
REMARK  status: ('A' for Active; 'I' for Inactive)
REMARK    1  A    between atoms: N_2  and  S_1 
REMARK    2  A    between atoms: C_3  and  S_1 
REMARK    3  A    between atoms: N_6  and  N_2 
REMARK    4  A    between atoms: C_9  and  N_6 
ROOT
ATOM      1  S   UNL d   1     -47.949  12.940  22.563  0.00  0.00     0.302 S 
ATOM      2  O   UNL d   1     -48.221  12.681  21.813  0.00  0.00    -0.197 OA
ATOM      3  O   UNL d   1     -47.685  13.194  23.298  0.00  0.00    -0.197 OA
ENDROOT
BRANCH   1   4
ATOM      4  N   UNL d   1     -47.164  12.948  22.275  0.00  0.00    -0.054 NA
BRANCH   4   5
ATOM      5  N   UNL d   1     -46.549  12.918  22.796  0.00  0.00    -0.137 NA
BRANCH   5   6
ATOM      6  C   UNL d   1     -45.763  12.819  22.521  0.00  0.00     0.104 A 
ATOM      7  C   UNL d   1     -45.431  13.374  22.022  0.00  0.00     0.021 A 
ATOM      8  C   UNL d   1     -44.657  13.262  21.761  0.00  0.00     0.002 A 
ATOM      9  C   UNL d   1     -44.237  12.604  22.003  0.00  0.00     0.000 A 
ATOM     10  C   UNL d   1     -44.573  12.057  22.498  0.00  0.00     0.002 A 
ATOM     11  C   UNL d   1     -43.444  12.503  21.727  0.00  0.00     0.000 C 
ATOM     12  C   UNL d   1     -45.343  12.157  22.765  0.00  0.00     0.021 A 
ENDBRANCH   5   6
ENDBRANCH   4   5
ENDBRANCH   1   4
BRANCH   1  13
ATOM     13  C   UNL d   1     -48.724  12.931  22.845  0.00  0.00     0.107 A 
ATOM     14  C   UNL d   1     -49.101  13.632  23.044  0.00  0.00     0.013 A 
ATOM     15  C   UNL d   1     -49.876  13.604  23.324  0.00  0.00     0.001 A 
ATOM     16  C   UNL d   1     -50.275  12.877  23.405  0.00  0.00     0.000 A 
ATOM     17  C   UNL d   1     -49.895  12.166  23.203  0.00  0.00     0.001 A 
ATOM     18  C   UNL d   1     -51.064  12.856  23.690  0.00  0.00     0.000 C 
ATOM     19  C   UNL d   1     -49.119  12.215  22.925  0.00  0.00     0.013 A 
ENDBRANCH   1  13
TORSDOF 4
ENDMDL
MODEL 7
REMARK VINA RESULT:      -5.1      8.136      9.442
REMARK  4 active torsions:
REMARK  status: ('A' for Active; 'I' for Inactive)
REMARK    1  A    between atoms: N_2  and  S_1 
REMARK    2  A    between atoms: C_3  and  S_1 
REMARK    3  A    between atoms: N_6  and  N_2 
REMARK    4  A    between atoms: C_9  and  N_6 
ROOT
ATOM      1  S   UNL d   1     -39.145  14.082  17.647  0.00  0.00     0.302 S 
ATOM      2  O   UNL d   1     -38.545  14.650  17.790  0.00  0.00    -0.197 OA
ATOM      3  O   UNL d   1     -39.732  13.525  17.505  0.00  0.00    -0.197 OA
ENDROOT
BRANCH   1   4
ATOM      4  N   UNL d   1     -39.454  14.216  18.412  0.00  0.00    -0.054 NA
BRANCH   4   5
ATOM      5  N   UNL d   1     -40.178  14.560  18.495  0.00  0.00    -0.137 NA
BRANCH   5   6
ATOM      6  C   UNL d   1     -40.436  14.836  19.244  0.00  0.00     0.104 A 
ATOM      7  C   UNL d   1     -40.642  14.303  19.827  0.00  0.00     0.021 A 
ATOM      8  C   UNL d   1     -40.894  14.592  20.558  0.00  0.00     0.002 A 
ATOM      9  C   UNL d   1     -40.932  15.397  20.686  0.00  0.00     0.000 A 
ATOM     10  C   UNL d   1     -40.724  15.921  20.102  0.00  0.00     0.002 A 
ATOM     11  C   UNL d   1     -41.191  15.679  21.440  0.00  0.00     0.000 C 
ATOM     12  C   UNL d   1     -40.473  15.647  19.370  0.00  0.00     0.021 A 
ENDBRANCH   5   6
ENDBRANCH   4   5
ENDBRANCH   1   4
BRANCH   1  13
ATOM     13  C   UNL d   1     -38.839  13.952  16.892  0.00  0.00     0.107 A 
ATOM     14  C   UNL d   1     -38.318  13.334  16.757  0.00  0.00     0.013 A 
ATOM     15  C   UNL d   1     -38.021  13.219  15.996  0.00  0.00     0.001 A 
ATOM     16  C   UNL d   1     -38.245  13.721  15.370  0.00  0.00     0.000 A 
ATOM     17  C   UNL d   1     -38.773  14.348  15.505  0.00  0.00     0.001 A 
ATOM     18  C   UNL d   1     -37.940  13.598  14.598  0.00  0.00     0.000 C 
ATOM     19  C   UNL d   1     -39.059  14.447  16.273  0.00  0.00     0.013 A 
ENDBRANCH   1  13
TORSDOF 4
ENDMDL
MODEL 8
REMARK VINA RESULT:      -4.9      8.020      9.312
REMARK  4 active torsions:
REMARK  status: ('A' for Active; 'I' for Inactive)
REMARK    1  A    between atoms: N_2  and  S_1 
REMARK    2  A    between atoms: C_3  and  S_1 
REMARK    3  A    between atoms: N_6  and  N_2 
REMARK    4  A    between atoms: C_9  and  N_6 
ROOT
ATOM      1  S   UNL d   1     -38.850  13.883  18.357  0.00  0.00     0.302 S 
ATOM      2  O   UNL d   1     -39.417  13.282  18.210  0.00  0.00    -0.197 OA
ATOM      3  O   UNL d   1     -38.295  14.471  18.498  0.00  0.00    -0.197 OA
ENDROOT
BRANCH   1   4
ATOM      4  N   UNL d   1     -39.053  13.876  19.168  0.00  0.00    -0.054 NA
BRANCH   4   5
ATOM      5  N   UNL d   1     -38.501  14.081  19.717  0.00  0.00    -0.137 NA
BRANCH   5   6
ATOM      6  C   UNL d   1     -38.639  13.940  20.533  0.00  0.00     0.104 A 
ATOM      7  C   UNL d   1     -38.171  13.413  20.942  0.00  0.00     0.021 A 
ATOM      8  C   UNL d   1     -38.320  13.286  21.744  0.00  0.00     0.002 A 
ATOM      9  C   UNL d   1     -38.929  13.688  22.112  0.00  0.00     0.000 A 
ATOM     10  C   UNL d   1     -39.391  14.211  21.699  0.00  0.00     0.002 A 
ATOM     11  C   UNL d   1     -39.071  13.548  22.934  0.00  0.00     0.000 C 
ATOM     12  C   UNL d   1     -39.253  14.345  20.901  0.00  0.00     0.021 A 
ENDBRANCH   5   6
ENDBRANCH   4   5
ENDBRANCH   1   4
BRANCH   1  13
ATOM     13  C   UNL d   1     -38.652  13.888  17.556  0.00  0.00     0.107 A 
ATOM     14  C   UNL d   1     -38.167  13.304  17.245  0.00  0.00     0.013 A 
ATOM     15  C   UNL d   1     -37.979  13.325  16.442  0.00  0.00     0.001 A 
ATOM     16  C   UNL d   1     -38.276  13.929  15.950  0.00  0.00     0.000 A 
ATOM     17  C   UNL d   1     -38.767  14.521  16.263  0.00  0.00     0.001 A 
ATOM     18  C   UNL d   1     -38.080  13.943  15.134  0.00  0.00     0.000 C 
ATOM     19  C   UNL d   1     -38.943  14.483  17.069  0.00  0.00     0.013 A 
ENDBRANCH   1  13
TORSDOF 4
ENDMDL
MODEL 9
REMARK VINA RESULT:      -4.8      7.846      9.250
REMARK  4 active torsions:
REMARK  status: ('A' for Active; 'I' for Inactive)
REMARK    1  A    between atoms: N_2  and  S_1 
REMARK    2  A    between atoms: C_3  and  S_1 
REMARK    3  A    between atoms: N_6  and  N_2 
REMARK    4  A    between atoms: C_9  and  N_6 
ROOT
ATOM      1  S   UNL d   1     -38.721  14.077  19.907  0.00  0.00     0.302 S 
ATOM      2  O   UNL d   1     -37.940  14.373  19.990  0.00  0.00    -0.197 OA
ATOM      3  O   UNL d   1     -39.485  13.788  19.827  0.00  0.00    -0.197 OA
ENDROOT
BRANCH   1   4
ATOM      4  N   UNL d   1     -38.683  14.211  19.082  0.00  0.00    -0.054 NA
BRANCH   4   5
ATOM      5  N   UNL d   1     -38.863  13.612  18.574  0.00  0.00    -0.137 NA
BRANCH   5   6
ATOM      6  C   UNL d   1     -38.689  13.681  17.756  0.00  0.00     0.104 A 
ATOM      7  C   UNL d   1     -39.007  14.294  17.321  0.00  0.00     0.021 A 
ATOM      8  C   UNL d   1     -38.826  14.347  16.518  0.00  0.00     0.002 A 
ATOM      9  C   UNL d   1     -38.337  13.791  16.173  0.00  0.00     0.000 A 
ATOM     10  C   UNL d   1     -38.025  13.184  16.612  0.00  0.00     0.002 A 
ATOM     11  C   UNL d   1     -38.161  13.858  15.349  0.00  0.00     0.000 C 
ATOM     12  C   UNL d   1     -38.197  13.120  17.412  0.00  0.00     0.021 A 
ENDBRANCH   5   6
ENDBRANCH   4   5
ENDBRANCH   1   4
BRANCH   1  13
ATOM     13  C   UNL d   1     -38.755  13.947  20.721  0.00  0.00     0.107 A 
ATOM     14  C   UNL d   1     -39.312  14.337  21.180  0.00  0.00     0.013 A 
ATOM     15  C   UNL d   1     -39.332  14.194  21.992  0.00  0.00     0.001 A 
ATOM     16  C   UNL d   1     -38.797  13.662  22.345  0.00  0.00     0.000 A 
ATOM     17  C   UNL d   1     -38.233  13.266  21.882  0.00  0.00     0.001 A 
ATOM     18  C   UNL d   1     -38.824  13.522  23.172  0.00  0.00     0.000 C 
ATOM     19  C   UNL d   1     -38.228  13.423  21.071  0.00  0.00     0.013 A 
ENDBRANCH   1  13
TORSDOF 4
ENDMDL
