MODEL 1
REMARK VINA RESULT:       2.2      0.000      0.000
REMARK  6 active torsions:
REMARK  status: ('A' for Active; 'I' for Inactive)
REMARK    1  A    between atoms: C_7  and  C_2 
REMARK    2  A    between atoms: C_16  and  N_3 
REMARK    3  A    between atoms: O_17  and  C_9 
REMARK    4  A    between atoms: O_19  and  C_10 
REMARK    5  A    between atoms: O_18  and  C_11 
REMARK    6  A    between atoms: C_25  and  C_16 
ROOT
ATOM      1  N   UNL d   1      57.733   0.678  32.462  0.00  0.00    -0.206 NA
ATOM      2  C   UNL d   1      57.212   0.173  32.864  0.00  0.00     0.151 A 
ATOM      3  N   UNL d   1      57.067  -0.483  32.376  0.00  0.00    -0.273 N 
ATOM      4  C   UNL d   1      57.499  -0.375  31.683  0.00  0.00     0.185 A 
ATOM      5  C   UNL d   1      57.909   0.338  31.732  0.00  0.00     0.199 A 
ATOM      6  N   UNL d   1      57.574  -0.842  30.997  0.00  0.00    -0.224 NA
ATOM      7  N   UNL d   1      58.389   0.586  31.111  0.00  0.00    -0.223 NA
ATOM      8  C   UNL d   1      58.056  -0.589  30.376  0.00  0.00     0.101 A 
ATOM      9  C   UNL d   1      58.463   0.126  30.436  0.00  0.00     0.101 A 
ATOM     10  C   UNL d   1      58.126  -1.060  29.697  0.00  0.00     0.021 A 
ATOM     11  C   UNL d   1      58.940   0.373  29.819  0.00  0.00     0.021 A 
ATOM     12  C   UNL d   1      59.015  -0.088  29.141  0.00  0.00     0.002 A 
ATOM     13  C   UNL d   1      58.608  -0.804  29.081  0.00  0.00     0.002 A 
ENDROOT
BRANCH   2  14
ATOM     14  C   UNL d   1      56.896   0.300  33.610  0.00  0.00     0.039 A 
ATOM     15  C   UNL d   1      56.055   0.344  33.705  0.00  0.00     0.029 A 
ATOM     16  C   UNL d   1      55.717   0.472  34.455  0.00  0.00     0.118 A 
ATOM     17  C   UNL d   1      56.225   0.555  35.113  0.00  0.00     0.138 A 
ATOM     18  C   UNL d   1      57.066   0.510  35.018  0.00  0.00     0.118 A 
ATOM     19  C   UNL d   1      57.408   0.382  34.264  0.00  0.00     0.029 A 
BRANCH  16  20
ATOM     20  O   UNL d   1      54.895   0.516  34.548  0.00  0.00    -0.326 OA
ATOM     21  C   UNL d   1      54.265   0.120  33.812  0.00  0.00     0.181 C 
ENDBRANCH  16  20
BRANCH  17  22
ATOM     22  O   UNL d   1      55.915   0.681  35.860  0.00  0.00    -0.324 OA
ATOM     23  C   UNL d   1      54.892   0.429  36.107  0.00  0.00     0.182 C 
ENDBRANCH  17  22
BRANCH  18  24
ATOM     24  O   UNL d   1      57.578   0.593  35.672  0.00  0.00    -0.326 OA
ATOM     25  C   UNL d   1      58.675   0.681  35.533  0.00  0.00     0.181 C 
ENDBRANCH  18  24
ENDBRANCH   2  14
BRANCH   3  26
ATOM     26  C   UNL d   1      56.583  -1.119  32.555  0.00  0.00     0.083 C 
BRANCH  26  27
ATOM     27  C   UNL d   1      55.922  -1.277  32.094  0.00  0.00     0.019 C 
ATOM     28  C   UNL d   1      55.470  -1.949  32.238  0.00  0.00     0.002 C 
ENDBRANCH  26  27
ENDBRANCH   3  26
TORSDOF 6
ENDMDL
MODEL 2
REMARK VINA RESULT:       3.8      2.954      4.696
REMARK  6 active torsions:
REMARK  status: ('A' for Active; 'I' for Inactive)
REMARK    1  A    between atoms: C_7  and  C_2 
REMARK    2  A    between atoms: C_16  and  N_3 
REMARK    3  A    between atoms: O_17  and  C_9 
REMARK    4  A    between atoms: O_19  and  C_10 
REMARK    5  A    between atoms: O_18  and  C_11 
REMARK    6  A    between atoms: C_25  and  C_16 
ROOT
ATOM      1  N   UNL d   1      58.435  -2.694  29.958  0.00  0.00    -0.206 NA
ATOM      2  C   UNL d   1      58.682  -1.903  29.950  0.00  0.00     0.151 A 
ATOM      3  N   UNL d   1      59.441  -1.877  29.613  0.00  0.00    -0.273 N 
ATOM      4  C   UNL d   1      59.650  -2.651  29.418  0.00  0.00     0.185 A 
ATOM      5  C   UNL d   1      59.033  -3.155  29.629  0.00  0.00     0.199 A 
ATOM      6  N   UNL d   1      60.335  -2.970  29.069  0.00  0.00    -0.224 NA
ATOM      7  N   UNL d   1      59.094  -3.965  29.496  0.00  0.00    -0.223 NA
ATOM      8  C   UNL d   1      60.392  -3.782  28.937  0.00  0.00     0.101 A 
ATOM      9  C   UNL d   1      59.768  -4.279  29.152  0.00  0.00     0.101 A 
ATOM     10  C   UNL d   1      61.078  -4.091  28.589  0.00  0.00     0.021 A 
ATOM     11  C   UNL d   1      59.828  -5.084  29.020  0.00  0.00     0.021 A 
ATOM     12  C   UNL d   1      60.506  -5.399  28.674  0.00  0.00     0.002 A 
ATOM     13  C   UNL d   1      61.130  -4.903  28.459  0.00  0.00     0.002 A 
ENDROOT
BRANCH   2  14
ATOM     14  C   UNL d   1      58.255  -1.259  30.226  0.00  0.00     0.039 A 
ATOM     15  C   UNL d   1      58.063  -1.208  31.050  0.00  0.00     0.029 A 
ATOM     16  C   UNL d   1      57.630  -0.562  31.347  0.00  0.00     0.118 A 
ATOM     17  C   UNL d   1      57.389   0.036  30.815  0.00  0.00     0.138 A 
ATOM     18  C   UNL d   1      57.581  -0.015  29.992  0.00  0.00     0.118 A 
ATOM     19  C   UNL d   1      58.017  -0.665  29.690  0.00  0.00     0.029 A 
BRANCH  16  20
ATOM     20  O   UNL d   1      57.442  -0.512  32.153  0.00  0.00    -0.326 OA
ATOM     21  C   UNL d   1      56.625  -1.045  32.532  0.00  0.00     0.181 C 
ENDBRANCH  16  20
BRANCH  17  22
ATOM     22  O   UNL d   1      56.963   0.680  31.085  0.00  0.00    -0.324 OA
ATOM     23  C   UNL d   1      56.372   0.639  31.991  0.00  0.00     0.182 C 
ENDBRANCH  17  22
BRANCH  18  24
ATOM     24  O   UNL d   1      57.343   0.579  29.456  0.00  0.00    -0.326 OA
ATOM     25  C   UNL d   1      57.812   0.669  28.455  0.00  0.00     0.181 C 
ENDBRANCH  18  24
ENDBRANCH   2  14
BRANCH   3  26
ATOM     26  C   UNL d   1      59.895  -1.206  29.497  0.00  0.00     0.083 C 
BRANCH  26  27
ATOM     27  C   UNL d   1      60.703  -1.224  29.642  0.00  0.00     0.019 C 
ATOM     28  C   UNL d   1      61.018  -0.794  30.269  0.00  0.00     0.002 C 
ENDBRANCH  26  27
ENDBRANCH   3  26
TORSDOF 6
ENDMDL
MODEL 3
REMARK VINA RESULT:       4.4      2.290      4.732
REMARK  6 active torsions:
REMARK  status: ('A' for Active; 'I' for Inactive)
REMARK    1  A    between atoms: C_7  and  C_2 
REMARK    2  A    between atoms: C_16  and  N_3 
REMARK    3  A    between atoms: O_17  and  C_9 
REMARK    4  A    between atoms: O_19  and  C_10 
REMARK    5  A    between atoms: O_18  and  C_11 
REMARK    6  A    between atoms: C_25  and  C_16 
ROOT
ATOM      1  N   UNL d   1      58.192   0.468  33.370  0.00  0.00    -0.206 NA
ATOM      2  C   UNL d   1      58.028   0.519  32.558  0.00  0.00     0.151 A 
ATOM      3  N   UNL d   1      57.206   0.596  32.469  0.00  0.00    -0.273 N 
ATOM      4  C   UNL d   1      56.875   0.590  33.224  0.00  0.00     0.185 A 
ATOM      5  C   UNL d   1      57.478   0.511  33.780  0.00  0.00     0.199 A 
ATOM      6  N   UNL d   1      56.086   0.647  33.485  0.00  0.00    -0.224 NA
ATOM      7  N   UNL d   1      57.304   0.489  34.583  0.00  0.00    -0.223 NA
ATOM      8  C   UNL d   1      55.915   0.624  34.292  0.00  0.00     0.101 A 
ATOM      9  C   UNL d   1      56.527   0.545  34.841  0.00  0.00     0.101 A 
ATOM     10  C   UNL d   1      55.127   0.682  34.544  0.00  0.00     0.021 A 
ATOM     11  C   UNL d   1      56.354   0.524  35.640  0.00  0.00     0.021 A 
ATOM     12  C   UNL d   1      55.574   0.580  35.898  0.00  0.00     0.002 A 
ATOM     13  C   UNL d   1      54.962   0.659  35.350  0.00  0.00     0.002 A 
ENDROOT
BRANCH   2  14
ATOM     14  C   UNL d   1      58.579   0.499  31.951  0.00  0.00     0.039 A 
ATOM     15  C   UNL d   1      58.319   0.374  31.155  0.00  0.00     0.029 A 
ATOM     16  C   UNL d   1      58.864   0.351  30.527  0.00  0.00     0.118 A 
ATOM     17  C   UNL d   1      59.676   0.453  30.698  0.00  0.00     0.138 A 
ATOM     18  C   UNL d   1      59.936   0.578  31.495  0.00  0.00     0.118 A 
ATOM     19  C   UNL d   1      59.389   0.602  32.129  0.00  0.00     0.029 A 
BRANCH  16  20
ATOM     20  O   UNL d   1      58.609   0.228  29.748  0.00  0.00    -0.326 OA
ATOM     21  C   UNL d   1      58.413  -0.742  29.409  0.00  0.00     0.181 C 
ENDBRANCH  16  20
BRANCH  17  22
ATOM     22  O   UNL d   1      60.230   0.434  30.097  0.00  0.00    -0.324 OA
ATOM     23  C   UNL d   1      61.057  -0.264  30.099  0.00  0.00     0.182 C 
ENDBRANCH  17  22
BRANCH  18  24
ATOM     24  O   UNL d   1      60.746   0.682  31.672  0.00  0.00    -0.326 OA
ATOM     25  C   UNL d   1      61.124   0.567  32.708  0.00  0.00     0.181 C 
ENDBRANCH  18  24
ENDBRANCH   2  14
BRANCH   3  26
ATOM     26  C   UNL d   1      56.802   0.664  31.760  0.00  0.00     0.083 C 
BRANCH  26  27
ATOM     27  C   UNL d   1      56.071   0.301  31.666  0.00  0.00     0.019 C 
ATOM     28  C   UNL d   1      55.501   0.643  31.181  0.00  0.00     0.002 C 
ENDBRANCH  26  27
ENDBRANCH   3  26
TORSDOF 6
ENDMDL
MODEL 4
REMARK VINA RESULT:       5.0      2.257      5.025
REMARK  6 active torsions:
REMARK  status: ('A' for Active; 'I' for Inactive)
REMARK    1  A    between atoms: C_7  and  C_2 
REMARK    2  A    between atoms: C_16  and  N_3 
REMARK    3  A    between atoms: O_17  and  C_9 
REMARK    4  A    between atoms: O_19  and  C_10 
REMARK    5  A    between atoms: O_18  and  C_11 
REMARK    6  A    between atoms: C_25  and  C_16 
ROOT
ATOM      1  N   UNL d   1      55.940  -0.462  32.100  0.00  0.00    -0.206 NA
ATOM      2  C   UNL d   1      56.733  -0.272  31.948  0.00  0.00     0.151 A 
ATOM      3  N   UNL d   1      57.042   0.094  32.627  0.00  0.00    -0.273 N 
ATOM      4  C   UNL d   1      56.437   0.125  33.186  0.00  0.00     0.185 A 
ATOM      5  C   UNL d   1      55.759  -0.215  32.865  0.00  0.00     0.199 A 
ATOM      6  N   UNL d   1      56.414   0.425  33.963  0.00  0.00    -0.224 NA
ATOM      7  N   UNL d   1      55.066  -0.259  33.307  0.00  0.00    -0.223 NA
ATOM      8  C   UNL d   1      55.717   0.380  34.402  0.00  0.00     0.101 A 
ATOM      9  C   UNL d   1      55.043   0.037  34.071  0.00  0.00     0.101 A 
ATOM     10  C   UNL d   1      55.702   0.682  35.174  0.00  0.00     0.021 A 
ATOM     11  C   UNL d   1      54.354  -0.006  34.510  0.00  0.00     0.021 A 
ATOM     12  C   UNL d   1      54.331   0.291  35.279  0.00  0.00     0.002 A 
ATOM     13  C   UNL d   1      55.005   0.634  35.609  0.00  0.00     0.002 A 
ENDROOT
BRANCH   2  14
ATOM     14  C   UNL d   1      57.141  -0.420  31.251  0.00  0.00     0.039 A 
ATOM     15  C   UNL d   1      57.175  -1.210  30.948  0.00  0.00     0.029 A 
ATOM     16  C   UNL d   1      57.584  -1.377  30.243  0.00  0.00     0.118 A 
ATOM     17  C   UNL d   1      57.961  -0.749  29.840  0.00  0.00     0.138 A 
ATOM     18  C   UNL d   1      57.926   0.041  30.144  0.00  0.00     0.118 A 
ATOM     19  C   UNL d   1      57.515   0.212  30.854  0.00  0.00     0.029 A 
BRANCH  16  20
ATOM     20  O   UNL d   1      57.618  -2.150  29.945  0.00  0.00    -0.326 OA
ATOM     21  C   UNL d   1      58.454  -2.749  30.140  0.00  0.00     0.181 C 
ENDBRANCH  16  20
BRANCH  17  22
ATOM     22  O   UNL d   1      58.369  -0.891  29.145  0.00  0.00    -0.324 OA
ATOM     23  C   UNL d   1      58.497  -1.889  28.747  0.00  0.00     0.182 C 
ENDBRANCH  17  22
BRANCH  18  24
ATOM     24  O   UNL d   1      58.301   0.672  29.746  0.00  0.00    -0.326 OA
ATOM     25  C   UNL d   1      59.398   0.678  29.586  0.00  0.00     0.181 C 
ENDBRANCH  18  24
ENDBRANCH   2  14
BRANCH   3  26
ATOM     26  C   UNL d   1      57.806   0.371  32.719  0.00  0.00     0.083 C 
BRANCH  26  27
ATOM     27  C   UNL d   1      58.294   0.052  33.299  0.00  0.00     0.019 C 
ATOM     28  C   UNL d   1      58.721   0.548  33.796  0.00  0.00     0.002 C 
ENDBRANCH  26  27
ENDBRANCH   3  26
TORSDOF 6
ENDMDL
MODEL 5
REMARK VINA RESULT:       5.1      8.753      9.631
REMARK  6 active torsions:
REMARK  status: ('A' for Active; 'I' for Inactive)
REMARK    1  A    between atoms: C_7  and  C_2 
REMARK    2  A    between atoms: C_16  and  N_3 
REMARK    3  A    between atoms: O_17  and  C_9 
REMARK    4  A    between atoms: O_19  and  C_10 
REMARK    5  A    between atoms: O_18  and  C_11 
REMARK    6  A    between atoms: C_25  and  C_16 
ROOT
ATOM      1  N   UNL d   1      60.222  -9.337  32.100  0.00  0.00    -0.206 NA
ATOM      2  C   UNL d   1      59.605  -9.262  32.649  0.00  0.00     0.151 A 
ATOM      3  N   UNL d   1      58.887  -9.316  32.234  0.00  0.00    -0.273 N 
ATOM      4  C   UNL d   1      59.071  -9.423  31.438  0.00  0.00     0.185 A 
ATOM      5  C   UNL d   1      59.891  -9.436  31.353  0.00  0.00     0.199 A 
ATOM      6  N   UNL d   1      58.590  -9.512  30.764  0.00  0.00    -0.224 NA
ATOM      7  N   UNL d   1      60.230  -9.536  30.610  0.00  0.00    -0.223 NA
ATOM      8  C   UNL d   1      58.934  -9.612  30.021  0.00  0.00     0.101 A 
ATOM      9  C   UNL d   1      59.757  -9.624  29.946  0.00  0.00     0.101 A 
ATOM     10  C   UNL d   1      58.448  -9.699  29.355  0.00  0.00     0.021 A 
ATOM     11  C   UNL d   1      60.094  -9.723  29.208  0.00  0.00     0.021 A 
ATOM     12  C   UNL d   1      59.619  -9.811  28.541  0.00  0.00     0.002 A 
ATOM     13  C   UNL d   1      58.796  -9.799  28.616  0.00  0.00     0.002 A 
ENDROOT
BRANCH   2  14
ATOM     14  C   UNL d   1      59.687  -9.154  33.458  0.00  0.00     0.039 A 
ATOM     15  C   UNL d   1      59.085  -8.741  33.888  0.00  0.00     0.029 A 
ATOM     16  C   UNL d   1      59.152  -8.623  34.709  0.00  0.00     0.118 A 
ATOM     17  C   UNL d   1      59.828  -8.920  35.101  0.00  0.00     0.138 A 
ATOM     18  C   UNL d   1      60.430  -9.333  34.672  0.00  0.00     0.118 A 
ATOM     19  C   UNL d   1      60.364  -9.454  33.845  0.00  0.00     0.029 A 
BRANCH  16  20
ATOM     20  O   UNL d   1      58.563  -8.219  35.129  0.00  0.00    -0.326 OA
ATOM     21  C   UNL d   1      58.671  -7.197  35.328  0.00  0.00     0.181 C 
ENDBRANCH  16  20
BRANCH  17  22
ATOM     22  O   UNL d   1      59.915  -8.815  35.908  0.00  0.00    -0.324 OA
ATOM     23  C   UNL d   1      60.616  -8.102  36.322  0.00  0.00     0.182 C 
ENDBRANCH  17  22
BRANCH  18  24
ATOM     24  O   UNL d   1      61.107  -9.632  35.059  0.00  0.00    -0.326 OA
ATOM     25  C   UNL d   1      61.110  -9.808  36.154  0.00  0.00     0.181 C 
ENDBRANCH  18  24
ENDBRANCH   2  14
BRANCH   3  26
ATOM     26  C   UNL d   1      58.137  -9.270  32.560  0.00  0.00     0.083 C 
BRANCH  26  27
ATOM     27  C   UNL d   1      57.482  -9.494  32.118  0.00  0.00     0.019 C 
ATOM     28  C   UNL d   1      56.824  -9.816  32.492  0.00  0.00     0.002 C 
ENDBRANCH  26  27
ENDBRANCH   3  26
TORSDOF 6
ENDMDL
