MODEL 1
REMARK VINA RESULT:      15.0      0.000      0.000
REMARK  2 active torsions:
REMARK  status: ('A' for Active; 'I' for Inactive)
REMARK    1  A    between atoms: C_2  and  C_1 
REMARK    2  A    between atoms: N_6  and  C_2 
ROOT
ATOM      1  C   UNL d   1     -51.573  25.469  33.323  0.00  0.00     0.047 A 
ATOM      2  C   UNL d   1     -52.174  26.038  33.306  0.00  0.00     0.101 A 
ATOM      3  C   UNL d   1     -50.851  25.870  33.337  0.00  0.00     0.021 A 
ATOM      4  N   UNL d   1     -51.823  26.785  33.309  0.00  0.00    -0.244 NA
ATOM      5  C   UNL d   1     -51.003  26.678  33.329  0.00  0.00     0.082 A 
ATOM      6  C   UNL d   1     -50.078  25.601  33.356  0.00  0.00     0.002 A 
ATOM      7  C   UNL d   1     -50.385  27.217  33.340  0.00  0.00     0.019 A 
ATOM      8  C   UNL d   1     -49.455  26.139  33.367  0.00  0.00     0.000 A 
ATOM      9  C   UNL d   1     -49.611  26.952  33.359  0.00  0.00     0.002 A 
ENDROOT
BRANCH   1  10
ATOM     10  C   UNL d   1     -51.669  24.650  33.326  0.00  0.00     0.122 C 
ATOM     11  S   UNL d   1     -51.011  24.155  33.311  0.00  0.00    -0.059 SA
BRANCH  10  12
ATOM     12  N   UNL d   1     -52.432  24.331  33.343  0.00  0.00    -0.292 N 
ATOM     13  C   UNL d   1     -52.536  23.509  33.374  0.00  0.00     0.108 A 
ATOM     14  C   UNL d   1     -53.299  23.191  33.391  0.00  0.00     0.142 A 
ATOM     15  O   UNL d   1     -53.954  23.693  33.378  0.00  0.00    -0.300 OA
ATOM     16  C   UNL d   1     -53.848  24.513  33.348  0.00  0.00     0.142 A 
ATOM     17  C   UNL d   1     -53.086  24.831  33.330  0.00  0.00     0.108 A 
ENDBRANCH  10  12
ENDBRANCH   1  10
TORSDOF 2
ENDMDL
MODEL 2
REMARK VINA RESULT:      16.5      1.614      3.573
REMARK  2 active torsions:
REMARK  status: ('A' for Active; 'I' for Inactive)
REMARK    1  A    between atoms: C_2  and  C_1 
REMARK    2  A    between atoms: N_6  and  C_2 
ROOT
ATOM      1  C   UNL d   1     -51.769  25.240  33.330  0.00  0.00     0.047 A 
ATOM      2  C   UNL d   1     -51.042  24.844  33.312  0.00  0.00     0.101 A 
ATOM      3  C   UNL d   1     -52.364  24.669  33.351  0.00  0.00     0.021 A 
ATOM      4  N   UNL d   1     -51.191  24.032  33.323  0.00  0.00    -0.244 NA
ATOM      5  C   UNL d   1     -52.011  23.926  33.347  0.00  0.00     0.082 A 
ATOM      6  C   UNL d   1     -53.180  24.732  33.373  0.00  0.00     0.002 A 
ATOM      7  C   UNL d   1     -52.471  23.248  33.365  0.00  0.00     0.019 A 
ATOM      8  C   UNL d   1     -53.645  24.052  33.392  0.00  0.00     0.000 A 
ATOM      9  C   UNL d   1     -53.287  23.306  33.388  0.00  0.00     0.002 A 
ENDROOT
BRANCH   1  10
ATOM     10  C   UNL d   1     -51.884  26.057  33.326  0.00  0.00     0.122 C 
ATOM     11  S   UNL d   1     -52.647  26.368  33.315  0.00  0.00    -0.059 SA
BRANCH  10  12
ATOM     12  N   UNL d   1     -51.228  26.560  33.335  0.00  0.00    -0.292 N 
ATOM     13  C   UNL d   1     -50.462  26.241  33.350  0.00  0.00     0.108 A 
ATOM     14  C   UNL d   1     -49.807  26.744  33.358  0.00  0.00     0.142 A 
ATOM     15  O   UNL d   1     -49.917  27.563  33.352  0.00  0.00    -0.300 OA
ATOM     16  C   UNL d   1     -50.682  27.879  33.337  0.00  0.00     0.142 A 
ATOM     17  C   UNL d   1     -51.336  27.376  33.328  0.00  0.00     0.108 A 
ENDBRANCH  10  12
ENDBRANCH   1  10
TORSDOF 2
ENDMDL
