MODEL 1
REMARK VINA RESULT:      56.3      0.000      0.000
REMARK  3 active torsions:
REMARK  status: ('A' for Active; 'I' for Inactive)
REMARK    1  A    between atoms: O_7  and  C_1 
REMARK    2  A    between atoms: C_12  and  O_7 
REMARK    3  A    between atoms: O_20  and  C_14 
ROOT
ATOM      1  C   UNL d   1      59.172  49.700  50.056  0.00  0.00     0.163 A 
ATOM      2  C   UNL d   1      59.257  49.702  50.864  0.00  0.00     0.222 A 
ATOM      3  C   UNL d   1      60.010  49.701  51.188  0.00  0.00     0.064 A 
ATOM      4  C   UNL d   1      60.671  49.699  50.683  0.00  0.00     0.106 A 
ATOM      5  C   UNL d   1      59.796  49.698  49.579  0.00  0.00     0.150 A 
ATOM      6  O   UNL d   1      60.556  49.697  49.872  0.00  0.00    -0.303 OA
ATOM      7  C   UNL d   1      60.128  49.703  52.004  0.00  0.00     0.009 A 
ATOM      8  C   UNL d   1      61.426  49.699  51.012  0.00  0.00     0.067 A 
ATOM      9  O   UNL d   1      58.595  49.704  51.370  0.00  0.00    -0.284 OA
ATOM     10  C   UNL d   1      61.518  49.701  51.834  0.00  0.00     0.198 A 
ATOM     11  C   UNL d   1      60.894  49.703  52.311  0.00  0.00     0.042 A 
ATOM     12  O   UNL d   1      62.281  49.701  52.182  0.00  0.00    -0.286 OA
ENDROOT
BRANCH   1  13
ATOM     13  O   UNL d   1      58.371  49.700  49.704  0.00  0.00    -0.302 OA
BRANCH  13  14
ATOM     14  C   UNL d   1      57.793  49.207  50.003  0.00  0.00     0.100 A 
ATOM     15  C   UNL d   1      57.054  49.115  49.610  0.00  0.00     0.027 A 
ATOM     16  C   UNL d   1      56.479  48.620  49.915  0.00  0.00     0.026 A 
ATOM     17  C   UNL d   1      56.624  48.193  50.635  0.00  0.00     0.094 A 
ATOM     18  C   UNL d   1      57.362  48.286  51.029  0.00  0.00     0.026 A 
ATOM     19  C   UNL d   1      57.936  48.794  50.704  0.00  0.00     0.027 A 
BRANCH  17  20
ATOM     20  O   UNL d   1      56.060  47.678  50.978  0.00  0.00    -0.328 OA
ATOM     21  C   UNL d   1      56.168  46.902  51.287  0.00  0.00     0.181 C 
ENDBRANCH  17  20
ENDBRANCH  13  14
ENDBRANCH   1  13
TORSDOF 3
ENDMDL
