MODEL 1
REMARK VINA RESULT:      16.2      0.000      0.000
REMARK  6 active torsions:
REMARK  status: ('A' for Active; 'I' for Inactive)
REMARK    1  A    between atoms: N_3  and  S_1 
REMARK    2  A    between atoms: C_9  and  S_1 
REMARK    3  A    between atoms: C_2  and  N_3 
REMARK    4  A    between atoms: N_5  and  C_10 
REMARK    5  A    between atoms: C_19  and  C_8 
REMARK    6  A    between atoms: O_20  and  C_19 
ROOT
ATOM      1  S   UNL d   1      13.592  11.983  -2.146  0.00  0.00     0.287 S 
ATOM      2  O   UNL d   1      12.784  12.150  -1.979  0.00  0.00    -0.198 OA
ATOM      3  O   UNL d   1      14.402  11.814  -2.305  0.00  0.00    -0.198 OA
ENDROOT
BRANCH   1   4
ATOM      4  N   UNL d   1      13.704  11.784  -1.327  0.00  0.00    -0.130 NA
BRANCH   4   5
ATOM      5  C   UNL d   1      14.257  12.196  -0.880  0.00  0.00     0.227 A 
ATOM      6  S   UNL d   1      14.418  13.012  -0.805  0.00  0.00    -0.023 SA
ATOM      7  C   UNL d   1      15.054  13.091  -0.260  0.00  0.00     0.159 A 
ATOM      8  N   UNL d   1      15.268  12.345  -0.015  0.00  0.00    -0.137 NA
ATOM      9  N   UNL d   1      14.773  11.793  -0.401  0.00  0.00    -0.120 NA
BRANCH   7  10
ATOM     10  C   UNL d   1      15.397  13.811  -0.019  0.00  0.00     0.144 C 
BRANCH  10  11
ATOM     11  O   UNL d   1      14.963  14.535  -0.146  0.00  0.00    -0.324 OA
ATOM     12  C   UNL d   1      15.351  15.286  -0.093  0.00  0.00     0.182 C 
ENDBRANCH  10  11
ENDBRANCH   7  10
ENDBRANCH   4   5
ENDBRANCH   1   4
BRANCH   1  13
ATOM     13  C   UNL d   1      13.482  12.181  -2.960  0.00  0.00     0.105 A 
ATOM     14  C   UNL d   1      13.921  12.759  -3.286  0.00  0.00     0.015 A 
ATOM     15  C   UNL d   1      13.829  12.967  -4.079  0.00  0.00     0.024 A 
ATOM     16  C   UNL d   1      13.273  12.565  -4.535  0.00  0.00     0.127 A 
ATOM     17  C   UNL d   1      12.810  11.959  -4.204  0.00  0.00     0.024 A 
ATOM     18  C   UNL d   1      12.925  11.779  -3.419  0.00  0.00     0.015 A 
BRANCH  16  19
ATOM     19  N   UNL d   1      13.163  12.763  -5.351  0.00  0.00    -0.114 N 
ATOM     20  O   UNL d   1      13.411  12.248  -5.934  0.00  0.00    -0.532 OA
ATOM     21  O   UNL d   1      12.807  13.476  -5.567  0.00  0.00    -0.532 OA
ENDBRANCH  16  19
ENDBRANCH   1  13
TORSDOF 6
ENDMDL
