MODEL 1
REMARK VINA RESULT:      85.4      0.000      0.000
REMARK  5 active torsions:
REMARK  status: ('A' for Active; 'I' for Inactive)
REMARK    1  A    between atoms: C_11  and  C_5 
REMARK    2  A    between atoms: C_25  and  N_6 
REMARK    3  A    between atoms: N_14  and  C_27 
REMARK    4  A    between atoms: C_26  and  C_25 
REMARK    5  A    between atoms: C_27  and  C_26 
ROOT
ATOM      1  C   UNL d   1      59.008  49.456  50.929  0.00  0.00     0.082 A 
ATOM      2  C   UNL d   1      59.523  49.372  50.287  0.00  0.00     0.267 A 
ATOM      3  C   UNL d   1      59.301  49.618  51.686  0.00  0.00     0.108 A 
ATOM      4  C   UNL d   1      57.669  49.460  51.452  0.00  0.00     0.113 A 
ATOM      5  C   UNL d   1      58.186  49.375  50.804  0.00  0.00     0.043 A 
ATOM      6  N   UNL d   1      60.336  49.453  50.415  0.00  0.00    -0.273 N 
ATOM      7  C   UNL d   1      57.965  49.621  52.203  0.00  0.00     0.213 A 
ATOM      8  O   UNL d   1      58.784  49.701  52.321  0.00  0.00    -0.287 OA
ATOM      9  C   UNL d   1      60.110  49.697  51.802  0.00  0.00     0.043 A 
ATOM     10  C   UNL d   1      60.629  49.616  51.172  0.00  0.00     0.069 A 
ATOM     11  C   UNL d   1      56.859  49.380  51.331  0.00  0.00     0.105 C 
ATOM     12  N   UNL d   1      56.049  49.301  51.211  0.00  0.00    -0.191 NA
ATOM     13  O   UNL d   1      59.229  49.210  49.529  0.00  0.00    -0.267 OA
ATOM     14  N   UNL d   1      57.450  49.705  52.845  0.00  0.00    -0.120 N 
ATOM     15  C   UNL d   1      61.452  49.695  51.288  0.00  0.00     0.019 C 
ENDROOT
BRANCH   5  16
ATOM     16  C   UNL d   1      57.890  49.213  50.052  0.00  0.00     0.101 A 
ATOM     17  O   UNL d   1      57.417  49.706  49.603  0.00  0.00    -0.305 OA
ATOM     18  C   UNL d   1      57.251  49.326  48.889  0.00  0.00     0.123 A 
ATOM     19  C   UNL d   1      57.628  48.592  48.903  0.00  0.00     0.029 A 
ATOM     20  C   UNL d   1      58.025  48.515  49.619  0.00  0.00     0.027 A 
ENDBRANCH   5  16
BRANCH   6  21
ATOM     21  C   UNL d   1      60.863  49.369  49.769  0.00  0.00     0.085 C 
BRANCH  21  22
ATOM     22  C   UNL d   1      60.964  48.631  49.413  0.00  0.00     0.038 C 
BRANCH  22  23
ATOM     23  C   UNL d   1      61.704  48.266  49.429  0.00  0.00     0.083 C 
BRANCH  23  24
ATOM     24  N   UNL d   1      61.768  47.456  49.577  0.00  0.00    -0.285 N 
ATOM     25  C   UNL d   1      62.358  46.954  49.303  0.00  0.00     0.183 A 
ATOM     26  N   UNL d   1      62.201  46.198  49.586  0.00  0.00    -0.222 NA
ATOM     27  C   UNL d   1      61.513  46.228  50.037  0.00  0.00     0.120 A 
ATOM     28  C   UNL d   1      61.246  46.998  50.033  0.00  0.00     0.102 A 
ENDBRANCH  23  24
ENDBRANCH  22  23
ENDBRANCH  21  22
ENDBRANCH   6  21
TORSDOF 5
ENDMDL
