MODEL 1
REMARK VINA RESULT:      57.7      0.000      0.000
REMARK  7 active torsions:
REMARK  status: ('A' for Active; 'I' for Inactive)
REMARK    1  A    between atoms: N_2  and  C_1 
REMARK    2  A    between atoms: N_4  and  C_3 
REMARK       I    between atoms: C_6  and  N_4 
REMARK    3  A    between atoms: C_7  and  C_6 
REMARK    4  A    between atoms: C_10  and  C_7 
REMARK    5  A    between atoms: C_14  and  C_10 
REMARK    6  A    between atoms: O_16  and  C_13 
REMARK    7  A    between atoms: C_17  and  O_16 
ROOT
ATOM      1  C   UNL d   1      60.838  47.753  50.862  0.00  0.00     0.146 A 
ATOM      2  C   UNL d   1      60.715  48.448  50.498  0.00  0.00     0.107 A 
ATOM      3  C   UNL d   1      61.343  47.193  50.533  0.00  0.00     0.050 A 
ATOM      4  C   UNL d   1      61.103  48.610  49.775  0.00  0.00     0.023 A 
ATOM      5  C   UNL d   1      61.732  47.328  49.831  0.00  0.00     0.102 A 
ATOM      6  C   UNL d   1      61.604  48.058  49.447  0.00  0.00     0.026 A 
ENDROOT
BRANCH   2   7
ATOM      7  N   UNL d   1      60.202  49.046  50.809  0.00  0.00    -0.206 NA
ATOM      8  C   UNL d   1      59.497  49.114  50.474  0.00  0.00     0.279 C 
ATOM      9  O   UNL d   1      59.249  48.791  50.005  0.00  0.00    -0.265 OA
BRANCH   8  10
ATOM     10  C   UNL d   1      58.990  49.707  50.783  0.00  0.00     0.062 C 
BRANCH  10  11
ATOM     11  C   UNL d   1      58.319  49.511  51.223  0.00  0.00     0.005 C 
BRANCH  11  12
ATOM     12  C   UNL d   1      57.569  49.563  50.865  0.00  0.00     0.000 A 
ATOM     13  C   UNL d   1      56.923  49.539  51.291  0.00  0.00     0.000 A 
ATOM     14  C   UNL d   1      56.194  49.595  50.890  0.00  0.00     0.000 A 
ATOM     15  C   UNL d   1      56.181  49.672  50.082  0.00  0.00     0.000 A 
ATOM     16  C   UNL d   1      56.833  49.696  49.657  0.00  0.00     0.000 A 
ATOM     17  C   UNL d   1      57.558  49.641  50.041  0.00  0.00     0.000 A 
ENDBRANCH  11  12
ENDBRANCH  10  11
ENDBRANCH   8  10
ENDBRANCH   2   7
BRANCH   1  18
ATOM     18  N   UNL d   1      60.434  47.621  51.587  0.00  0.00    -0.112 N 
ATOM     19  O   UNL d   1      60.526  48.118  52.227  0.00  0.00    -0.532 OA
ATOM     20  O   UNL d   1      59.910  46.946  51.659  0.00  0.00    -0.532 OA
ENDBRANCH   1  18
BRANCH   5  21
ATOM     21  O   UNL d   1      62.243  46.748  49.510  0.00  0.00    -0.305 OA
BRANCH  21  22
ATOM     22  C   UNL d   1      61.972  46.059  49.223  0.00  0.00     0.123 C 
ATOM     23  C   UNL d   1      62.511  45.499  48.867  0.00  0.00     0.029 C 
ENDBRANCH  21  22
ENDBRANCH   5  21
TORSDOF 7
ENDMDL
MODEL 2
REMARK VINA RESULT:      59.8      1.065      4.753
REMARK  7 active torsions:
REMARK  status: ('A' for Active; 'I' for Inactive)
REMARK    1  A    between atoms: N_2  and  C_1 
REMARK    2  A    between atoms: N_4  and  C_3 
REMARK       I    between atoms: C_6  and  N_4 
REMARK    3  A    between atoms: C_7  and  C_6 
REMARK    4  A    between atoms: C_10  and  C_7 
REMARK    5  A    between atoms: C_14  and  C_10 
REMARK    6  A    between atoms: O_16  and  C_13 
REMARK    7  A    between atoms: C_17  and  O_16 
ROOT
ATOM      1  C   UNL d   1      60.166  49.195  51.591  0.00  0.00     0.146 A 
ATOM      2  C   UNL d   1      60.302  48.867  50.881  0.00  0.00     0.107 A 
ATOM      3  C   UNL d   1      59.416  49.472  51.786  0.00  0.00     0.050 A 
ATOM      4  C   UNL d   1      59.677  48.804  50.329  0.00  0.00     0.023 A 
ATOM      5  C   UNL d   1      58.792  49.421  51.265  0.00  0.00     0.102 A 
ATOM      6  C   UNL d   1      58.934  49.077  50.519  0.00  0.00     0.026 A 
ENDROOT
BRANCH   2   7
ATOM      7  N   UNL d   1      61.062  48.573  50.647  0.00  0.00    -0.206 NA
ATOM      8  C   UNL d   1      61.076  47.867  50.307  0.00  0.00     0.279 C 
ATOM      9  O   UNL d   1      60.608  47.481  50.178  0.00  0.00    -0.265 OA
BRANCH   8  10
ATOM     10  C   UNL d   1      61.829  47.578  50.077  0.00  0.00     0.062 C 
BRANCH  10  11
ATOM     11  C   UNL d   1      61.941  47.207  49.346  0.00  0.00     0.005 C 
BRANCH  11  12
ATOM     12  C   UNL d   1      62.198  46.415  49.328  0.00  0.00     0.000 A 
ATOM     13  C   UNL d   1      62.942  46.241  49.207  0.00  0.00     0.000 A 
ATOM     14  C   UNL d   1      63.153  45.434  49.196  0.00  0.00     0.000 A 
ATOM     15  C   UNL d   1      62.586  44.865  49.311  0.00  0.00     0.000 A 
ATOM     16  C   UNL d   1      61.838  45.044  49.432  0.00  0.00     0.000 A 
ATOM     17  C   UNL d   1      61.617  45.837  49.445  0.00  0.00     0.000 A 
ENDBRANCH  11  12
ENDBRANCH  10  11
ENDBRANCH   8  10
ENDBRANCH   2   7
BRANCH   1  18
ATOM     18  N   UNL d   1      60.814  49.244  52.123  0.00  0.00    -0.112 N 
ATOM     19  O   UNL d   1      60.706  49.241  52.932  0.00  0.00    -0.532 OA
ATOM     20  O   UNL d   1      61.611  49.300  51.813  0.00  0.00    -0.532 OA
ENDBRANCH   1  18
BRANCH   5  21
ATOM     21  O   UNL d   1      58.036  49.707  51.480  0.00  0.00    -0.305 OA
BRANCH  21  22
ATOM     22  C   UNL d   1      57.375  49.481  51.100  0.00  0.00     0.123 C 
ATOM     23  C   UNL d   1      56.608  49.620  51.451  0.00  0.00     0.029 C 
ENDBRANCH  21  22
ENDBRANCH   5  21
TORSDOF 7
ENDMDL
MODEL 3
REMARK VINA RESULT:      60.2      1.117      1.736
REMARK  7 active torsions:
REMARK  status: ('A' for Active; 'I' for Inactive)
REMARK    1  A    between atoms: N_2  and  C_1 
REMARK    2  A    between atoms: N_4  and  C_3 
REMARK       I    between atoms: C_6  and  N_4 
REMARK    3  A    between atoms: C_7  and  C_6 
REMARK    4  A    between atoms: C_10  and  C_7 
REMARK    5  A    between atoms: C_14  and  C_10 
REMARK    6  A    between atoms: O_16  and  C_13 
REMARK    7  A    between atoms: C_17  and  O_16 
ROOT
ATOM      1  C   UNL d   1      61.191  46.496  50.755  0.00  0.00     0.146 A 
ATOM      2  C   UNL d   1      61.434  47.195  50.467  0.00  0.00     0.107 A 
ATOM      3  C   UNL d   1      61.407  45.794  50.385  0.00  0.00     0.050 A 
ATOM      4  C   UNL d   1      61.913  47.214  49.782  0.00  0.00     0.023 A 
ATOM      5  C   UNL d   1      61.872  45.788  49.717  0.00  0.00     0.102 A 
ATOM      6  C   UNL d   1      62.128  46.521  49.413  0.00  0.00     0.026 A 
ENDROOT
BRANCH   2   7
ATOM      7  N   UNL d   1      61.231  47.936  50.824  0.00  0.00    -0.206 NA
ATOM      8  C   UNL d   1      60.969  48.497  50.343  0.00  0.00     0.279 C 
ATOM      9  O   UNL d   1      60.884  48.484  49.729  0.00  0.00    -0.265 OA
BRANCH   8  10
ATOM     10  C   UNL d   1      60.768  49.230  50.699  0.00  0.00     0.062 C 
BRANCH  10  11
ATOM     11  C   UNL d   1      60.154  49.697  50.402  0.00  0.00     0.005 C 
BRANCH  11  12
ATOM     12  C   UNL d   1      59.419  49.700  50.793  0.00  0.00     0.000 A 
ATOM     13  C   UNL d   1      59.380  49.702  51.566  0.00  0.00     0.000 A 
ATOM     14  C   UNL d   1      58.623  49.705  51.915  0.00  0.00     0.000 A 
ATOM     15  C   UNL d   1      57.961  49.704  51.446  0.00  0.00     0.000 A 
ATOM     16  C   UNL d   1      58.004  49.701  50.668  0.00  0.00     0.000 A 
ATOM     17  C   UNL d   1      58.745  49.699  50.312  0.00  0.00     0.000 A 
ENDBRANCH  11  12
ENDBRANCH  10  11
ENDBRANCH   8  10
ENDBRANCH   2   7
BRANCH   1  18
ATOM     18  N   UNL d   1      60.711  46.510  51.445  0.00  0.00    -0.112 N 
ATOM     19  O   UNL d   1      59.906  46.637  51.406  0.00  0.00    -0.532 OA
ATOM     20  O   UNL d   1      61.073  46.386  52.212  0.00  0.00    -0.532 OA
ENDBRANCH   1  18
BRANCH   5  21
ATOM     21  O   UNL d   1      62.082  45.065  49.352  0.00  0.00    -0.305 OA
BRANCH  21  22
ATOM     22  C   UNL d   1      61.579  44.664  48.886  0.00  0.00     0.123 C 
ATOM     23  C   UNL d   1      61.629  43.813  48.830  0.00  0.00     0.029 C 
ENDBRANCH  21  22
ENDBRANCH   5  21
TORSDOF 7
ENDMDL
