MODEL 1
REMARK VINA RESULT:       4.8      0.000      0.000
REMARK  6 active torsions:
REMARK  status: ('A' for Active; 'I' for Inactive)
REMARK       I    between atoms: C_6  and  N_1 
REMARK    1  A    between atoms: C_7  and  C_3 
REMARK    2  A    between atoms: C_14  and  C_4 
REMARK    3  A    between atoms: C_20  and  C_6 
REMARK    4  A    between atoms: C_11  and  C_22 
REMARK    5  A    between atoms: C_21  and  C_20 
REMARK    6  A    between atoms: C_22  and  C_21 
ROOT
ATOM      1  N   UNL d   1      29.306  17.041 -24.026  0.00  0.00    -0.195 N 
ATOM      2  N   UNL d   1      28.470  17.019 -23.928  0.00  0.00    -0.163 NA
ATOM      3  C   UNL d   1      29.598  16.310 -23.825  0.00  0.00     0.088 A 
ATOM      4  C   UNL d   1      28.272  16.260 -23.664  0.00  0.00     0.103 A 
ATOM      5  C   UNL d   1      28.989  15.828 -23.604  0.00  0.00     0.040 A 
ATOM      6  C   UNL d   1      29.741  17.736 -24.296  0.00  0.00     0.280 C 
ATOM      7  O   UNL d   1      29.327  18.440 -24.476  0.00  0.00    -0.265 OA
ENDROOT
BRANCH   3   8
ATOM      8  C   UNL d   1      30.397  16.095 -23.844  0.00  0.00     0.019 A 
ATOM      9  C   UNL d   1      30.843  16.103 -23.177  0.00  0.00     0.022 A 
ATOM     10  C   UNL d   1      31.643  15.888 -23.196  0.00  0.00     0.099 A 
ATOM     11  N   UNL d   1      32.061  15.905 -22.524  0.00  0.00    -0.241 NA
ATOM     12  C   UNL d   1      31.992  15.660 -23.911  0.00  0.00     0.099 A 
ATOM     13  C   UNL d   1      32.888  15.682 -22.544  0.00  0.00     0.120 A 
ATOM     14  C   UNL d   1      33.241  15.458 -23.234  0.00  0.00     0.120 A 
ATOM     15  N   UNL d   1      32.763  15.453 -23.929  0.00  0.00    -0.241 NA
ATOM     16  C   UNL d   1      31.518  15.659 -24.578  0.00  0.00     0.021 A 
ATOM     17  C   UNL d   1      30.747  15.866 -24.560  0.00  0.00     0.003 A 
ENDBRANCH   3   8
BRANCH   6  18
ATOM     18  C   UNL d   1      30.550  17.678 -24.366  0.00  0.00     0.063 C 
BRANCH  18  19
ATOM     19  C   UNL d   1      30.956  18.227 -24.845  0.00  0.00     0.011 C 
BRANCH  19  20
ATOM     20  C   UNL d   1      31.280  18.887 -24.480  0.00  0.00     0.070 C 
BRANCH  20  21
ATOM     21  C   UNL d   1      31.976  19.231 -24.747  0.00  0.00     0.211 C 
ATOM     22  O   UNL d   1      32.078  20.051 -24.665  0.00  0.00    -0.644 OA
ATOM     23  O   UNL d   1      32.571  18.781 -25.092  0.00  0.00    -0.644 OA
ENDBRANCH  20  21
ENDBRANCH  19  20
ENDBRANCH  18  19
ENDBRANCH   6  18
BRANCH   4  24
ATOM     24  C   UNL d   1      27.491  15.985 -23.490  0.00  0.00     0.019 A 
ATOM     25  C   UNL d   1      27.225  15.987 -22.733  0.00  0.00     0.002 A 
ATOM     26  C   UNL d   1      26.465  15.721 -22.549  0.00  0.00     0.000 A 
ATOM     27  C   UNL d   1      25.981  15.453 -23.150  0.00  0.00     0.000 A 
ATOM     28  C   UNL d   1      26.258  15.453 -23.929  0.00  0.00     0.000 A 
ATOM     29  C   UNL d   1      27.017  15.718 -24.113  0.00  0.00     0.002 A 
ENDBRANCH   4  24
TORSDOF 6
ENDMDL
MODEL 2
REMARK VINA RESULT:       5.5      4.379      6.510
REMARK  6 active torsions:
REMARK  status: ('A' for Active; 'I' for Inactive)
REMARK       I    between atoms: C_6  and  N_1 
REMARK    1  A    between atoms: C_7  and  C_3 
REMARK    2  A    between atoms: C_14  and  C_4 
REMARK    3  A    between atoms: C_20  and  C_6 
REMARK    4  A    between atoms: C_11  and  C_22 
REMARK    5  A    between atoms: C_21  and  C_20 
REMARK    6  A    between atoms: C_22  and  C_21 
ROOT
ATOM      1  N   UNL d   1      33.220  20.210 -21.897  0.00  0.00    -0.195 N 
ATOM      2  N   UNL d   1      33.214  19.370 -21.863  0.00  0.00    -0.163 NA
ATOM      3  C   UNL d   1      33.214  20.427 -22.681  0.00  0.00     0.088 A 
ATOM      4  C   UNL d   1      33.204  19.091 -22.643  0.00  0.00     0.103 A 
ATOM      5  C   UNL d   1      33.205  19.765 -23.143  0.00  0.00     0.040 A 
ATOM      6  C   UNL d   1      33.231  20.720 -21.202  0.00  0.00     0.280 C 
ATOM      7  O   UNL d   1      33.236  20.379 -20.438  0.00  0.00    -0.265 OA
ENDROOT
BRANCH   3   8
ATOM      8  C   UNL d   1      33.218  21.206 -22.960  0.00  0.00     0.019 A 
ATOM      9  C   UNL d   1      33.215  21.364 -23.746  0.00  0.00     0.022 A 
ATOM     10  C   UNL d   1      33.219  22.144 -24.025  0.00  0.00     0.099 A 
ATOM     11  N   UNL d   1      33.215  22.273 -24.805  0.00  0.00    -0.241 NA
ATOM     12  C   UNL d   1      33.225  22.774 -23.488  0.00  0.00     0.099 A 
ATOM     13  C   UNL d   1      33.219  23.080 -25.094  0.00  0.00     0.120 A 
ATOM     14  C   UNL d   1      33.226  23.702 -24.582  0.00  0.00     0.120 A 
ATOM     15  N   UNL d   1      33.229  23.526 -23.757  0.00  0.00    -0.241 NA
ATOM     16  C   UNL d   1      33.228  22.589 -22.691  0.00  0.00     0.021 A 
ATOM     17  C   UNL d   1      33.225  21.838 -22.422  0.00  0.00     0.003 A 
ENDBRANCH   3   8
BRANCH   6  18
ATOM     18  C   UNL d   1      33.236  21.527 -21.317  0.00  0.00     0.063 C 
BRANCH  18  19
ATOM     19  C   UNL d   1      33.231  22.031 -20.653  0.00  0.00     0.011 C 
BRANCH  19  20
ATOM     20  C   UNL d   1      32.503  22.224 -20.325  0.00  0.00     0.070 C 
BRANCH  20  21
ATOM     21  C   UNL d   1      32.422  22.837 -19.784  0.00  0.00     0.211 C 
ATOM     22  O   UNL d   1      31.791  23.369 -19.871  0.00  0.00    -0.644 OA
ATOM     23  O   UNL d   1      32.950  22.933 -19.162  0.00  0.00    -0.644 OA
ENDBRANCH  20  21
ENDBRANCH  19  20
ENDBRANCH  18  19
ENDBRANCH   6  18
BRANCH   4  24
ATOM     24  C   UNL d   1      33.195  18.278 -22.878  0.00  0.00     0.019 A 
ATOM     25  C   UNL d   1      33.209  17.700 -22.321  0.00  0.00     0.002 A 
ATOM     26  C   UNL d   1      33.201  16.903 -22.535  0.00  0.00     0.000 A 
ATOM     27  C   UNL d   1      33.178  16.704 -23.328  0.00  0.00     0.000 A 
ATOM     28  C   UNL d   1      33.164  17.301 -23.898  0.00  0.00     0.000 A 
ATOM     29  C   UNL d   1      33.172  18.098 -23.685  0.00  0.00     0.002 A 
ENDBRANCH   4  24
TORSDOF 6
ENDMDL
MODEL 3
REMARK VINA RESULT:       7.8      5.149      7.004
REMARK  6 active torsions:
REMARK  status: ('A' for Active; 'I' for Inactive)
REMARK       I    between atoms: C_6  and  N_1 
REMARK    1  A    between atoms: C_7  and  C_3 
REMARK    2  A    between atoms: C_14  and  C_4 
REMARK    3  A    between atoms: C_20  and  C_6 
REMARK    4  A    between atoms: C_11  and  C_22 
REMARK    5  A    between atoms: C_21  and  C_20 
REMARK    6  A    between atoms: C_22  and  C_21 
ROOT
ATOM      1  N   UNL d   1      32.938  22.430 -20.908  0.00  0.00    -0.195 N 
ATOM      2  N   UNL d   1      32.919  22.807 -20.156  0.00  0.00    -0.163 NA
ATOM      3  C   UNL d   1      33.027  21.631 -20.783  0.00  0.00     0.088 A 
ATOM      4  C   UNL d   1      32.998  22.216 -19.581  0.00  0.00     0.103 A 
ATOM      5  C   UNL d   1      33.065  21.486 -19.990  0.00  0.00     0.040 A 
ATOM      6  C   UNL d   1      32.872  22.849 -21.659  0.00  0.00     0.280 C 
ATOM      7  O   UNL d   1      32.783  23.681 -21.663  0.00  0.00    -0.265 OA
ENDROOT
BRANCH   3   8
ATOM      8  C   UNL d   1      33.071  21.058 -21.378  0.00  0.00     0.019 A 
ATOM      9  C   UNL d   1      33.011  20.277 -21.205  0.00  0.00     0.022 A 
ATOM     10  C   UNL d   1      33.056  19.704 -21.801  0.00  0.00     0.099 A 
ATOM     11  N   UNL d   1      32.994  18.940 -21.604  0.00  0.00    -0.241 NA
ATOM     12  C   UNL d   1      33.163  19.934 -22.588  0.00  0.00     0.099 A 
ATOM     13  C   UNL d   1      33.040  18.346 -22.220  0.00  0.00     0.120 A 
ATOM     14  C   UNL d   1      33.144  18.557 -22.991  0.00  0.00     0.120 A 
ATOM     15  N   UNL d   1      33.206  19.381 -23.162  0.00  0.00    -0.241 NA
ATOM     16  C   UNL d   1      33.222  20.736 -22.741  0.00  0.00     0.021 A 
ATOM     17  C   UNL d   1      33.179  21.289 -22.167  0.00  0.00     0.003 A 
ENDBRANCH   3   8
BRANCH   6  18
ATOM     18  C   UNL d   1      32.899  22.413 -22.346  0.00  0.00     0.063 C 
BRANCH  18  19
ATOM     19  C   UNL d   1      32.513  22.703 -23.026  0.00  0.00     0.011 C 
BRANCH  19  20
ATOM     20  C   UNL d   1      32.960  22.794 -23.710  0.00  0.00     0.070 C 
BRANCH  20  21
ATOM     21  C   UNL d   1      32.609  22.910 -24.443  0.00  0.00     0.211 C 
ATOM     22  O   UNL d   1      32.038  23.507 -24.526  0.00  0.00    -0.644 OA
ATOM     23  O   UNL d   1      32.810  22.449 -25.092  0.00  0.00    -0.644 OA
ENDBRANCH  20  21
ENDBRANCH  19  20
ENDBRANCH  18  19
ENDBRANCH   6  18
BRANCH   4  24
ATOM     24  C   UNL d   1      33.009  22.339 -18.744  0.00  0.00     0.019 A 
ATOM     25  C   UNL d   1      32.809  23.055 -18.442  0.00  0.00     0.002 A 
ATOM     26  C   UNL d   1      32.815  23.189 -17.627  0.00  0.00     0.000 A 
ATOM     27  C   UNL d   1      33.028  22.581 -17.125  0.00  0.00     0.000 A 
ATOM     28  C   UNL d   1      33.234  21.845 -17.439  0.00  0.00     0.000 A 
ATOM     29  C   UNL d   1      33.228  21.710 -18.253  0.00  0.00     0.002 A 
ENDBRANCH   4  24
TORSDOF 6
ENDMDL
