MODEL 1
REMARK VINA RESULT:     -10.6      0.000      0.000
REMARK  2 active torsions:
REMARK  status: ('A' for Active; 'I' for Inactive)
REMARK    1  A    between atoms: N_2  and  S_1 
REMARK    2  A    between atoms: C_4  and  S_1 
ROOT
ATOM      1  N   UNL d   1      52.848  32.747  53.447  0.00  0.00    -0.231 N 
ATOM      2  C   UNL d   1      53.366  33.079  54.005  0.00  0.00     0.075 A 
ATOM      3  C   UNL d   1      54.033  32.663  54.273  0.00  0.00     0.017 A 
ATOM      4  C   UNL d   1      53.009  31.978  53.155  0.00  0.00     0.092 A 
ATOM      5  C   UNL d   1      53.205  33.848  54.297  0.00  0.00     0.018 A 
ATOM      6  C   UNL d   1      53.676  31.563  53.423  0.00  0.00     0.020 A 
ATOM      7  C   UNL d   1      54.182  31.915  53.983  0.00  0.00     0.003 A 
ATOM      8  C   UNL d   1      54.538  33.012  54.831  0.00  0.00     0.002 A 
ATOM      9  C   UNL d   1      53.715  34.185  54.852  0.00  0.00     0.002 A 
ATOM     10  C   UNL d   1      54.382  33.769  55.121  0.00  0.00     0.000 A 
ENDROOT
BRANCH   1  11
ATOM     11  S   UNL d   1      52.183  33.170  53.184  0.00  0.00     0.271 S 
ATOM     12  O   UNL d   1      51.734  32.885  53.747  0.00  0.00    -0.200 OA
ATOM     13  O   UNL d   1      52.627  33.500  52.564  0.00  0.00    -0.200 OA
BRANCH  11  14
ATOM     14  C   UNL d   1      51.561  33.562  52.942  0.00  0.00     0.104 A 
ATOM     15  C   UNL d   1      51.604  34.003  52.305  0.00  0.00     0.015 A 
ATOM     16  C   UNL d   1      50.980  34.393  52.066  0.00  0.00     0.022 A 
ATOM     17  C   UNL d   1      50.314  34.346  52.461  0.00  0.00     0.103 A 
ATOM     18  C   UNL d   1      50.280  33.900  53.101  0.00  0.00     0.022 A 
ATOM     19  N   UNL d   1      49.665  34.749  52.217  0.00  0.00    -0.148 N 
ATOM     20  C   UNL d   1      50.894  33.512  53.340  0.00  0.00     0.015 A 
ENDBRANCH  11  14
ENDBRANCH   1  11
TORSDOF 2
ENDMDL
MODEL 2
REMARK VINA RESULT:      -9.9      1.208      3.056
REMARK  2 active torsions:
REMARK  status: ('A' for Active; 'I' for Inactive)
REMARK    1  A    between atoms: N_2  and  S_1 
REMARK    2  A    between atoms: C_4  and  S_1 
ROOT
ATOM      1  N   UNL d   1      52.478  33.212  53.058  0.00  0.00    -0.231 N 
ATOM      2  C   UNL d   1      52.754  33.773  53.605  0.00  0.00     0.075 A 
ATOM      3  C   UNL d   1      52.567  34.577  53.527  0.00  0.00     0.017 A 
ATOM      4  C   UNL d   1      52.002  33.471  52.420  0.00  0.00     0.092 A 
ATOM      5  C   UNL d   1      53.231  33.513  54.244  0.00  0.00     0.018 A 
ATOM      6  C   UNL d   1      51.814  34.276  52.341  0.00  0.00     0.020 A 
ATOM      7  C   UNL d   1      52.102  34.822  52.902  0.00  0.00     0.003 A 
ATOM      8  C   UNL d   1      52.852  35.122  54.083  0.00  0.00     0.002 A 
ATOM      9  C   UNL d   1      53.509  34.064  54.791  0.00  0.00     0.002 A 
ATOM     10  C   UNL d   1      53.321  34.870  54.713  0.00  0.00     0.000 A 
ENDROOT
BRANCH   1  11
ATOM     11  S   UNL d   1      52.671  32.408  53.144  0.00  0.00     0.271 S 
ATOM     12  O   UNL d   1      52.056  32.270  53.594  0.00  0.00    -0.200 OA
ATOM     13  O   UNL d   1      53.343  32.509  52.665  0.00  0.00    -0.200 OA
BRANCH  11  14
ATOM     14  C   UNL d   1      52.847  31.658  53.226  0.00  0.00     0.104 A 
ATOM     15  C   UNL d   1      53.581  31.444  53.353  0.00  0.00     0.015 A 
ATOM     16  C   UNL d   1      53.753  30.694  53.435  0.00  0.00     0.022 A 
ATOM     17  C   UNL d   1      53.195  30.158  53.390  0.00  0.00     0.103 A 
ATOM     18  C   UNL d   1      52.459  30.382  53.262  0.00  0.00     0.022 A 
ATOM     19  N   UNL d   1      53.369  29.380  53.474  0.00  0.00    -0.148 N 
ATOM     20  C   UNL d   1      52.285  31.122  53.180  0.00  0.00     0.015 A 
ENDBRANCH  11  14
ENDBRANCH   1  11
TORSDOF 2
ENDMDL
MODEL 3
REMARK VINA RESULT:      -9.1      1.793      3.683
REMARK  2 active torsions:
REMARK  status: ('A' for Active; 'I' for Inactive)
REMARK    1  A    between atoms: N_2  and  S_1 
REMARK    2  A    between atoms: C_4  and  S_1 
ROOT
ATOM      1  N   UNL d   1      53.103  32.197  53.503  0.00  0.00    -0.231 N 
ATOM      2  C   UNL d   1      53.128  31.368  53.451  0.00  0.00     0.075 A 
ATOM      3  C   UNL d   1      52.551  30.946  53.029  0.00  0.00     0.017 A 
ATOM      4  C   UNL d   1      52.479  32.606  53.121  0.00  0.00     0.092 A 
ATOM      5  C   UNL d   1      53.752  30.959  53.833  0.00  0.00     0.018 A 
ATOM      6  C   UNL d   1      51.902  32.184  52.699  0.00  0.00     0.020 A 
ATOM      7  C   UNL d   1      51.947  31.352  52.660  0.00  0.00     0.003 A 
ATOM      8  C   UNL d   1      52.594  30.119  52.988  0.00  0.00     0.002 A 
ATOM      9  C   UNL d   1      53.784  30.135  53.786  0.00  0.00     0.002 A 
ATOM     10  C   UNL d   1      53.206  29.713  53.364  0.00  0.00     0.000 A 
ENDROOT
BRANCH   1  11
ATOM     11  S   UNL d   1      53.685  32.611  53.927  0.00  0.00     0.271 S 
ATOM     12  O   UNL d   1      53.264  32.612  54.577  0.00  0.00    -0.200 OA
ATOM     13  O   UNL d   1      54.172  32.634  53.253  0.00  0.00    -0.200 OA
BRANCH  11  14
ATOM     14  C   UNL d   1      54.225  32.997  54.325  0.00  0.00     0.104 A 
ATOM     15  C   UNL d   1      54.146  33.096  55.090  0.00  0.00     0.015 A 
ATOM     16  C   UNL d   1      54.688  33.483  55.485  0.00  0.00     0.022 A 
ATOM     17  C   UNL d   1      55.307  33.771  55.119  0.00  0.00     0.103 A 
ATOM     18  C   UNL d   1      55.380  33.667  54.349  0.00  0.00     0.022 A 
ATOM     19  N   UNL d   1      55.871  34.172  55.524  0.00  0.00    -0.148 N 
ATOM     20  C   UNL d   1      54.846  33.285  53.955  0.00  0.00     0.015 A 
ENDBRANCH  11  14
ENDBRANCH   1  11
TORSDOF 2
ENDMDL
MODEL 4
REMARK VINA RESULT:      -8.4      1.340      3.480
REMARK  2 active torsions:
REMARK  status: ('A' for Active; 'I' for Inactive)
REMARK    1  A    between atoms: N_2  and  S_1 
REMARK    2  A    between atoms: C_4  and  S_1 
ROOT
ATOM      1  N   UNL d   1      52.936  32.610  53.518  0.00  0.00    -0.231 N 
ATOM      2  C   UNL d   1      52.343  33.117  53.234  0.00  0.00     0.075 A 
ATOM      3  C   UNL d   1      51.706  32.826  52.789  0.00  0.00     0.017 A 
ATOM      4  C   UNL d   1      52.882  31.791  53.347  0.00  0.00     0.092 A 
ATOM      5  C   UNL d   1      52.396  33.936  53.406  0.00  0.00     0.018 A 
ATOM      6  C   UNL d   1      52.245  31.500  52.902  0.00  0.00     0.020 A 
ATOM      7  C   UNL d   1      51.661  32.028  52.626  0.00  0.00     0.003 A 
ATOM      8  C   UNL d   1      51.123  33.349  52.514  0.00  0.00     0.002 A 
ATOM      9  C   UNL d   1      51.811  34.447  53.127  0.00  0.00     0.002 A 
ATOM     10  C   UNL d   1      51.173  34.156  52.681  0.00  0.00     0.000 A 
ENDROOT
BRANCH   1  11
ATOM     11  S   UNL d   1      53.570  32.909  53.964  0.00  0.00     0.271 S 
ATOM     12  O   UNL d   1      53.170  32.874  54.626  0.00  0.00    -0.200 OA
ATOM     13  O   UNL d   1      54.037  32.964  53.279  0.00  0.00    -0.200 OA
BRANCH  11  14
ATOM     14  C   UNL d   1      54.159  33.188  54.383  0.00  0.00     0.104 A 
ATOM     15  C   UNL d   1      54.814  33.409  54.031  0.00  0.00     0.015 A 
ATOM     16  C   UNL d   1      55.400  33.687  54.453  0.00  0.00     0.022 A 
ATOM     17  C   UNL d   1      55.334  33.745  55.224  0.00  0.00     0.103 A 
ATOM     18  C   UNL d   1      54.672  33.520  55.569  0.00  0.00     0.022 A 
ATOM     19  N   UNL d   1      55.939  34.032  55.665  0.00  0.00    -0.148 N 
ATOM     20  C   UNL d   1      54.090  33.244  55.156  0.00  0.00     0.015 A 
ENDBRANCH  11  14
ENDBRANCH   1  11
TORSDOF 2
ENDMDL
