MODEL 1
REMARK VINA RESULT:       0.3      0.000      0.000
REMARK  6 active torsions:
REMARK  status: ('A' for Active; 'I' for Inactive)
REMARK    1  A    between atoms: S_3  and  N_1 
REMARK    2  A    between atoms: C_19  and  S_3 
REMARK    3  A    between atoms: S_4  and  N_8 
REMARK    4  A    between atoms: C_12  and  C_5 
REMARK    5  A    between atoms: C_9  and  C_6 
REMARK    6  A    between atoms: N_8  and  C_16 
ROOT
ATOM      1  N   UNL d   1      57.950  -0.188  30.641  0.00  0.00    -0.152 N 
ATOM      2  N   UNL d   1      57.458   0.109  31.240  0.00  0.00    -0.155 NA
ATOM      3  C   UNL d   1      57.881  -1.017  30.647  0.00  0.00     0.096 A 
ATOM      4  C   UNL d   1      57.090  -0.529  31.612  0.00  0.00     0.104 A 
ATOM      5  C   UNL d   1      57.353  -1.221  31.243  0.00  0.00     0.041 A 
ENDROOT
BRANCH   4   6
ATOM      6  C   UNL d   1      56.556  -0.485  32.238  0.00  0.00     0.021 A 
ATOM      7  C   UNL d   1      56.672   0.067  32.835  0.00  0.00     0.021 A 
ATOM      8  C   UNL d   1      56.135   0.113  33.465  0.00  0.00     0.093 A 
ATOM      9  C   UNL d   1      55.481  -0.399  33.493  0.00  0.00     0.020 A 
ATOM     10  C   UNL d   1      55.371  -0.953  32.887  0.00  0.00     0.002 A 
ATOM     11  C   UNL d   1      55.902  -0.999  32.263  0.00  0.00     0.002 A 
BRANCH   8  12
ATOM     12  N   UNL d   1      56.252   0.672  34.071  0.00  0.00    -0.162 NA
BRANCH  12  13
ATOM     13  S   UNL d   1      55.948   0.535  34.821  0.00  0.00     0.266 S 
ATOM     14  O   UNL d   1      55.943   0.362  35.635  0.00  0.00    -0.203 OA
ATOM     15  O   UNL d   1      56.745   0.433  35.024  0.00  0.00    -0.203 OA
ATOM     16  C   UNL d   1      55.155   0.634  34.632  0.00  0.00     0.165 C 
ENDBRANCH  12  13
ENDBRANCH   8  12
ENDBRANCH   4   6
BRANCH   1  17
ATOM     17  S   UNL d   1      58.420   0.267  30.134  0.00  0.00     0.287 S 
ATOM     18  O   UNL d   1      58.598   0.541  29.376  0.00  0.00    -0.198 OA
ATOM     19  O   UNL d   1      57.785  -0.169  29.831  0.00  0.00    -0.198 OA
BRANCH  17  20
ATOM     20  C   UNL d   1      59.030   0.673  30.497  0.00  0.00     0.118 C 
ATOM     21  C   UNL d   1      59.790   0.659  30.163  0.00  0.00     0.014 C 
ENDBRANCH  17  20
ENDBRANCH   1  17
BRANCH   3  22
ATOM     22  C   UNL d   1      58.274  -1.529  30.143  0.00  0.00     0.018 A 
ATOM     23  C   UNL d   1      57.839  -2.067  29.694  0.00  0.00     0.002 A 
ATOM     24  C   UNL d   1      58.229  -2.586  29.185  0.00  0.00     0.000 A 
ATOM     25  C   UNL d   1      59.046  -2.567  29.126  0.00  0.00     0.000 A 
ATOM     26  C   UNL d   1      59.471  -2.025  29.580  0.00  0.00     0.000 A 
ATOM     27  C   UNL d   1      59.436  -3.087  28.616  0.00  0.00     0.000 C 
ATOM     28  C   UNL d   1      59.096  -1.512  30.082  0.00  0.00     0.002 A 
ENDBRANCH   3  22
TORSDOF 6
ENDMDL
MODEL 2
REMARK VINA RESULT:       1.5      1.733      5.120
REMARK  6 active torsions:
REMARK  status: ('A' for Active; 'I' for Inactive)
REMARK    1  A    between atoms: S_3  and  N_1 
REMARK    2  A    between atoms: C_19  and  S_3 
REMARK    3  A    between atoms: S_4  and  N_8 
REMARK    4  A    between atoms: C_12  and  C_5 
REMARK    5  A    between atoms: C_9  and  C_6 
REMARK    6  A    between atoms: N_8  and  C_16 
ROOT
ATOM      1  N   UNL d   1      56.417  -0.840  32.269  0.00  0.00    -0.152 N 
ATOM      2  N   UNL d   1      56.714  -0.898  31.496  0.00  0.00    -0.155 NA
ATOM      3  C   UNL d   1      56.861  -0.259  32.666  0.00  0.00     0.096 A 
ATOM      4  C   UNL d   1      57.334  -0.359  31.416  0.00  0.00     0.104 A 
ATOM      5  C   UNL d   1      57.421   0.033  32.139  0.00  0.00     0.041 A 
ENDROOT
BRANCH   4   6
ATOM      6  C   UNL d   1      57.784  -0.234  30.737  0.00  0.00     0.021 A 
ATOM      7  C   UNL d   1      57.946  -0.862  30.234  0.00  0.00     0.021 A 
ATOM      8  C   UNL d   1      58.399  -0.737  29.551  0.00  0.00     0.093 A 
ATOM      9  C   UNL d   1      58.689   0.022  29.376  0.00  0.00     0.020 A 
ATOM     10  C   UNL d   1      58.521   0.650  29.889  0.00  0.00     0.002 A 
ATOM     11  C   UNL d   1      58.073   0.528  30.566  0.00  0.00     0.002 A 
BRANCH   8  12
ATOM     12  N   UNL d   1      58.564  -1.373  29.039  0.00  0.00    -0.162 NA
BRANCH  12  13
ATOM     13  S   UNL d   1      59.250  -1.812  29.137  0.00  0.00     0.266 S 
ATOM     14  O   UNL d   1      59.733  -2.467  29.311  0.00  0.00    -0.203 OA
ATOM     15  O   UNL d   1      58.724  -2.416  29.348  0.00  0.00    -0.203 OA
ATOM     16  C   UNL d   1      59.782  -1.221  28.929  0.00  0.00     0.165 C 
ENDBRANCH  12  13
ENDBRANCH   8  12
ENDBRANCH   4   6
BRANCH   1  17
ATOM     17  S   UNL d   1      55.792  -1.284  32.581  0.00  0.00     0.287 S 
ATOM     18  O   UNL d   1      54.988  -1.372  32.745  0.00  0.00    -0.198 OA
ATOM     19  O   UNL d   1      55.646  -0.544  32.241  0.00  0.00    -0.198 OA
BRANCH  17  20
ATOM     20  C   UNL d   1      56.005  -2.007  32.901  0.00  0.00     0.118 C 
ATOM     21  C   UNL d   1      55.418  -2.550  33.118  0.00  0.00     0.014 C 
ENDBRANCH  17  20
ENDBRANCH   1  17
BRANCH   3  22
ATOM     22  C   UNL d   1      56.751  -0.026  33.443  0.00  0.00     0.018 A 
ATOM     23  C   UNL d   1      55.987   0.117  33.718  0.00  0.00     0.002 A 
ATOM     24  C   UNL d   1      55.869   0.352  34.500  0.00  0.00     0.000 A 
ATOM     25  C   UNL d   1      56.510   0.442  35.002  0.00  0.00     0.000 A 
ATOM     26  C   UNL d   1      57.271   0.295  34.717  0.00  0.00     0.000 A 
ATOM     27  C   UNL d   1      56.392   0.677  35.785  0.00  0.00     0.000 C 
ATOM     28  C   UNL d   1      57.394   0.065  33.951  0.00  0.00     0.002 A 
ENDBRANCH   3  22
TORSDOF 6
ENDMDL
MODEL 3
REMARK VINA RESULT:       2.1      1.870      4.956
REMARK  6 active torsions:
REMARK  status: ('A' for Active; 'I' for Inactive)
REMARK    1  A    between atoms: S_3  and  N_1 
REMARK    2  A    between atoms: C_19  and  S_3 
REMARK    3  A    between atoms: S_4  and  N_8 
REMARK    4  A    between atoms: C_12  and  C_5 
REMARK    5  A    between atoms: C_9  and  C_6 
REMARK    6  A    between atoms: N_8  and  C_16 
ROOT
ATOM      1  N   UNL d   1      57.662   0.473  32.715  0.00  0.00    -0.152 N 
ATOM      2  N   UNL d   1      58.214   0.637  32.117  0.00  0.00    -0.155 NA
ATOM      3  C   UNL d   1      56.978   0.170  32.349  0.00  0.00     0.096 A 
ATOM      4  C   UNL d   1      57.876   0.437  31.391  0.00  0.00     0.104 A 
ATOM      5  C   UNL d   1      57.114   0.150  31.539  0.00  0.00     0.041 A 
ENDROOT
BRANCH   4   6
ATOM      6  C   UNL d   1      58.233   0.512  30.652  0.00  0.00     0.021 A 
ATOM      7  C   UNL d   1      59.051   0.548  30.597  0.00  0.00     0.021 A 
ATOM      8  C   UNL d   1      59.411   0.623  29.853  0.00  0.00     0.093 A 
ATOM      9  C   UNL d   1      58.945   0.661  29.167  0.00  0.00     0.020 A 
ATOM     10  C   UNL d   1      58.120   0.623  29.232  0.00  0.00     0.002 A 
ATOM     11  C   UNL d   1      57.763   0.549  29.966  0.00  0.00     0.002 A 
BRANCH   8  12
ATOM     12  N   UNL d   1      60.241   0.660  29.796  0.00  0.00    -0.162 NA
BRANCH  12  13
ATOM     13  S   UNL d   1      60.654   0.058  29.421  0.00  0.00     0.266 S 
ATOM     14  O   UNL d   1      61.028  -0.358  28.805  0.00  0.00    -0.203 OA
ATOM     15  O   UNL d   1      60.565   0.538  28.752  0.00  0.00    -0.203 OA
ATOM     16  C   UNL d   1      60.750  -0.427  30.077  0.00  0.00     0.165 C 
ENDBRANCH  12  13
ENDBRANCH   8  12
ENDBRANCH   4   6
BRANCH   1  17
ATOM     17  S   UNL d   1      57.778   0.592  33.525  0.00  0.00     0.287 S 
ATOM     18  O   UNL d   1      57.474   0.674  34.288  0.00  0.00    -0.198 OA
ATOM     19  O   UNL d   1      57.013   0.494  33.227  0.00  0.00    -0.198 OA
BRANCH  17  20
ATOM     20  C   UNL d   1      58.559   0.682  33.754  0.00  0.00     0.118 C 
ATOM     21  C   UNL d   1      58.757   0.656  34.559  0.00  0.00     0.014 C 
ENDBRANCH  17  20
ENDBRANCH   1  17
BRANCH   3  22
ATOM     22  C   UNL d   1      56.297  -0.065  32.738  0.00  0.00     0.018 A 
ATOM     23  C   UNL d   1      56.273  -0.804  33.103  0.00  0.00     0.002 A 
ATOM     24  C   UNL d   1      55.590  -1.046  33.496  0.00  0.00     0.000 A 
ATOM     25  C   UNL d   1      54.936  -0.554  33.524  0.00  0.00     0.000 A 
ATOM     26  C   UNL d   1      54.970   0.184  33.156  0.00  0.00     0.000 A 
ATOM     27  C   UNL d   1      54.252  -0.796  33.918  0.00  0.00     0.000 C 
ATOM     28  C   UNL d   1      55.638   0.429  32.768  0.00  0.00     0.002 A 
ENDBRANCH   3  22
TORSDOF 6
ENDMDL
