MODEL 1
REMARK VINA RESULT:      -6.1      0.000      0.000
REMARK  6 active torsions:
REMARK  status: ('A' for Active; 'I' for Inactive)
REMARK    1  A    between atoms: C_12  and  N_4 
REMARK    2  A    between atoms: C_10  and  N_6 
REMARK    3  A    between atoms: C_11  and  C_10 
REMARK    4  A    between atoms: O_15  and  C_11 
REMARK    5  A    between atoms: C_16  and  O_15 
REMARK    6  A    between atoms: C_17  and  C_16 
ROOT
ATOM      1  C   UNL d   1     -46.153  12.993  22.535  0.00  0.00     0.172 A 
ATOM      2  C   UNL d   1     -45.771  12.375  22.926  0.00  0.00     0.113 A 
ATOM      3  N   UNL d   1     -45.746  13.451  21.990  0.00  0.00    -0.206 NA
ATOM      4  N   UNL d   1     -46.937  13.011  22.808  0.00  0.00    -0.212 N 
ATOM      5  C   UNL d   1     -44.981  12.216  22.772  0.00  0.00     0.271 A 
ATOM      6  N   UNL d   1     -44.566  12.676  22.223  0.00  0.00    -0.250 N 
ATOM      7  N   UNL d   1     -47.024  12.411  23.357  0.00  0.00    -0.162 NA
ATOM      8  C   UNL d   1     -44.948  13.293  21.832  0.00  0.00     0.187 A 
ATOM      9  C   UNL d   1     -46.325  12.023  23.434  0.00  0.00     0.129 A 
ATOM     10  O   UNL d   1     -44.598  11.599  23.164  0.00  0.00    -0.266 OA
ENDROOT
BRANCH   6  11
ATOM     11  C   UNL d   1     -43.762  12.521  22.061  0.00  0.00     0.153 C 
BRANCH  11  12
ATOM     12  C   UNL d   1     -43.404  12.842  21.383  0.00  0.00     0.318 C 
ATOM     13  O   UNL d   1     -43.654  12.606  20.642  0.00  0.00    -0.257 OA
BRANCH  12  14
ATOM     14  O   UNL d   1     -42.801  13.397  21.473  0.00  0.00    -0.270 OA
BRANCH  14  15
ATOM     15  C   UNL d   1     -42.153  13.376  20.953  0.00  0.00     0.126 C 
BRANCH  15  16
ATOM     16  C   UNL d   1     -41.575  13.951  21.021  0.00  0.00     0.025 A 
ATOM     17  C   UNL d   1     -40.812  13.725  21.258  0.00  0.00     0.002 A 
ATOM     18  C   UNL d   1     -40.219  14.304  21.330  0.00  0.00     0.000 A 
ATOM     19  C   UNL d   1     -40.394  15.086  21.167  0.00  0.00     0.000 A 
ATOM     20  C   UNL d   1     -41.158  15.313  20.929  0.00  0.00     0.000 A 
ATOM     21  C   UNL d   1     -41.742  14.735  20.860  0.00  0.00     0.002 A 
ENDBRANCH  15  16
ENDBRANCH  14  15
ENDBRANCH  12  14
ENDBRANCH  11  12
ENDBRANCH   6  11
BRANCH   4  22
ATOM     22  C   UNL d   1     -47.539  13.516  22.594  0.00  0.00     0.085 A 
ATOM     23  C   UNL d   1     -48.092  13.285  22.016  0.00  0.00     0.019 A 
ATOM     24  C   UNL d   1     -48.695  13.797  21.806  0.00  0.00     0.002 A 
ATOM     25  C   UNL d   1     -48.758  14.553  22.172  0.00  0.00     0.000 A 
ATOM     26  C   UNL d   1     -48.212  14.766  22.734  0.00  0.00     0.002 A 
ATOM     27  C   UNL d   1     -47.602  14.258  22.952  0.00  0.00     0.019 A 
ENDBRANCH   4  22
TORSDOF 6
ENDMDL
MODEL 2
REMARK VINA RESULT:      -5.9      2.516      3.604
REMARK  6 active torsions:
REMARK  status: ('A' for Active; 'I' for Inactive)
REMARK    1  A    between atoms: C_12  and  N_4 
REMARK    2  A    between atoms: C_10  and  N_6 
REMARK    3  A    between atoms: C_11  and  C_10 
REMARK    4  A    between atoms: O_15  and  C_11 
REMARK    5  A    between atoms: C_16  and  O_15 
REMARK    6  A    between atoms: C_17  and  C_16 
ROOT
ATOM      1  C   UNL d   1     -48.271  13.830  22.645  0.00  0.00     0.172 A 
ATOM      2  C   UNL d   1     -47.843  14.527  22.749  0.00  0.00     0.113 A 
ATOM      3  N   UNL d   1     -47.884  13.106  22.627  0.00  0.00    -0.206 NA
ATOM      4  N   UNL d   1     -49.072  14.038  22.577  0.00  0.00    -0.212 N 
ATOM      5  C   UNL d   1     -47.028  14.501  22.834  0.00  0.00     0.271 A 
ATOM      6  N   UNL d   1     -46.633  13.774  22.816  0.00  0.00    -0.250 N 
ATOM      7  N   UNL d   1     -49.124  14.852  22.639  0.00  0.00    -0.162 NA
ATOM      8  C   UNL d   1     -47.061  13.077  22.712  0.00  0.00     0.187 A 
ATOM      9  C   UNL d   1     -48.387  15.154  22.743  0.00  0.00     0.129 A 
ATOM     10  O   UNL d   1     -46.600  15.199  22.938  0.00  0.00    -0.266 OA
ENDROOT
BRANCH   6  11
ATOM     11  C   UNL d   1     -45.803  13.739  22.902  0.00  0.00     0.153 C 
BRANCH  11  12
ATOM     12  C   UNL d   1     -45.364  13.173  22.481  0.00  0.00     0.318 C 
ATOM     13  O   UNL d   1     -45.119  13.335  21.719  0.00  0.00    -0.257 OA
BRANCH  12  14
ATOM     14  O   UNL d   1     -45.185  12.454  22.844  0.00  0.00    -0.270 OA
BRANCH  14  15
ATOM     15  C   UNL d   1     -44.538  12.013  22.567  0.00  0.00     0.126 C 
BRANCH  15  16
ATOM     16  C   UNL d   1     -44.348  11.313  22.945  0.00  0.00     0.025 A 
ATOM     17  C   UNL d   1     -43.555  11.066  22.954  0.00  0.00     0.002 A 
ATOM     18  C   UNL d   1     -43.354  10.355  23.337  0.00  0.00     0.000 A 
ATOM     19  C   UNL d   1     -43.937   9.910  23.698  0.00  0.00     0.000 A 
ATOM     20  C   UNL d   1     -44.732  10.157  23.689  0.00  0.00     0.000 A 
ATOM     21  C   UNL d   1     -44.925  10.863  23.308  0.00  0.00     0.002 A 
ENDBRANCH  15  16
ENDBRANCH  14  15
ENDBRANCH  12  14
ENDBRANCH  11  12
ENDBRANCH   6  11
BRANCH   4  22
ATOM     22  C   UNL d   1     -49.717  13.554  22.468  0.00  0.00     0.085 A 
ATOM     23  C   UNL d   1     -49.842  13.185  21.731  0.00  0.00     0.019 A 
ATOM     24  C   UNL d   1     -50.493  12.700  21.628  0.00  0.00     0.002 A 
ATOM     25  C   UNL d   1     -51.034  12.573  22.261  0.00  0.00     0.000 A 
ATOM     26  C   UNL d   1     -50.900  12.938  22.974  0.00  0.00     0.002 A 
ATOM     27  C   UNL d   1     -50.249  13.428  23.087  0.00  0.00     0.019 A 
ENDBRANCH   4  22
TORSDOF 6
ENDMDL
MODEL 3
REMARK VINA RESULT:      -5.2      1.906      3.178
REMARK  6 active torsions:
REMARK  status: ('A' for Active; 'I' for Inactive)
REMARK    1  A    between atoms: C_12  and  N_4 
REMARK    2  A    between atoms: C_10  and  N_6 
REMARK    3  A    between atoms: C_11  and  C_10 
REMARK    4  A    between atoms: O_15  and  C_11 
REMARK    5  A    between atoms: C_16  and  O_15 
REMARK    6  A    between atoms: C_17  and  C_16 
ROOT
ATOM      1  C   UNL d   1     -49.106  13.014  23.041  0.00  0.00     0.172 A 
ATOM      2  C   UNL d   1     -49.035  12.194  23.099  0.00  0.00     0.113 A 
ATOM      3  N   UNL d   1     -48.435  13.482  22.976  0.00  0.00    -0.206 NA
ATOM      4  N   UNL d   1     -49.915  13.196  23.064  0.00  0.00    -0.212 N 
ATOM      5  C   UNL d   1     -48.295  11.842  23.092  0.00  0.00     0.271 A 
ATOM      6  N   UNL d   1     -47.615  12.310  23.026  0.00  0.00    -0.250 N 
ATOM      7  N   UNL d   1     -50.327  12.492  23.136  0.00  0.00    -0.162 NA
ATOM      8  C   UNL d   1     -47.685  13.130  22.968  0.00  0.00     0.187 A 
ATOM      9  C   UNL d   1     -49.803  11.884  23.157  0.00  0.00     0.129 A 
ATOM     10  O   UNL d   1     -48.224  11.022  23.150  0.00  0.00    -0.266 OA
ENDROOT
BRANCH   6  11
ATOM     11  C   UNL d   1     -46.857  11.960  23.018  0.00  0.00     0.153 C 
BRANCH  11  12
ATOM     12  C   UNL d   1     -46.179  12.436  23.078  0.00  0.00     0.318 C 
ATOM     13  O   UNL d   1     -46.109  12.967  23.695  0.00  0.00    -0.257 OA
BRANCH  12  14
ATOM     14  O   UNL d   1     -45.585  12.360  22.511  0.00  0.00    -0.270 OA
BRANCH  14  15
ATOM     15  C   UNL d   1     -44.790  12.397  22.751  0.00  0.00     0.126 C 
BRANCH  15  16
ATOM     16  C   UNL d   1     -44.214  12.527  22.185  0.00  0.00     0.025 A 
ATOM     17  C   UNL d   1     -43.510  12.086  22.223  0.00  0.00     0.002 A 
ATOM     18  C   UNL d   1     -42.919  12.212  21.651  0.00  0.00     0.000 A 
ATOM     19  C   UNL d   1     -43.037  12.766  21.062  0.00  0.00     0.000 A 
ATOM     20  C   UNL d   1     -43.741  13.207  21.024  0.00  0.00     0.000 A 
ATOM     21  C   UNL d   1     -44.324  13.078  21.593  0.00  0.00     0.002 A 
ENDBRANCH  15  16
ENDBRANCH  14  15
ENDBRANCH  12  14
ENDBRANCH  11  12
ENDBRANCH   6  11
BRANCH   4  22
ATOM     22  C   UNL d   1     -50.275  13.925  23.026  0.00  0.00     0.085 A 
ATOM     23  C   UNL d   1     -50.264  14.360  22.316  0.00  0.00     0.019 A 
ATOM     24  C   UNL d   1     -50.628  15.092  22.284  0.00  0.00     0.002 A 
ATOM     25  C   UNL d   1     -51.012  15.406  22.965  0.00  0.00     0.000 A 
ATOM     26  C   UNL d   1     -51.016  14.971  23.651  0.00  0.00     0.002 A 
ATOM     27  C   UNL d   1     -50.653  14.235  23.693  0.00  0.00     0.019 A 
ENDBRANCH   4  22
TORSDOF 6
ENDMDL
MODEL 4
REMARK VINA RESULT:      -4.9      1.733      2.789
REMARK  6 active torsions:
REMARK  status: ('A' for Active; 'I' for Inactive)
REMARK    1  A    between atoms: C_12  and  N_4 
REMARK    2  A    between atoms: C_10  and  N_6 
REMARK    3  A    between atoms: C_11  and  C_10 
REMARK    4  A    between atoms: O_15  and  C_11 
REMARK    5  A    between atoms: C_16  and  O_15 
REMARK    6  A    between atoms: C_17  and  C_16 
ROOT
ATOM      1  C   UNL d   1     -48.348  13.773  22.836  0.00  0.00     0.172 A 
ATOM      2  C   UNL d   1     -47.945  14.475  22.676  0.00  0.00     0.113 A 
ATOM      3  N   UNL d   1     -47.931  13.093  23.031  0.00  0.00    -0.206 NA
ATOM      4  N   UNL d   1     -49.159  13.928  22.756  0.00  0.00    -0.212 N 
ATOM      5  C   UNL d   1     -47.126  14.498  22.710  0.00  0.00     0.271 A 
ATOM      6  N   UNL d   1     -46.701  13.815  22.906  0.00  0.00    -0.250 N 
ATOM      7  N   UNL d   1     -49.243  14.715  22.550  0.00  0.00    -0.162 NA
ATOM      8  C   UNL d   1     -47.104  13.113  23.067  0.00  0.00     0.187 A 
ATOM      9  C   UNL d   1     -48.515  15.052  22.500  0.00  0.00     0.129 A 
ATOM     10  O   UNL d   1     -46.724  15.200  22.550  0.00  0.00    -0.266 OA
ENDROOT
BRANCH   6  11
ATOM     11  C   UNL d   1     -45.868  13.830  22.943  0.00  0.00     0.153 C 
BRANCH  11  12
ATOM     12  C   UNL d   1     -45.426  13.200  22.630  0.00  0.00     0.318 C 
ATOM     13  O   UNL d   1     -45.628  12.430  22.814  0.00  0.00    -0.257 OA
BRANCH  12  14
ATOM     14  O   UNL d   1     -44.787  13.366  22.135  0.00  0.00    -0.270 OA
BRANCH  14  15
ATOM     15  C   UNL d   1     -44.327  12.738  21.844  0.00  0.00     0.126 C 
BRANCH  15  16
ATOM     16  C   UNL d   1     -43.568  12.893  21.583  0.00  0.00     0.025 A 
ATOM     17  C   UNL d   1     -42.949  12.401  21.837  0.00  0.00     0.002 A 
ATOM     18  C   UNL d   1     -42.174  12.553  21.575  0.00  0.00     0.000 A 
ATOM     19  C   UNL d   1     -42.032  13.182  21.073  0.00  0.00     0.000 A 
ATOM     20  C   UNL d   1     -42.652  13.675  20.818  0.00  0.00     0.000 A 
ATOM     21  C   UNL d   1     -43.418  13.520  21.080  0.00  0.00     0.002 A 
ENDBRANCH  15  16
ENDBRANCH  14  15
ENDBRANCH  12  14
ENDBRANCH  11  12
ENDBRANCH   6  11
BRANCH   4  22
ATOM     22  C   UNL d   1     -49.788  13.420  22.856  0.00  0.00     0.085 A 
ATOM     23  C   UNL d   1     -50.146  13.341  23.604  0.00  0.00     0.019 A 
ATOM     24  C   UNL d   1     -50.777  12.829  23.697  0.00  0.00     0.002 A 
ATOM     25  C   UNL d   1     -51.064  12.384  23.042  0.00  0.00     0.000 A 
ATOM     26  C   UNL d   1     -50.706  12.471  22.318  0.00  0.00     0.002 A 
ATOM     27  C   UNL d   1     -50.071  12.983  22.215  0.00  0.00     0.019 A 
ENDBRANCH   4  22
TORSDOF 6
ENDMDL
MODEL 5
REMARK VINA RESULT:      -4.4      4.969      7.127
REMARK  6 active torsions:
REMARK  status: ('A' for Active; 'I' for Inactive)
REMARK    1  A    between atoms: C_12  and  N_4 
REMARK    2  A    between atoms: C_10  and  N_6 
REMARK    3  A    between atoms: C_11  and  C_10 
REMARK    4  A    between atoms: O_15  and  C_11 
REMARK    5  A    between atoms: C_16  and  O_15 
REMARK    6  A    between atoms: C_17  and  C_16 
ROOT
ATOM      1  C   UNL d   1     -39.847  14.660  20.603  0.00  0.00     0.172 A 
ATOM      2  C   UNL d   1     -40.540  14.415  20.227  0.00  0.00     0.113 A 
ATOM      3  N   UNL d   1     -39.172  14.816  20.163  0.00  0.00    -0.206 NA
ATOM      4  N   UNL d   1     -40.005  14.696  21.416  0.00  0.00    -0.212 N 
ATOM      5  C   UNL d   1     -40.557  14.326  19.412  0.00  0.00     0.271 A 
ATOM      6  N   UNL d   1     -39.879  14.482  18.964  0.00  0.00    -0.250 N 
ATOM      7  N   UNL d   1     -40.785  14.475  21.529  0.00  0.00    -0.162 NA
ATOM      8  C   UNL d   1     -39.187  14.727  19.339  0.00  0.00     0.187 A 
ATOM      9  C   UNL d   1     -41.113  14.304  20.816  0.00  0.00     0.129 A 
ATOM     10  O   UNL d   1     -41.250  14.081  19.037  0.00  0.00    -0.266 OA
ENDROOT
BRANCH   6  11
ATOM     11  C   UNL d   1     -39.889  14.394  18.134  0.00  0.00     0.153 C 
BRANCH  11  12
ATOM     12  C   UNL d   1     -39.294  13.956  17.755  0.00  0.00     0.318 C 
ATOM     13  O   UNL d   1     -39.129  13.195  18.002  0.00  0.00    -0.257 OA
BRANCH  12  14
ATOM     14  O   UNL d   1     -38.878  14.302  17.131  0.00  0.00    -0.270 OA
BRANCH  14  15
ATOM     15  C   UNL d   1     -38.478  13.812  16.593  0.00  0.00     0.126 C 
BRANCH  15  16
ATOM     16  C   UNL d   1     -38.298  14.107  15.851  0.00  0.00     0.025 A 
ATOM     17  C   UNL d   1     -38.298  14.930  15.738  0.00  0.00     0.002 A 
ATOM     18  C   UNL d   1     -38.116  15.238  14.987  0.00  0.00     0.000 A 
ATOM     19  C   UNL d   1     -37.940  14.729  14.372  0.00  0.00     0.000 A 
ATOM     20  C   UNL d   1     -37.940  13.904  14.485  0.00  0.00     0.000 A 
ATOM     21  C   UNL d   1     -38.121  13.605  15.232  0.00  0.00     0.002 A 
ENDBRANCH  15  16
ENDBRANCH  14  15
ENDBRANCH  12  14
ENDBRANCH  11  12
ENDBRANCH   6  11
BRANCH   4  22
ATOM     22  C   UNL d   1     -39.506  14.907  22.024  0.00  0.00     0.085 A 
ATOM     23  C   UNL d   1     -39.099  14.320  22.453  0.00  0.00     0.019 A 
ATOM     24  C   UNL d   1     -38.599  14.539  23.063  0.00  0.00     0.002 A 
ATOM     25  C   UNL d   1     -38.495  15.351  23.257  0.00  0.00     0.000 A 
ATOM     26  C   UNL d   1     -38.897  15.914  22.831  0.00  0.00     0.002 A 
ATOM     27  C   UNL d   1     -39.402  15.704  22.216  0.00  0.00     0.019 A 
ENDBRANCH   4  22
TORSDOF 6
ENDMDL
MODEL 6
REMARK VINA RESULT:      -4.2      2.561      6.203
REMARK  6 active torsions:
REMARK  status: ('A' for Active; 'I' for Inactive)
REMARK    1  A    between atoms: C_12  and  N_4 
REMARK    2  A    between atoms: C_10  and  N_6 
REMARK    3  A    between atoms: C_11  and  C_10 
REMARK    4  A    between atoms: O_15  and  C_11 
REMARK    5  A    between atoms: C_16  and  O_15 
REMARK    6  A    between atoms: C_17  and  C_16 
ROOT
ATOM      1  C   UNL d   1     -40.905  14.310  19.772  0.00  0.00     0.172 A 
ATOM      2  C   UNL d   1     -40.671  14.312  20.564  0.00  0.00     0.113 A 
ATOM      3  N   UNL d   1     -41.624  13.981  19.555  0.00  0.00    -0.206 NA
ATOM      4  N   UNL d   1     -40.302  14.676  19.335  0.00  0.00    -0.212 N 
ATOM      5  C   UNL d   1     -41.157  13.985  21.138  0.00  0.00     0.271 A 
ATOM      6  N   UNL d   1     -41.884  13.651  20.923  0.00  0.00    -0.250 N 
ATOM      7  N   UNL d   1     -39.712  14.896  19.858  0.00  0.00    -0.162 NA
ATOM      8  C   UNL d   1     -42.117  13.649  20.132  0.00  0.00     0.187 A 
ATOM      9  C   UNL d   1     -39.928  14.679  20.601  0.00  0.00     0.129 A 
ATOM     10  O   UNL d   1     -40.924  13.987  21.929  0.00  0.00    -0.266 OA
ENDROOT
BRANCH   6  11
ATOM     11  C   UNL d   1     -42.384  13.317  21.502  0.00  0.00     0.153 C 
BRANCH  11  12
ATOM     12  C   UNL d   1     -43.126  13.012  21.284  0.00  0.00     0.318 C 
ATOM     13  O   UNL d   1     -43.180  12.470  20.675  0.00  0.00    -0.257 OA
BRANCH  12  14
ATOM     14  O   UNL d   1     -43.798  13.264  21.691  0.00  0.00    -0.270 OA
BRANCH  14  15
ATOM     15  C   UNL d   1     -44.449  12.752  21.751  0.00  0.00     0.126 C 
BRANCH  15  16
ATOM     16  C   UNL d   1     -45.100  12.993  22.185  0.00  0.00     0.025 A 
ATOM     17  C   UNL d   1     -45.470  12.444  22.687  0.00  0.00     0.002 A 
ATOM     18  C   UNL d   1     -46.132  12.680  23.131  0.00  0.00     0.000 A 
ATOM     19  C   UNL d   1     -46.409  13.447  23.070  0.00  0.00     0.000 A 
ATOM     20  C   UNL d   1     -46.039  13.997  22.567  0.00  0.00     0.000 A 
ATOM     21  C   UNL d   1     -45.383  13.757  22.129  0.00  0.00     0.002 A 
ENDBRANCH  15  16
ENDBRANCH  14  15
ENDBRANCH  12  14
ENDBRANCH  11  12
ENDBRANCH   6  11
BRANCH   4  22
ATOM     22  C   UNL d   1     -40.264  14.811  18.533  0.00  0.00     0.085 A 
ATOM     23  C   UNL d   1     -39.919  14.244  18.030  0.00  0.00     0.019 A 
ATOM     24  C   UNL d   1     -39.884  14.386  17.225  0.00  0.00     0.002 A 
ATOM     25  C   UNL d   1     -40.194  15.101  16.905  0.00  0.00     0.000 A 
ATOM     26  C   UNL d   1     -40.528  15.646  17.407  0.00  0.00     0.002 A 
ATOM     27  C   UNL d   1     -40.568  15.512  18.217  0.00  0.00     0.019 A 
ENDBRANCH   4  22
TORSDOF 6
ENDMDL
MODEL 7
REMARK VINA RESULT:      -3.8      2.115      6.228
REMARK  6 active torsions:
REMARK  status: ('A' for Active; 'I' for Inactive)
REMARK    1  A    between atoms: C_12  and  N_4 
REMARK    2  A    between atoms: C_10  and  N_6 
REMARK    3  A    between atoms: C_11  and  C_10 
REMARK    4  A    between atoms: O_15  and  C_11 
REMARK    5  A    between atoms: C_16  and  O_15 
REMARK    6  A    between atoms: C_17  and  C_16 
ROOT
ATOM      1  C   UNL d   1     -40.677  14.266  21.061  0.00  0.00     0.172 A 
ATOM      2  C   UNL d   1     -40.976  14.122  20.306  0.00  0.00     0.113 A 
ATOM      3  N   UNL d   1     -41.109  14.049  21.725  0.00  0.00    -0.206 NA
ATOM      4  N   UNL d   1     -39.938  14.633  20.970  0.00  0.00    -0.212 N 
ATOM      5  C   UNL d   1     -41.706  13.761  20.214  0.00  0.00     0.271 A 
ATOM      6  N   UNL d   1     -42.145  13.539  20.880  0.00  0.00    -0.250 N 
ATOM      7  N   UNL d   1     -39.794  14.708  20.168  0.00  0.00    -0.162 NA
ATOM      8  C   UNL d   1     -41.847  13.684  21.635  0.00  0.00     0.187 A 
ATOM      9  C   UNL d   1     -40.416  14.402  19.762  0.00  0.00     0.129 A 
ATOM     10  O   UNL d   1     -42.005  13.616  19.458  0.00  0.00    -0.266 OA
ENDROOT
BRANCH   6  11
ATOM     11  C   UNL d   1     -42.890  13.171  20.794  0.00  0.00     0.153 C 
BRANCH  11  12
ATOM     12  C   UNL d   1     -43.263  12.830  21.453  0.00  0.00     0.318 C 
ATOM     13  O   UNL d   1     -42.949  12.158  21.796  0.00  0.00    -0.257 OA
BRANCH  12  14
ATOM     14  O   UNL d   1     -43.949  13.180  21.750  0.00  0.00    -0.270 OA
BRANCH  14  15
ATOM     15  C   UNL d   1     -44.646  12.729  21.793  0.00  0.00     0.126 C 
BRANCH  15  16
ATOM     16  C   UNL d   1     -45.275  13.018  22.228  0.00  0.00     0.025 A 
ATOM     17  C   UNL d   1     -45.678  12.502  22.740  0.00  0.00     0.002 A 
ATOM     18  C   UNL d   1     -46.319  12.788  23.186  0.00  0.00     0.000 A 
ATOM     19  C   UNL d   1     -46.545  13.570  23.115  0.00  0.00     0.000 A 
ATOM     20  C   UNL d   1     -46.142  14.087  22.603  0.00  0.00     0.000 A 
ATOM     21  C   UNL d   1     -45.507  13.799  22.163  0.00  0.00     0.002 A 
ENDBRANCH  15  16
ENDBRANCH  14  15
ENDBRANCH  12  14
ENDBRANCH  11  12
ENDBRANCH   6  11
BRANCH   4  22
ATOM     22  C   UNL d   1     -39.421  14.887  21.545  0.00  0.00     0.085 A 
ATOM     23  C   UNL d   1     -38.843  14.367  21.846  0.00  0.00     0.019 A 
ATOM     24  C   UNL d   1     -38.326  14.629  22.423  0.00  0.00     0.002 A 
ATOM     25  C   UNL d   1     -38.375  15.418  22.713  0.00  0.00     0.000 A 
ATOM     26  C   UNL d   1     -38.943  15.914  22.412  0.00  0.00     0.002 A 
ATOM     27  C   UNL d   1     -39.467  15.661  21.831  0.00  0.00     0.019 A 
ENDBRANCH   4  22
TORSDOF 6
ENDMDL
MODEL 8
REMARK VINA RESULT:      -3.6      2.827      6.550
REMARK  6 active torsions:
REMARK  status: ('A' for Active; 'I' for Inactive)
REMARK    1  A    between atoms: C_12  and  N_4 
REMARK    2  A    between atoms: C_10  and  N_6 
REMARK    3  A    between atoms: C_11  and  C_10 
REMARK    4  A    between atoms: O_15  and  C_11 
REMARK    5  A    between atoms: C_16  and  O_15 
REMARK    6  A    between atoms: C_17  and  C_16 
ROOT
ATOM      1  C   UNL d   1     -40.514  14.402  19.558  0.00  0.00     0.172 A 
ATOM      2  C   UNL d   1     -40.434  14.746  20.304  0.00  0.00     0.113 A 
ATOM      3  N   UNL d   1     -41.119  13.867  19.413  0.00  0.00    -0.206 NA
ATOM      4  N   UNL d   1     -39.906  14.702  19.080  0.00  0.00    -0.212 N 
ATOM      5  C   UNL d   1     -40.960  14.557  20.904  0.00  0.00     0.271 A 
ATOM      6  N   UNL d   1     -41.573  14.018  20.762  0.00  0.00    -0.250 N 
ATOM      7  N   UNL d   1     -39.465  15.222  19.533  0.00  0.00    -0.162 NA
ATOM      8  C   UNL d   1     -41.652  13.674  20.017  0.00  0.00     0.187 A 
ATOM      9  C   UNL d   1     -39.778  15.253  20.272  0.00  0.00     0.129 A 
ATOM     10  O   UNL d   1     -40.880  14.901  21.649  0.00  0.00    -0.266 OA
ENDROOT
BRANCH   6  11
ATOM     11  C   UNL d   1     -42.112  13.820  21.367  0.00  0.00     0.153 C 
BRANCH  11  12
ATOM     12  C   UNL d   1     -42.688  13.235  21.237  0.00  0.00     0.318 C 
ATOM     13  O   UNL d   1     -42.476  12.526  20.891  0.00  0.00    -0.257 OA
BRANCH  12  14
ATOM     14  O   UNL d   1     -43.468  13.384  21.461  0.00  0.00    -0.270 OA
BRANCH  14  15
ATOM     15  C   UNL d   1     -43.978  12.742  21.595  0.00  0.00     0.126 C 
BRANCH  15  16
ATOM     16  C   UNL d   1     -44.680  12.875  21.994  0.00  0.00     0.025 A 
ATOM     17  C   UNL d   1     -45.109  13.567  21.829  0.00  0.00     0.002 A 
ATOM     18  C   UNL d   1     -45.824  13.708  22.230  0.00  0.00     0.000 A 
ATOM     19  C   UNL d   1     -46.094  13.168  22.780  0.00  0.00     0.000 A 
ATOM     20  C   UNL d   1     -45.665  12.474  22.945  0.00  0.00     0.000 A 
ATOM     21  C   UNL d   1     -44.957  12.339  22.545  0.00  0.00     0.002 A 
ENDBRANCH  15  16
ENDBRANCH  14  15
ENDBRANCH  12  14
ENDBRANCH  11  12
ENDBRANCH   6  11
BRANCH   4  22
ATOM     22  C   UNL d   1     -39.742  14.537  18.300  0.00  0.00     0.085 A 
ATOM     23  C   UNL d   1     -40.063  15.013  17.696  0.00  0.00     0.019 A 
ATOM     24  C   UNL d   1     -39.895  14.842  16.914  0.00  0.00     0.002 A 
ATOM     25  C   UNL d   1     -39.400  14.189  16.718  0.00  0.00     0.000 A 
ATOM     26  C   UNL d   1     -39.094  13.733  17.316  0.00  0.00     0.002 A 
ATOM     27  C   UNL d   1     -39.257  13.897  18.105  0.00  0.00     0.019 A 
ENDBRANCH   4  22
TORSDOF 6
ENDMDL
