MODEL 1
REMARK VINA RESULT:      -2.0      0.000      0.000
REMARK  3 active torsions:
REMARK  status: ('A' for Active; 'I' for Inactive)
REMARK    1  A    between atoms: C_24  and  N_10 
REMARK    2  A    between atoms: C_12  and  N_15 
REMARK       I    between atoms: N_15  and  C_16 
REMARK    3  A    between atoms: C_16  and  C_24 
ROOT
ATOM      1  N   UNL d   1      33.227  19.490 -22.730  0.00  0.00    -0.188 NA
ATOM      2  C   UNL d   1      33.201  19.123 -23.470  0.00  0.00     0.298 C 
ATOM      3  O   UNL d   1      33.141  19.591 -24.155  0.00  0.00    -0.263 OA
ENDROOT
BRANCH   1   4
ATOM      4  C   UNL d   1      33.193  20.317 -22.674  0.00  0.00     0.166 A 
ATOM      5  N   UNL d   1      33.119  20.679 -21.934  0.00  0.00    -0.226 NA
ATOM      6  C   UNL d   1      33.085  21.500 -21.874  0.00  0.00     0.090 A 
ATOM      7  C   UNL d   1      33.011  21.867 -21.138  0.00  0.00     0.041 A 
ATOM      8  C   UNL d   1      33.124  21.968 -22.557  0.00  0.00     0.081 A 
ATOM      9  C   UNL d   1      32.977  22.693 -21.082  0.00  0.00     0.105 A 
ATOM     10  C   UNL d   1      32.972  21.403 -20.454  0.00  0.00     0.004 A 
ATOM     11  C   UNL d   1      32.904  23.051 -20.342  0.00  0.00     0.025 A 
ATOM     12  O   UNL d   1      33.016  23.152 -21.762  0.00  0.00    -0.273 OA
ATOM     13  C   UNL d   1      32.864  22.592 -19.659  0.00  0.00     0.002 A 
ATOM     14  C   UNL d   1      32.899  21.762 -19.715  0.00  0.00     0.000 A 
ATOM     15  C   UNL d   1      33.089  22.794 -22.501  0.00  0.00     0.301 A 
ATOM     16  O   UNL d   1      33.129  23.258 -23.188  0.00  0.00    -0.259 OA
ATOM     17  C   UNL d   1      33.197  21.606 -23.297  0.00  0.00     0.010 A 
ATOM     18  C   UNL d   1      33.232  20.788 -23.356  0.00  0.00     0.039 A 
ATOM     19  C   UNL d   1      33.236  22.078 -23.980  0.00  0.00     0.000 C 
ENDBRANCH   1   4
BRANCH   2  20
ATOM     20  C   UNL d   1      33.235  18.297 -23.535  0.00  0.00     0.143 C 
BRANCH  20  21
ATOM     21  N   UNL d   1      32.559  17.869 -23.727  0.00  0.00    -0.306 N 
ATOM     22  C   UNL d   1      32.177  18.178 -24.339  0.00  0.00     0.059 A 
ATOM     23  C   UNL d   1      31.514  17.989 -24.738  0.00  0.00     0.080 A 
ATOM     24  C   UNL d   1      30.983  17.426 -24.680  0.00  0.00     0.061 A 
ATOM     25  C   UNL d   1      31.957  17.471 -23.881  0.00  0.00     0.024 A 
ATOM     26  N   UNL d   1      30.866  16.803 -24.211  0.00  0.00    -0.280 N 
ATOM     27  C   UNL d   1      31.255  16.491 -23.589  0.00  0.00     0.049 A 
ATOM     28  C   UNL d   1      30.199  16.458 -24.470  0.00  0.00     0.264 A 
ATOM     29  C   UNL d   1      31.901  16.676 -23.201  0.00  0.00     0.079 A 
ATOM     30  C   UNL d   1      30.968  15.839 -23.239  0.00  0.00     0.014 A 
ATOM     31  C   UNL d   1      32.444  17.245 -23.254  0.00  0.00     0.059 A 
ATOM     32  C   UNL d   1      30.308  15.498 -23.497  0.00  0.00     0.006 A 
ATOM     33  C   UNL d   1      29.918  15.810 -24.119  0.00  0.00     0.061 A 
ATOM     34  O   UNL d   1      29.814  16.775 -25.093  0.00  0.00    -0.267 OA
ENDBRANCH  20  21
ENDBRANCH   2  20
TORSDOF 3
ENDMDL
MODEL 2
REMARK VINA RESULT:      -1.3      0.974      1.832
REMARK  3 active torsions:
REMARK  status: ('A' for Active; 'I' for Inactive)
REMARK    1  A    between atoms: C_24  and  N_10 
REMARK    2  A    between atoms: C_12  and  N_15 
REMARK       I    between atoms: N_15  and  C_16 
REMARK    3  A    between atoms: C_16  and  C_24 
ROOT
ATOM      1  N   UNL d   1      32.600  19.217 -23.561  0.00  0.00    -0.188 NA
ATOM      2  C   UNL d   1      32.846  18.446 -23.395  0.00  0.00     0.298 C 
ATOM      3  O   UNL d   1      33.237  18.289 -22.677  0.00  0.00    -0.263 OA
ENDROOT
BRANCH   1   4
ATOM      4  C   UNL d   1      32.741  19.826 -23.016  0.00  0.00     0.166 A 
ATOM      5  N   UNL d   1      32.809  20.608 -23.278  0.00  0.00    -0.226 NA
ATOM      6  C   UNL d   1      32.950  21.216 -22.739  0.00  0.00     0.090 A 
ATOM      7  C   UNL d   1      33.019  21.998 -22.994  0.00  0.00     0.041 A 
ATOM      8  C   UNL d   1      33.025  21.046 -21.932  0.00  0.00     0.081 A 
ATOM      9  C   UNL d   1      33.161  22.607 -22.450  0.00  0.00     0.105 A 
ATOM     10  C   UNL d   1      32.945  22.172 -23.800  0.00  0.00     0.004 A 
ATOM     11  C   UNL d   1      33.228  23.386 -22.714  0.00  0.00     0.025 A 
ATOM     12  O   UNL d   1      33.234  22.433 -21.650  0.00  0.00    -0.273 OA
ATOM     13  C   UNL d   1      33.155  23.562 -23.516  0.00  0.00     0.002 A 
ATOM     14  C   UNL d   1      33.013  22.950 -24.063  0.00  0.00     0.000 A 
ATOM     15  C   UNL d   1      33.167  21.655 -21.387  0.00  0.00     0.301 A 
ATOM     16  O   UNL d   1      33.241  21.479 -20.579  0.00  0.00    -0.259 OA
ATOM     17  C   UNL d   1      32.957  20.264 -21.670  0.00  0.00     0.010 A 
ATOM     18  C   UNL d   1      32.817  19.659 -22.206  0.00  0.00     0.039 A 
ATOM     19  C   UNL d   1      33.033  20.097 -20.859  0.00  0.00     0.000 C 
ENDBRANCH   1   4
BRANCH   2  20
ATOM     20  C   UNL d   1      32.708  17.831 -23.934  0.00  0.00     0.143 C 
BRANCH  20  21
ATOM     21  N   UNL d   1      31.948  17.532 -24.034  0.00  0.00    -0.306 N 
ATOM     22  C   UNL d   1      31.584  17.850 -24.651  0.00  0.00     0.059 A 
ATOM     23  C   UNL d   1      30.866  17.761 -24.985  0.00  0.00     0.080 A 
ATOM     24  C   UNL d   1      30.243  17.325 -24.832  0.00  0.00     0.061 A 
ATOM     25  C   UNL d   1      31.271  17.250 -24.105  0.00  0.00     0.024 A 
ATOM     26  N   UNL d   1      30.047  16.787 -24.290  0.00  0.00    -0.280 N 
ATOM     27  C   UNL d   1      30.419  16.464 -23.663  0.00  0.00     0.049 A 
ATOM     28  C   UNL d   1      29.306  16.559 -24.467  0.00  0.00     0.264 A 
ATOM     29  C   UNL d   1      31.118  16.552 -23.339  0.00  0.00     0.079 A 
ATOM     30  C   UNL d   1      30.041  15.920 -23.226  0.00  0.00     0.014 A 
ATOM     31  C   UNL d   1      31.755  16.992 -23.488  0.00  0.00     0.059 A 
ATOM     32  C   UNL d   1      29.308  15.696 -23.402  0.00  0.00     0.006 A 
ATOM     33  C   UNL d   1      28.936  16.018 -24.029  0.00  0.00     0.061 A 
ATOM     34  O   UNL d   1      28.940  16.886 -25.097  0.00  0.00    -0.267 OA
ENDBRANCH  20  21
ENDBRANCH   2  20
TORSDOF 3
ENDMDL
