MODEL 1
REMARK VINA RESULT:      44.0      0.000      0.000
REMARK  4 active torsions:
REMARK  status: ('A' for Active; 'I' for Inactive)
REMARK       I    between atoms: C_2  and  N_1 
REMARK       I    between atoms: N_8  and  C_2 
REMARK    1  A    between atoms: C_14  and  N_8 
REMARK    2  A    between atoms: C_15  and  N_8 
REMARK    3  A    between atoms: C_17  and  C_14 
REMARK    4  A    between atoms: C_16  and  C_15 
ROOT
ATOM      1  N   UNL d   1     -58.138 -98.757 -45.160  0.00  0.00    -0.259 N 
ATOM      2  C   UNL d   1     -57.320 -98.757 -45.254  0.00  0.00     0.339 C 
ATOM      3  S   UNL d   1     -59.784 -98.757 -44.964  0.00  0.00    -0.084 SA
ATOM      4  C   UNL d   1     -58.637 -98.757 -45.816  0.00  0.00     0.074 A 
ATOM      5  C   UNL d   1     -58.463 -98.757 -44.396  0.00  0.00     0.074 A 
ATOM      6  C   UNL d   1     -59.456 -98.757 -45.730  0.00  0.00     0.046 A 
ATOM      7  C   UNL d   1     -59.287 -98.757 -44.307  0.00  0.00     0.046 A 
ATOM      8  N   UNL d   1     -56.821 -98.757 -44.596  0.00  0.00    -0.258 N 
ATOM      9  O   UNL d   1     -56.991 -98.757 -46.016  0.00  0.00    -0.245 OA
ATOM     10  C   UNL d   1     -58.309 -98.757 -46.580  0.00  0.00     0.018 A 
ATOM     11  C   UNL d   1     -57.978 -98.757 -43.740  0.00  0.00     0.018 A 
ATOM     12  C   UNL d   1     -59.616 -98.758 -43.550  0.00  0.00     0.008 A 
ATOM     13  C   UNL d   1     -59.959 -98.757 -46.377  0.00  0.00     0.008 A 
ATOM     14  C   UNL d   1     -58.304 -98.757 -42.977  0.00  0.00     0.002 A 
ATOM     15  C   UNL d   1     -58.811 -98.757 -47.229  0.00  0.00     0.002 A 
ATOM     16  C   UNL d   1     -59.621 -98.757 -47.138  0.00  0.00     0.001 A 
ATOM     17  C   UNL d   1     -59.119 -98.758 -42.892  0.00  0.00     0.001 A 
ENDROOT
BRANCH   8  18
ATOM     18  C   UNL d   1     -57.149 -98.757 -43.831  0.00  0.00     0.085 C 
BRANCH  18  19
ATOM     19  C   UNL d   1     -56.695 -99.020 -43.210  0.00  0.00     0.019 C 
ATOM     20  C   UNL d   1     -55.893 -98.825 -43.197  0.00  0.00     0.002 C 
ENDBRANCH  18  19
ENDBRANCH   8  18
BRANCH   8  21
ATOM     21  C   UNL d   1     -56.004 -98.757 -44.699  0.00  0.00     0.085 C 
BRANCH  21  22
ATOM     22  C   UNL d   1     -55.632 -99.381 -45.103  0.00  0.00     0.019 C 
ATOM     23  C   UNL d   1     -54.823 -99.465 -45.082  0.00  0.00     0.002 C 
ENDBRANCH  21  22
ENDBRANCH   8  21
TORSDOF 4
ENDMDL
MODEL 2
REMARK VINA RESULT:      46.8      1.111      2.747
REMARK  4 active torsions:
REMARK  status: ('A' for Active; 'I' for Inactive)
REMARK       I    between atoms: C_2  and  N_1 
REMARK       I    between atoms: N_8  and  C_2 
REMARK    1  A    between atoms: C_14  and  N_8 
REMARK    2  A    between atoms: C_15  and  N_8 
REMARK    3  A    between atoms: C_17  and  C_14 
REMARK    4  A    between atoms: C_16  and  C_15 
ROOT
ATOM      1  N   UNL d   1     -58.130 -98.757 -43.486  0.00  0.00    -0.259 N 
ATOM      2  C   UNL d   1     -57.312 -98.758 -43.385  0.00  0.00     0.339 C 
ATOM      3  S   UNL d   1     -59.774 -98.756 -43.694  0.00  0.00    -0.084 SA
ATOM      4  C   UNL d   1     -58.634 -98.757 -42.833  0.00  0.00     0.074 A 
ATOM      5  C   UNL d   1     -58.450 -98.756 -44.252  0.00  0.00     0.074 A 
ATOM      6  C   UNL d   1     -59.453 -98.756 -42.925  0.00  0.00     0.046 A 
ATOM      7  C   UNL d   1     -59.273 -98.756 -44.347  0.00  0.00     0.046 A 
ATOM      8  N   UNL d   1     -56.809 -98.758 -44.039  0.00  0.00    -0.258 N 
ATOM      9  O   UNL d   1     -56.989 -98.758 -42.620  0.00  0.00    -0.245 OA
ATOM     10  C   UNL d   1     -58.312 -98.757 -42.066  0.00  0.00     0.018 A 
ATOM     11  C   UNL d   1     -57.959 -98.756 -44.903  0.00  0.00     0.018 A 
ATOM     12  C   UNL d   1     -59.596 -98.755 -45.107  0.00  0.00     0.008 A 
ATOM     13  C   UNL d   1     -59.961 -98.756 -42.282  0.00  0.00     0.008 A 
ATOM     14  C   UNL d   1     -58.279 -98.756 -45.669  0.00  0.00     0.002 A 
ATOM     15  C   UNL d   1     -58.819 -98.757 -41.421  0.00  0.00     0.002 A 
ATOM     16  C   UNL d   1     -59.628 -98.756 -41.519  0.00  0.00     0.001 A 
ATOM     17  C   UNL d   1     -59.093 -98.755 -45.761  0.00  0.00     0.001 A 
ENDROOT
BRANCH   8  18
ATOM     18  C   UNL d   1     -57.131 -98.757 -44.806  0.00  0.00     0.085 C 
BRANCH  18  19
ATOM     19  C   UNL d   1     -56.792 -99.230 -45.374  0.00  0.00     0.019 C 
ATOM     20  C   UNL d   1     -56.278 -98.884 -45.920  0.00  0.00     0.002 C 
ENDBRANCH  18  19
ENDBRANCH   8  18
BRANCH   8  21
ATOM     21  C   UNL d   1     -55.993 -98.758 -43.930  0.00  0.00     0.085 C 
BRANCH  21  22
ATOM     22  C   UNL d   1     -55.512 -99.274 -44.371  0.00  0.00     0.019 C 
ATOM     23  C   UNL d   1     -54.750 -99.433 -44.135  0.00  0.00     0.002 C 
ENDBRANCH  21  22
ENDBRANCH   8  21
TORSDOF 4
ENDMDL
