MODEL 1
REMARK VINA RESULT:       6.7      0.000      0.000
REMARK  1 active torsions:
REMARK  status: ('A' for Active; 'I' for Inactive)
REMARK    1  A    between atoms: C_9  and  C_3 
ROOT
ATOM      1  C   UNL d   1      46.370 -18.695  43.418  0.00  0.00     0.171 A 
ATOM      2  N   UNL d   1      46.455 -19.105  42.707  0.00  0.00    -0.212 N 
ATOM      3  C   UNL d   1      46.262 -17.875  43.414  0.00  0.00     0.121 A 
ATOM      4  N   UNL d   1      46.431 -18.695  41.992  0.00  0.00    -0.162 NA
ATOM      5  N   UNL d   1      46.394 -19.101  44.134  0.00  0.00    -0.226 NA
ATOM      6  C   UNL d   1      46.563 -19.920  42.712  0.00  0.00     0.086 A 
ATOM      7  C   UNL d   1      46.323 -17.875  41.987  0.00  0.00     0.130 A 
ATOM      8  C   UNL d   1      46.586 -20.330  43.427  0.00  0.00     0.038 A 
ATOM      9  C   UNL d   1      46.502 -19.920  44.139  0.00  0.00     0.085 A 
ATOM     10  C   UNL d   1      46.647 -20.330  42.001  0.00  0.00     0.021 C 
ATOM     11  C   UNL d   1      46.525 -20.330  44.854  0.00  0.00     0.021 C 
ENDROOT
BRANCH   3  12
ATOM     12  C   UNL d   1      46.161 -17.300  43.999  0.00  0.00     0.215 C 
ATOM     13  O   UNL d   1      45.954 -16.530  43.783  0.00  0.00    -0.644 OA
ATOM     14  O   UNL d   1      46.267 -17.494  44.795  0.00  0.00    -0.644 OA
ENDBRANCH   3  12
TORSDOF 1
ENDMDL
MODEL 2
REMARK VINA RESULT:       8.7      4.850      6.079
REMARK  1 active torsions:
REMARK  status: ('A' for Active; 'I' for Inactive)
REMARK    1  A    between atoms: C_9  and  C_3 
ROOT
ATOM      1  C   UNL d   1      45.217 -13.698  44.209  0.00  0.00     0.171 A 
ATOM      2  N   UNL d   1      45.913 -13.254  44.200  0.00  0.00    -0.212 N 
ATOM      3  C   UNL d   1      45.199 -14.431  44.591  0.00  0.00     0.121 A 
ATOM      4  N   UNL d   1      46.590 -13.542  44.572  0.00  0.00    -0.162 NA
ATOM      5  N   UNL d   1      44.540 -13.413  43.839  0.00  0.00    -0.226 NA
ATOM      6  C   UNL d   1      45.931 -12.525  43.819  0.00  0.00     0.086 A 
ATOM      7  C   UNL d   1      46.572 -14.276  44.954  0.00  0.00     0.130 A 
ATOM      8  C   UNL d   1      45.253 -12.236  43.447  0.00  0.00     0.038 A 
ATOM      9  C   UNL d   1      44.558 -12.680  43.456  0.00  0.00     0.085 A 
ATOM     10  C   UNL d   1      46.626 -12.081  43.810  0.00  0.00     0.021 C 
ATOM     11  C   UNL d   1      43.881 -12.392  43.084  0.00  0.00     0.021 C 
ENDROOT
BRANCH   3  12
ATOM     12  C   UNL d   1      44.621 -15.009  44.710  0.00  0.00     0.215 C 
ATOM     13  O   UNL d   1      44.806 -15.804  44.582  0.00  0.00    -0.644 OA
ATOM     14  O   UNL d   1      43.862 -14.794  44.954  0.00  0.00    -0.644 OA
ENDBRANCH   3  12
TORSDOF 1
ENDMDL
MODEL 3
REMARK VINA RESULT:       9.0      1.154      2.365
REMARK  1 active torsions:
REMARK  status: ('A' for Active; 'I' for Inactive)
REMARK    1  A    between atoms: C_9  and  C_3 
ROOT
ATOM      1  C   UNL d   1      46.328 -18.836  43.133  0.00  0.00     0.171 A 
ATOM      2  N   UNL d   1      46.486 -18.831  42.324  0.00  0.00    -0.212 N 
ATOM      3  C   UNL d   1      46.329 -19.549  43.551  0.00  0.00     0.121 A 
ATOM      4  N   UNL d   1      46.644 -19.539  41.932  0.00  0.00    -0.162 NA
ATOM      5  N   UNL d   1      46.170 -18.131  43.528  0.00  0.00    -0.226 NA
ATOM      6  C   UNL d   1      46.485 -18.121  41.908  0.00  0.00     0.086 A 
ATOM      7  C   UNL d   1      46.645 -20.253  42.350  0.00  0.00     0.130 A 
ATOM      8  C   UNL d   1      46.327 -17.413  42.300  0.00  0.00     0.038 A 
ATOM      9  C   UNL d   1      46.170 -17.417  43.110  0.00  0.00     0.085 A 
ATOM     10  C   UNL d   1      46.643 -18.116  41.098  0.00  0.00     0.021 C 
ATOM     11  C   UNL d   1      46.011 -16.709  43.502  0.00  0.00     0.021 C 
ENDROOT
BRANCH   3  12
ATOM     12  C   UNL d   1      46.199 -19.759  44.340  0.00  0.00     0.215 C 
ATOM     13  O   UNL d   1      45.628 -20.328  44.522  0.00  0.00    -0.644 OA
ATOM     14  O   UNL d   1      46.638 -19.403  44.943  0.00  0.00    -0.644 OA
ENDBRANCH   3  12
TORSDOF 1
ENDMDL
