MODEL 1
REMARK VINA RESULT:      43.2      0.000      0.000
REMARK  6 active torsions:
REMARK  status: ('A' for Active; 'I' for Inactive)
REMARK    1  A    between atoms: N_2  and  C_1 
REMARK       I    between atoms: C_4  and  N_2 
REMARK    2  A    between atoms: C_6  and  C_4 
REMARK    3  A    between atoms: C_9  and  C_6 
REMARK    4  A    between atoms: C_8  and  O_15 
REMARK    5  A    between atoms: O_15  and  C_9 
REMARK    6  A    between atoms: O_17  and  C_10 
ROOT
ATOM      1  C   UNL d   1      59.868  48.770  50.658  0.00  0.00     0.128 C 
ENDROOT
BRANCH   1   2
ATOM      2  C   UNL d   1      60.672  48.981  50.686  0.00  0.00     0.089 C 
BRANCH   2   3
ATOM      3  C   UNL d   1      61.070  48.979  51.409  0.00  0.00     0.283 C 
ATOM      4  N   UNL d   1      60.870  49.537  51.982  0.00  0.00    -0.183 NA
ATOM      5  O   UNL d   1      61.661  48.424  51.555  0.00  0.00    -0.265 OA
BRANCH   4   6
ATOM      6  C   UNL d   1      61.271  49.533  52.708  0.00  0.00     0.197 A 
ATOM      7  N   UNL d   1      60.949  49.703  53.446  0.00  0.00    -0.219 NA
ATOM      8  C   UNL d   1      61.542  49.632  54.005  0.00  0.00     0.108 A 
ATOM      9  C   UNL d   1      62.237  49.417  53.611  0.00  0.00     0.059 A 
ATOM     10  S   UNL d   1      62.072  49.355  52.809  0.00  0.00    -0.046 SA
ENDBRANCH   4   6
ENDBRANCH   2   3
ENDBRANCH   1   2
BRANCH   1  11
ATOM     11  O   UNL d   1      59.467  49.481  50.544  0.00  0.00    -0.305 OA
BRANCH  11  12
ATOM     12  C   UNL d   1      58.672  49.472  50.330  0.00  0.00     0.100 A 
ATOM     13  C   UNL d   1      58.095  49.704  50.875  0.00  0.00     0.027 A 
ATOM     14  C   UNL d   1      57.300  49.696  50.661  0.00  0.00     0.026 A 
ATOM     15  C   UNL d   1      57.078  49.456  49.904  0.00  0.00     0.094 A 
ATOM     16  C   UNL d   1      57.651  49.224  49.361  0.00  0.00     0.026 A 
ATOM     17  C   UNL d   1      58.450  49.232  49.573  0.00  0.00     0.027 A 
BRANCH  15  18
ATOM     18  O   UNL d   1      56.275  49.448  49.693  0.00  0.00    -0.328 OA
ATOM     19  C   UNL d   1      56.043  49.679  48.938  0.00  0.00     0.181 C 
ENDBRANCH  15  18
ENDBRANCH  11  12
ENDBRANCH   1  11
TORSDOF 6
ENDMDL
MODEL 2
REMARK VINA RESULT:      43.8      1.413      1.902
REMARK  6 active torsions:
REMARK  status: ('A' for Active; 'I' for Inactive)
REMARK    1  A    between atoms: N_2  and  C_1 
REMARK       I    between atoms: C_4  and  N_2 
REMARK    2  A    between atoms: C_6  and  C_4 
REMARK    3  A    between atoms: C_9  and  C_6 
REMARK    4  A    between atoms: C_8  and  O_15 
REMARK    5  A    between atoms: O_15  and  C_9 
REMARK    6  A    between atoms: O_17  and  C_10 
ROOT
ATOM      1  C   UNL d   1      58.412  49.702  50.296  0.00  0.00     0.128 C 
ENDROOT
BRANCH   1   2
ATOM      2  C   UNL d   1      58.725  49.613  51.060  0.00  0.00     0.089 C 
BRANCH   2   3
ATOM      3  C   UNL d   1      59.540  49.532  51.161  0.00  0.00     0.283 C 
ATOM      4  N   UNL d   1      59.846  49.432  51.920  0.00  0.00    -0.183 NA
ATOM      5  O   UNL d   1      60.043  49.551  50.508  0.00  0.00    -0.265 OA
BRANCH   4   6
ATOM      6  C   UNL d   1      60.666  49.351  52.019  0.00  0.00     0.197 A 
ATOM      7  N   UNL d   1      61.122  49.689  52.614  0.00  0.00    -0.219 NA
ATOM      8  C   UNL d   1      61.899  49.463  52.498  0.00  0.00     0.108 A 
ATOM      9  C   UNL d   1      61.925  48.981  51.826  0.00  0.00     0.059 A 
ATOM     10  S   UNL d   1      61.163  48.911  51.528  0.00  0.00    -0.046 SA
ENDBRANCH   4   6
ENDBRANCH   2   3
ENDBRANCH   1   2
BRANCH   1  11
ATOM     11  O   UNL d   1      57.598  49.617  50.390  0.00  0.00    -0.305 OA
BRANCH  11  12
ATOM     12  C   UNL d   1      57.212  48.971  50.057  0.00  0.00     0.100 A 
ATOM     13  C   UNL d   1      56.540  49.088  49.588  0.00  0.00     0.027 A 
ATOM     14  C   UNL d   1      56.155  48.441  49.255  0.00  0.00     0.026 A 
ATOM     15  C   UNL d   1      56.436  47.677  49.388  0.00  0.00     0.094 A 
ATOM     16  C   UNL d   1      57.104  47.560  49.854  0.00  0.00     0.026 A 
ATOM     17  C   UNL d   1      57.494  48.207  50.190  0.00  0.00     0.027 A 
BRANCH  15  18
ATOM     18  O   UNL d   1      56.044  47.029  49.049  0.00  0.00    -0.328 OA
ATOM     19  C   UNL d   1      56.466  46.357  48.830  0.00  0.00     0.181 C 
ENDBRANCH  15  18
ENDBRANCH  11  12
ENDBRANCH   1  11
TORSDOF 6
ENDMDL
