MODEL 1
REMARK VINA RESULT:      -2.5      0.000      0.000
REMARK  6 active torsions:
REMARK  status: ('A' for Active; 'I' for Inactive)
REMARK    1  A    between atoms: C_16  and  N_1 
REMARK    2  A    between atoms: C_11  and  C_2 
REMARK    3  A    between atoms: S_15  and  C_3 
REMARK    4  A    between atoms: C_8  and  C_11 
REMARK    5  A    between atoms: C_13  and  C_17 
REMARK       I    between atoms: N_14  and  C_13 
REMARK    6  A    between atoms: C_17  and  S_15 
ROOT
ATOM      1  N   UNL d   1      57.931  -0.785  30.407  0.00  0.00    -0.269 N 
ATOM      2  C   UNL d   1      57.466  -0.588  31.057  0.00  0.00     0.172 A 
ATOM      3  C   UNL d   1      57.818  -1.575  30.256  0.00  0.00     0.201 A 
ATOM      4  N   UNL d   1      57.072  -1.265  31.297  0.00  0.00    -0.128 NA
ATOM      5  N   UNL d   1      57.292  -1.882  30.795  0.00  0.00    -0.121 NA
ENDROOT
BRANCH   2   6
ATOM      6  C   UNL d   1      57.464   0.175  31.341  0.00  0.00     0.059 C 
BRANCH   6   7
ATOM      7  C   UNL d   1      57.125   0.336  32.074  0.00  0.00     0.094 A 
ATOM      8  C   UNL d   1      56.308   0.405  32.144  0.00  0.00     0.082 A 
ATOM      9  C   UNL d   1      55.971   0.566  32.881  0.00  0.00     0.285 A 
ATOM     10  O   UNL d   1      55.134   0.638  32.959  0.00  0.00    -0.265 OA
ATOM     11  N   UNL d   1      56.468   0.657  33.546  0.00  0.00    -0.152 NA
ATOM     12  C   UNL d   1      57.278   0.587  33.473  0.00  0.00     0.371 A 
ATOM     13  N   UNL d   1      57.612   0.425  32.727  0.00  0.00    -0.191 NA
ATOM     14  O   UNL d   1      57.760   0.679  34.139  0.00  0.00    -0.242 OA
ENDBRANCH   6   7
ENDBRANCH   2   6
BRANCH   1  15
ATOM     15  C   UNL d   1      58.427  -0.300  29.969  0.00  0.00     0.067 A 
ATOM     16  C   UNL d   1      59.169  -0.089  30.274  0.00  0.00     0.018 A 
ATOM     17  C   UNL d   1      59.675   0.403  29.831  0.00  0.00     0.002 A 
ATOM     18  C   UNL d   1      59.432   0.678  29.092  0.00  0.00     0.000 A 
ATOM     19  C   UNL d   1      58.689   0.465  28.792  0.00  0.00     0.002 A 
ATOM     20  C   UNL d   1      58.190  -0.022  29.231  0.00  0.00     0.018 A 
ENDBRANCH   1  15
BRANCH   3  21
ATOM     21  S   UNL d   1      58.192  -2.005  29.633  0.00  0.00    -0.043 SA
BRANCH  21  22
ATOM     22  C   UNL d   1      58.626  -2.696  29.813  0.00  0.00     0.099 C 
BRANCH  22  23
ATOM     23  C   UNL d   1      58.850  -3.208  29.202  0.00  0.00     0.271 C 
ATOM     24  N   UNL d   1      59.640  -3.452  29.142  0.00  0.00    -0.272 N 
ATOM     25  C   UNL d   1      60.309  -3.275  29.607  0.00  0.00     0.083 A 
ATOM     26  C   UNL d   1      59.875  -3.963  28.535  0.00  0.00     0.083 A 
ATOM     27  C   UNL d   1      60.952  -3.678  29.284  0.00  0.00     0.021 A 
ATOM     28  C   UNL d   1      60.682  -4.102  28.623  0.00  0.00     0.021 A 
ATOM     29  O   UNL d   1      58.293  -3.478  28.649  0.00  0.00    -0.266 OA
ENDBRANCH  22  23
ENDBRANCH  21  22
ENDBRANCH   3  21
TORSDOF 6
ENDMDL
MODEL 2
REMARK VINA RESULT:      -0.6      1.131      1.783
REMARK  6 active torsions:
REMARK  status: ('A' for Active; 'I' for Inactive)
REMARK    1  A    between atoms: C_16  and  N_1 
REMARK    2  A    between atoms: C_11  and  C_2 
REMARK    3  A    between atoms: S_15  and  C_3 
REMARK    4  A    between atoms: C_8  and  C_11 
REMARK    5  A    between atoms: C_13  and  C_17 
REMARK       I    between atoms: N_14  and  C_13 
REMARK    6  A    between atoms: C_17  and  S_15 
ROOT
ATOM      1  N   UNL d   1      58.862  -0.800  29.772  0.00  0.00    -0.269 N 
ATOM      2  C   UNL d   1      58.267  -0.600  30.304  0.00  0.00     0.172 A 
ATOM      3  C   UNL d   1      58.694  -1.541  29.483  0.00  0.00     0.201 A 
ATOM      4  N   UNL d   1      57.738  -1.225  30.334  0.00  0.00    -0.128 NA
ATOM      5  N   UNL d   1      58.006  -1.814  29.820  0.00  0.00    -0.121 NA
ENDROOT
BRANCH   2   6
ATOM      6  C   UNL d   1      58.286   0.118  30.686  0.00  0.00     0.059 C 
BRANCH   6   7
ATOM      7  C   UNL d   1      57.856   0.220  31.382  0.00  0.00     0.094 A 
ATOM      8  C   UNL d   1      58.247   0.384  32.086  0.00  0.00     0.082 A 
ATOM      9  C   UNL d   1      57.814   0.486  32.783  0.00  0.00     0.285 A 
ATOM     10  O   UNL d   1      58.210   0.654  33.509  0.00  0.00    -0.265 OA
ATOM     11  N   UNL d   1      56.982   0.422  32.758  0.00  0.00    -0.152 NA
ATOM     12  C   UNL d   1      56.597   0.260  32.057  0.00  0.00     0.371 A 
ATOM     13  N   UNL d   1      57.039   0.157  31.358  0.00  0.00    -0.191 NA
ATOM     14  O   UNL d   1      55.772   0.198  32.045  0.00  0.00    -0.242 OA
ENDBRANCH   6   7
ENDBRANCH   2   6
BRANCH   1  15
ATOM     15  C   UNL d   1      59.518  -0.359  29.551  0.00  0.00     0.067 A 
ATOM     16  C   UNL d   1      59.469   0.149  28.897  0.00  0.00     0.018 A 
ATOM     17  C   UNL d   1      60.134   0.599  28.671  0.00  0.00     0.002 A 
ATOM     18  C   UNL d   1      60.836   0.533  29.101  0.00  0.00     0.000 A 
ATOM     19  C   UNL d   1      60.879   0.024  29.753  0.00  0.00     0.002 A 
ATOM     20  C   UNL d   1      60.220  -0.420  29.975  0.00  0.00     0.018 A 
ENDBRANCH   1  15
BRANCH   3  21
ATOM     21  S   UNL d   1      59.165  -1.957  28.920  0.00  0.00    -0.043 SA
BRANCH  21  22
ATOM     22  C   UNL d   1      58.839  -2.611  28.514  0.00  0.00     0.099 C 
BRANCH  22  23
ATOM     23  C   UNL d   1      59.253  -3.328  28.495  0.00  0.00     0.271 C 
ATOM     24  N   UNL d   1      58.834  -4.043  28.483  0.00  0.00    -0.272 N 
ATOM     25  C   UNL d   1      58.015  -4.203  28.485  0.00  0.00     0.083 A 
ATOM     26  C   UNL d   1      59.238  -4.765  28.464  0.00  0.00     0.083 A 
ATOM     27  C   UNL d   1      57.921  -5.022  28.468  0.00  0.00     0.021 A 
ATOM     28  C   UNL d   1      58.677  -5.366  28.455  0.00  0.00     0.021 A 
ATOM     29  O   UNL d   1      60.083  -3.337  28.489  0.00  0.00    -0.266 OA
ENDBRANCH  22  23
ENDBRANCH  21  22
ENDBRANCH   3  21
TORSDOF 6
ENDMDL
