MODEL 1
REMARK VINA RESULT:      -8.7      0.000      0.000
REMARK  5 active torsions:
REMARK  status: ('A' for Active; 'I' for Inactive)
REMARK    1  A    between atoms: C_7  and  N_1 
REMARK    2  A    between atoms: C_15  and  C_5 
REMARK    3  A    between atoms: C_14  and  C_6 
REMARK    4  A    between atoms: C_8  and  C_7 
REMARK       I    between atoms: N_11  and  C_8 
REMARK    5  A    between atoms: C_13  and  N_11 
ROOT
ATOM      1  N   UNL d   1      53.252  33.261  53.343  0.00  0.00    -0.235 N 
ATOM      2  C   UNL d   1      53.448  33.788  53.955  0.00  0.00     0.273 A 
ATOM      3  C   UNL d   1      52.589  33.412  52.866  0.00  0.00     0.273 A 
ATOM      4  S   UNL d   1      52.329  34.605  53.614  0.00  0.00    -0.077 SA
ATOM      5  C   UNL d   1      52.132  34.086  53.007  0.00  0.00     0.086 A 
ATOM      6  C   UNL d   1      52.986  34.451  54.082  0.00  0.00     0.086 A 
ATOM      7  O   UNL d   1      52.394  32.889  52.259  0.00  0.00    -0.266 OA
ATOM      8  O   UNL d   1      54.109  33.641  54.433  0.00  0.00    -0.266 OA
ENDROOT
BRANCH   1   9
ATOM      9  C   UNL d   1      53.719  32.591  53.214  0.00  0.00     0.148 C 
BRANCH   9  10
ATOM     10  C   UNL d   1      53.494  31.866  53.538  0.00  0.00     0.297 C 
ATOM     11  N   UNL d   1      53.592  31.173  53.102  0.00  0.00    -0.207 NA
ATOM     12  O   UNL d   1      53.171  31.843  54.299  0.00  0.00    -0.264 OA
BRANCH  11  13
ATOM     13  C   UNL d   1      53.366  30.448  53.425  0.00  0.00     0.085 A 
ATOM     14  C   UNL d   1      53.816  30.106  54.016  0.00  0.00     0.019 A 
ATOM     15  C   UNL d   1      53.587  29.384  54.334  0.00  0.00     0.002 A 
ATOM     16  C   UNL d   1      52.908  28.999  54.066  0.00  0.00     0.000 A 
ATOM     17  C   UNL d   1      52.454  29.350  53.466  0.00  0.00     0.002 A 
ATOM     18  C   UNL d   1      52.686  30.070  53.152  0.00  0.00     0.019 A 
ENDBRANCH  11  13
ENDBRANCH   9  10
ENDBRANCH   1   9
BRANCH   6  19
ATOM     19  C   UNL d   1      53.182  34.980  54.696  0.00  0.00     0.011 C 
ATOM     20  C   UNL d   1      53.024  35.787  54.614  0.00  0.00     0.001 C 
ENDBRANCH   6  19
BRANCH   5  21
ATOM     21  C   UNL d   1      51.473  34.235  52.532  0.00  0.00     0.011 C 
ATOM     22  C   UNL d   1      50.722  34.286  52.875  0.00  0.00     0.001 C 
ENDBRANCH   5  21
TORSDOF 5
ENDMDL
MODEL 2
REMARK VINA RESULT:      -8.3      1.363      4.156
REMARK  5 active torsions:
REMARK  status: ('A' for Active; 'I' for Inactive)
REMARK    1  A    between atoms: C_7  and  N_1 
REMARK    2  A    between atoms: C_15  and  C_5 
REMARK    3  A    between atoms: C_14  and  C_6 
REMARK    4  A    between atoms: C_8  and  C_7 
REMARK       I    between atoms: N_11  and  C_8 
REMARK    5  A    between atoms: C_13  and  N_11 
ROOT
ATOM      1  N   UNL d   1      53.029  32.928  53.201  0.00  0.00    -0.235 N 
ATOM      2  C   UNL d   1      53.064  32.116  53.030  0.00  0.00     0.273 A 
ATOM      3  C   UNL d   1      53.353  33.213  53.912  0.00  0.00     0.273 A 
ATOM      4  S   UNL d   1      53.739  31.880  54.265  0.00  0.00    -0.077 SA
ATOM      5  C   UNL d   1      53.707  32.683  54.438  0.00  0.00     0.086 A 
ATOM      6  C   UNL d   1      53.417  31.604  53.561  0.00  0.00     0.086 A 
ATOM      7  O   UNL d   1      53.319  34.019  54.083  0.00  0.00    -0.266 OA
ATOM      8  O   UNL d   1      52.741  31.828  52.323  0.00  0.00    -0.266 OA
ENDROOT
BRANCH   1   9
ATOM      9  C   UNL d   1      52.672  33.446  52.665  0.00  0.00     0.148 C 
BRANCH   9  10
ATOM     10  C   UNL d   1      51.866  33.607  52.726  0.00  0.00     0.297 C 
ATOM     11  N   UNL d   1      51.537  34.230  52.296  0.00  0.00    -0.207 NA
ATOM     12  O   UNL d   1      51.393  33.142  53.220  0.00  0.00    -0.264 OA
BRANCH  11  13
ATOM     13  C   UNL d   1      50.731  34.392  52.357  0.00  0.00     0.085 A 
ATOM     14  C   UNL d   1      50.432  34.736  53.036  0.00  0.00     0.019 A 
ATOM     15  C   UNL d   1      49.628  34.895  53.091  0.00  0.00     0.002 A 
ATOM     16  C   UNL d   1      49.117  34.711  52.471  0.00  0.00     0.000 A 
ATOM     17  C   UNL d   1      49.423  34.362  51.783  0.00  0.00     0.002 A 
ATOM     18  C   UNL d   1      50.225  34.205  51.732  0.00  0.00     0.019 A 
ENDBRANCH  11  13
ENDBRANCH   9  10
ENDBRANCH   1   9
BRANCH   6  19
ATOM     19  C   UNL d   1      53.452  30.789  53.389  0.00  0.00     0.011 C 
ATOM     20  C   UNL d   1      53.424  30.235  54.001  0.00  0.00     0.001 C 
ENDBRANCH   6  19
BRANCH   5  21
ATOM     21  C   UNL d   1      54.029  32.968  55.143  0.00  0.00     0.011 C 
ATOM     22  C   UNL d   1      54.811  33.237  55.159  0.00  0.00     0.001 C 
ENDBRANCH   5  21
TORSDOF 5
ENDMDL
MODEL 3
REMARK VINA RESULT:      -8.3      1.345      3.857
REMARK  5 active torsions:
REMARK  status: ('A' for Active; 'I' for Inactive)
REMARK    1  A    between atoms: C_7  and  N_1 
REMARK    2  A    between atoms: C_15  and  C_5 
REMARK    3  A    between atoms: C_14  and  C_6 
REMARK    4  A    between atoms: C_8  and  C_7 
REMARK       I    between atoms: N_11  and  C_8 
REMARK    5  A    between atoms: C_13  and  N_11 
ROOT
ATOM      1  N   UNL d   1      53.027  33.052  53.194  0.00  0.00    -0.235 N 
ATOM      2  C   UNL d   1      53.350  33.362  53.894  0.00  0.00     0.273 A 
ATOM      3  C   UNL d   1      53.081  32.237  53.041  0.00  0.00     0.273 A 
ATOM      4  S   UNL d   1      53.775  32.056  54.281  0.00  0.00    -0.077 SA
ATOM      5  C   UNL d   1      53.457  31.746  53.589  0.00  0.00     0.086 A 
ATOM      6  C   UNL d   1      53.718  32.862  54.427  0.00  0.00     0.086 A 
ATOM      7  O   UNL d   1      52.761  31.929  52.346  0.00  0.00    -0.266 OA
ATOM      8  O   UNL d   1      53.298  34.175  54.050  0.00  0.00    -0.266 OA
ENDROOT
BRANCH   1   9
ATOM      9  C   UNL d   1      52.654  33.558  52.655  0.00  0.00     0.148 C 
BRANCH   9  10
ATOM     10  C   UNL d   1      51.842  33.690  52.713  0.00  0.00     0.297 C 
ATOM     11  N   UNL d   1      51.489  34.283  52.260  0.00  0.00    -0.207 NA
ATOM     12  O   UNL d   1      51.389  33.226  53.226  0.00  0.00    -0.264 OA
BRANCH  11  13
ATOM     13  C   UNL d   1      50.677  34.416  52.318  0.00  0.00     0.085 A 
ATOM     14  C   UNL d   1      50.364  34.752  52.995  0.00  0.00     0.019 A 
ATOM     15  C   UNL d   1      49.555  34.882  53.047  0.00  0.00     0.002 A 
ATOM     16  C   UNL d   1      49.053  34.678  52.425  0.00  0.00     0.000 A 
ATOM     17  C   UNL d   1      49.374  34.337  51.740  0.00  0.00     0.002 A 
ATOM     18  C   UNL d   1      50.181  34.209  51.692  0.00  0.00     0.019 A 
ENDBRANCH  11  13
ENDBRANCH   9  10
ENDBRANCH   1   9
BRANCH   6  19
ATOM     19  C   UNL d   1      54.042  33.173  55.129  0.00  0.00     0.011 C 
ATOM     20  C   UNL d   1      54.859  33.274  55.199  0.00  0.00     0.001 C 
ENDBRANCH   6  19
BRANCH   5  21
ATOM     21  C   UNL d   1      53.510  30.936  53.435  0.00  0.00     0.011 C 
ATOM     22  C   UNL d   1      53.382  30.392  54.045  0.00  0.00     0.001 C 
ENDBRANCH   5  21
TORSDOF 5
ENDMDL
