MODEL 1
REMARK VINA RESULT:      44.1      0.000      0.000
REMARK  5 active torsions:
REMARK  status: ('A' for Active; 'I' for Inactive)
REMARK    1  A    between atoms: C_2  and  C_1 
REMARK    2  A    between atoms: O_4  and  C_2 
REMARK    3  A    between atoms: C_9  and  O_4 
REMARK    4  A    between atoms: C_5  and  C_9 
REMARK    5  A    between atoms: C_12  and  C_5 
ROOT
ATOM      1  C   UNL d   1     -54.777-100.453 -43.490  0.00  0.00     0.168 C 
ENDROOT
BRANCH   1   2
ATOM      2  C   UNL d   1     -54.891-101.266 -43.622  0.00  0.00     0.220 C 
ATOM      3  O   UNL d   1     -54.757-101.583 -44.368  0.00  0.00    -0.284 OA
BRANCH   2   4
ATOM      4  C   UNL d   1     -55.138-101.747 -42.998  0.00  0.00     0.041 A 
ATOM      5  C   UNL d   1     -54.730-101.716 -42.279  0.00  0.00     0.003 A 
ATOM      6  C   UNL d   1     -54.974-102.194 -41.657  0.00  0.00     0.000 A 
ATOM      7  C   UNL d   1     -55.617-102.698 -41.749  0.00  0.00     0.000 A 
ATOM      8  C   UNL d   1     -56.021-102.722 -42.473  0.00  0.00     0.000 A 
ATOM      9  C   UNL d   1     -55.777-102.244 -43.095  0.00  0.00     0.003 A 
ENDBRANCH   2   4
ENDBRANCH   1   2
BRANCH   1  10
ATOM     10  O   UNL d   1     -55.410 -99.936 -43.557  0.00  0.00    -0.267 OA
BRANCH  10  11
ATOM     11  C   UNL d   1     -55.515 -99.502 -44.246  0.00  0.00     0.306 C 
ATOM     12  O   UNL d   1     -54.877 -99.349 -44.742  0.00  0.00    -0.258 OA
BRANCH  11  13
ATOM     13  C   UNL d   1     -56.268 -99.217 -44.443  0.00  0.00     0.093 A 
ATOM     14  S   UNL d   1     -56.526 -99.013 -45.198  0.00  0.00    -0.081 SA
ATOM     15  C   UNL d   1     -57.307 -98.758 -45.144  0.00  0.00     0.036 A 
ATOM     16  C   UNL d   1     -57.535 -98.803 -44.350  0.00  0.00     0.008 A 
ATOM     17  C   UNL d   1     -56.896 -99.086 -43.919  0.00  0.00     0.012 A 
ENDBRANCH  11  13
ENDBRANCH  10  11
ENDBRANCH   1  10
TORSDOF 5
ENDMDL
MODEL 2
REMARK VINA RESULT:      46.6      5.298      6.651
REMARK  5 active torsions:
REMARK  status: ('A' for Active; 'I' for Inactive)
REMARK    1  A    between atoms: C_2  and  C_1 
REMARK    2  A    between atoms: O_4  and  C_2 
REMARK    3  A    between atoms: C_9  and  O_4 
REMARK    4  A    between atoms: C_5  and  C_9 
REMARK    5  A    between atoms: C_12  and  C_5 
ROOT
ATOM      1  C   UNL d   1     -55.487-101.764 -37.563  0.00  0.00     0.168 C 
ENDROOT
BRANCH   1   2
ATOM      2  C   UNL d   1     -55.310-101.728 -36.752  0.00  0.00     0.220 C 
ATOM      3  O   UNL d   1     -55.136-102.418 -36.340  0.00  0.00    -0.284 OA
BRANCH   2   4
ATOM      4  C   UNL d   1     -55.310-100.998 -36.368  0.00  0.00     0.041 A 
ATOM      5  C   UNL d   1     -54.718-100.448 -36.549  0.00  0.00     0.003 A 
ATOM      6  C   UNL d   1     -54.715 -99.720 -36.169  0.00  0.00     0.000 A 
ATOM      7  C   UNL d   1     -55.296 -99.539 -35.614  0.00  0.00     0.000 A 
ATOM      8  C   UNL d   1     -55.886-100.096 -35.439  0.00  0.00     0.000 A 
ATOM      9  C   UNL d   1     -55.888-100.824 -35.820  0.00  0.00     0.003 A 
ENDBRANCH   2   4
ENDBRANCH   1   2
BRANCH   1  10
ATOM     10  O   UNL d   1     -55.120-102.323 -38.037  0.00  0.00    -0.267 OA
BRANCH  10  11
ATOM     11  C   UNL d   1     -55.340-102.403 -38.824  0.00  0.00     0.306 C 
ATOM     12  O   UNL d   1     -54.769-102.408 -39.416  0.00  0.00    -0.258 OA
BRANCH  11  13
ATOM     13  C   UNL d   1     -56.140-102.480 -39.022  0.00  0.00     0.093 A 
ATOM     14  S   UNL d   1     -56.724-102.825 -38.555  0.00  0.00    -0.081 SA
ATOM     15  C   UNL d   1     -57.438-102.785 -38.962  0.00  0.00     0.036 A 
ATOM     16  C   UNL d   1     -57.298-102.413 -39.687  0.00  0.00     0.008 A 
ATOM     17  C   UNL d   1     -56.499-102.225 -39.724  0.00  0.00     0.012 A 
ENDBRANCH  11  13
ENDBRANCH  10  11
ENDBRANCH   1  10
TORSDOF 5
ENDMDL
