MODEL 1
REMARK VINA RESULT:      -9.4      0.000      0.000
REMARK  6 active torsions:
REMARK  status: ('A' for Active; 'I' for Inactive)
REMARK    1  A    between atoms: C_12  and  C_3 
REMARK    2  A    between atoms: O_11  and  C_5 
REMARK    3  A    between atoms: O_16  and  C_10 
REMARK    4  A    between atoms: C_13  and  O_11 
REMARK    5  A    between atoms: C_15  and  O_16 
REMARK    6  A    between atoms: O_24  and  C_21 
ROOT
ATOM      1  C   UNL d   1      51.739  33.410  52.845  0.00  0.00     0.201 A 
ATOM      2  C   UNL d   1      52.469  33.278  53.208  0.00  0.00     0.085 A 
ATOM      3  C   UNL d   1      51.452  34.168  52.758  0.00  0.00     0.064 A 
ATOM      4  C   UNL d   1      52.906  33.923  53.481  0.00  0.00     0.107 A 
ATOM      5  C   UNL d   1      52.767  32.520  53.301  0.00  0.00     0.110 A 
ATOM      6  C   UNL d   1      51.889  34.813  53.031  0.00  0.00     0.126 A 
ATOM      7  O   UNL d   1      52.618  34.693  53.394  0.00  0.00    -0.305 OA
ATOM      8  C   UNL d   1      53.636  33.803  53.844  0.00  0.00     0.050 A 
ATOM      9  C   UNL d   1      53.486  32.399  53.658  0.00  0.00     0.050 A 
ATOM     10  C   UNL d   1      53.922  33.044  53.931  0.00  0.00     0.107 A 
ATOM     11  O   UNL d   1      51.302  32.765  52.572  0.00  0.00    -0.286 OA
ENDROOT
BRANCH   3  12
ATOM     12  C   UNL d   1      50.717  34.294  52.393  0.00  0.00     0.005 A 
ATOM     13  C   UNL d   1      50.649  34.251  51.574  0.00  0.00     0.002 A 
ATOM     14  C   UNL d   1      49.921  34.376  51.213  0.00  0.00     0.024 A 
ATOM     15  C   UNL d   1      49.255  34.544  51.677  0.00  0.00     0.094 A 
ATOM     16  C   UNL d   1      49.320  34.587  52.493  0.00  0.00     0.024 A 
ATOM     17  C   UNL d   1      50.054  34.461  52.854  0.00  0.00     0.002 A 
BRANCH  15  18
ATOM     18  O   UNL d   1      48.522  34.669  51.316  0.00  0.00    -0.328 OA
ATOM     19  C   UNL d   1      48.057  35.324  51.530  0.00  0.00     0.181 C 
ENDBRANCH  15  18
ENDBRANCH   3  12
BRANCH   5  20
ATOM     20  O   UNL d   1      52.330  31.876  53.028  0.00  0.00    -0.273 OA
BRANCH  20  21
ATOM     21  C   UNL d   1      52.693  31.143  52.929  0.00  0.00     0.300 C 
ATOM     22  O   UNL d   1      53.156  30.997  52.263  0.00  0.00    -0.259 OA
ATOM     23  C   UNL d   1      52.591  30.556  53.498  0.00  0.00     0.074 C 
ENDBRANCH  20  21
ENDBRANCH   5  20
BRANCH  10  24
ATOM     24  O   UNL d   1      54.658  32.919  54.296  0.00  0.00    -0.273 OA
BRANCH  24  25
ATOM     25  C   UNL d   1      54.781  33.178  55.069  0.00  0.00     0.300 C 
ATOM     26  O   UNL d   1      54.384  32.816  55.694  0.00  0.00    -0.259 OA
ATOM     27  C   UNL d   1      55.301  33.802  55.226  0.00  0.00     0.074 C 
ENDBRANCH  24  25
ENDBRANCH  10  24
TORSDOF 6
ENDMDL
MODEL 2
REMARK VINA RESULT:      -7.6      1.374      4.229
REMARK  6 active torsions:
REMARK  status: ('A' for Active; 'I' for Inactive)
REMARK    1  A    between atoms: C_12  and  C_3 
REMARK    2  A    between atoms: O_11  and  C_5 
REMARK    3  A    between atoms: O_16  and  C_10 
REMARK    4  A    between atoms: C_13  and  O_11 
REMARK    5  A    between atoms: C_15  and  O_16 
REMARK    6  A    between atoms: O_24  and  C_21 
ROOT
ATOM      1  C   UNL d   1      52.853  32.483  53.635  0.00  0.00     0.201 A 
ATOM      2  C   UNL d   1      52.893  33.308  53.663  0.00  0.00     0.085 A 
ATOM      3  C   UNL d   1      53.440  32.030  53.974  0.00  0.00     0.064 A 
ATOM      4  C   UNL d   1      53.533  33.668  54.038  0.00  0.00     0.107 A 
ATOM      5  C   UNL d   1      52.309  33.773  53.325  0.00  0.00     0.110 A 
ATOM      6  C   UNL d   1      54.080  32.390  54.350  0.00  0.00     0.126 A 
ATOM      7  O   UNL d   1      54.130  33.212  54.384  0.00  0.00    -0.305 OA
ATOM      8  C   UNL d   1      53.583  34.490  54.072  0.00  0.00     0.050 A 
ATOM      9  C   UNL d   1      52.355  34.583  53.356  0.00  0.00     0.050 A 
ATOM     10  C   UNL d   1      52.995  34.943  53.732  0.00  0.00     0.107 A 
ATOM     11  O   UNL d   1      52.213  32.123  53.259  0.00  0.00    -0.286 OA
ENDROOT
BRANCH   3  12
ATOM     12  C   UNL d   1      53.394  31.201  53.943  0.00  0.00     0.005 A 
ATOM     13  C   UNL d   1      53.544  30.805  53.238  0.00  0.00     0.002 A 
ATOM     14  C   UNL d   1      53.499  29.985  53.207  0.00  0.00     0.024 A 
ATOM     15  C   UNL d   1      53.301  29.558  53.889  0.00  0.00     0.094 A 
ATOM     16  C   UNL d   1      53.150  29.951  54.594  0.00  0.00     0.024 A 
ATOM     17  C   UNL d   1      53.197  30.776  54.622  0.00  0.00     0.002 A 
BRANCH  15  18
ATOM     18  O   UNL d   1      53.254  28.733  53.861  0.00  0.00    -0.328 OA
ATOM     19  C   UNL d   1      53.426  28.281  54.537  0.00  0.00     0.181 C 
ENDBRANCH  15  18
ENDBRANCH   3  12
BRANCH   5  20
ATOM     20  O   UNL d   1      51.669  33.412  52.949  0.00  0.00    -0.273 OA
BRANCH  20  21
ATOM     21  C   UNL d   1      51.128  33.867  52.526  0.00  0.00     0.300 C 
ATOM     22  O   UNL d   1      51.321  34.145  51.774  0.00  0.00    -0.259 OA
ATOM     23  C   UNL d   1      50.395  34.044  52.857  0.00  0.00     0.074 C 
ENDBRANCH  20  21
ENDBRANCH   5  20
BRANCH  10  24
ATOM     24  O   UNL d   1      53.042  35.772  53.764  0.00  0.00    -0.273 OA
BRANCH  24  25
ATOM     25  C   UNL d   1      53.011  36.156  54.492  0.00  0.00     0.300 C 
ATOM     26  O   UNL d   1      52.314  36.156  54.930  0.00  0.00    -0.259 OA
ATOM     27  C   UNL d   1      53.677  36.545  54.791  0.00  0.00     0.074 C 
ENDBRANCH  24  25
ENDBRANCH  10  24
TORSDOF 6
ENDMDL
MODEL 3
REMARK VINA RESULT:      -7.1      1.089      2.358
REMARK  6 active torsions:
REMARK  status: ('A' for Active; 'I' for Inactive)
REMARK    1  A    between atoms: C_12  and  C_3 
REMARK    2  A    between atoms: O_11  and  C_5 
REMARK    3  A    between atoms: O_16  and  C_10 
REMARK    4  A    between atoms: C_13  and  O_11 
REMARK    5  A    between atoms: C_15  and  O_16 
REMARK    6  A    between atoms: O_24  and  C_21 
ROOT
ATOM      1  C   UNL d   1      51.207  34.434  53.068  0.00  0.00     0.201 A 
ATOM      2  C   UNL d   1      51.903  34.014  53.218  0.00  0.00     0.085 A 
ATOM      3  C   UNL d   1      50.585  34.076  52.680  0.00  0.00     0.064 A 
ATOM      4  C   UNL d   1      51.962  33.229  52.970  0.00  0.00     0.107 A 
ATOM      5  C   UNL d   1      52.534  34.363  53.607  0.00  0.00     0.110 A 
ATOM      6  C   UNL d   1      50.644  33.292  52.432  0.00  0.00     0.126 A 
ATOM      7  O   UNL d   1      51.334  32.864  52.575  0.00  0.00    -0.305 OA
ATOM      8  C   UNL d   1      52.652  32.801  53.113  0.00  0.00     0.050 A 
ATOM      9  C   UNL d   1      53.215  33.944  53.751  0.00  0.00     0.050 A 
ATOM     10  C   UNL d   1      53.274  33.160  53.502  0.00  0.00     0.107 A 
ATOM     11  O   UNL d   1      51.148  35.218  53.317  0.00  0.00    -0.286 OA
ENDROOT
BRANCH   3  12
ATOM     12  C   UNL d   1      49.889  34.504  52.533  0.00  0.00     0.005 A 
ATOM     13  C   UNL d   1      49.492  34.874  53.151  0.00  0.00     0.002 A 
ATOM     14  C   UNL d   1      48.803  35.296  53.005  0.00  0.00     0.024 A 
ATOM     15  C   UNL d   1      48.508  35.349  52.232  0.00  0.00     0.094 A 
ATOM     16  C   UNL d   1      48.902  34.981  51.614  0.00  0.00     0.024 A 
ATOM     17  C   UNL d   1      49.595  34.556  51.764  0.00  0.00     0.002 A 
BRANCH  15  18
ATOM     18  O   UNL d   1      47.815  35.773  52.083  0.00  0.00    -0.328 OA
ATOM     19  C   UNL d   1      47.586  36.392  52.588  0.00  0.00     0.181 C 
ENDBRANCH  15  18
ENDBRANCH   3  12
BRANCH   5  20
ATOM     20  O   UNL d   1      52.475  35.148  53.856  0.00  0.00    -0.273 OA
BRANCH  20  21
ATOM     21  C   UNL d   1      53.069  35.480  54.318  0.00  0.00     0.300 C 
ATOM     22  O   UNL d   1      53.732  35.817  53.961  0.00  0.00    -0.259 OA
ATOM     23  C   UNL d   1      53.000  35.476  55.139  0.00  0.00     0.074 C 
ENDBRANCH  20  21
ENDBRANCH   5  20
BRANCH  10  24
ATOM     24  O   UNL d   1      53.970  32.731  53.649  0.00  0.00    -0.273 OA
BRANCH  24  25
ATOM     25  C   UNL d   1      53.950  32.074  54.145  0.00  0.00     0.300 C 
ATOM     26  O   UNL d   1      53.977  32.173  54.963  0.00  0.00    -0.259 OA
ATOM     27  C   UNL d   1      53.903  31.310  53.831  0.00  0.00     0.074 C 
ENDBRANCH  24  25
ENDBRANCH  10  24
TORSDOF 6
ENDMDL
MODEL 4
REMARK VINA RESULT:      -6.8      1.128      2.492
REMARK  6 active torsions:
REMARK  status: ('A' for Active; 'I' for Inactive)
REMARK    1  A    between atoms: C_12  and  C_3 
REMARK    2  A    between atoms: O_11  and  C_5 
REMARK    3  A    between atoms: O_16  and  C_10 
REMARK    4  A    between atoms: C_13  and  O_11 
REMARK    5  A    between atoms: C_15  and  O_16 
REMARK    6  A    between atoms: O_24  and  C_21 
ROOT
ATOM      1  C   UNL d   1      52.027  32.927  53.285  0.00  0.00     0.201 A 
ATOM      2  C   UNL d   1      52.476  32.236  53.347  0.00  0.00     0.085 A 
ATOM      3  C   UNL d   1      51.238  32.890  53.081  0.00  0.00     0.064 A 
ATOM      4  C   UNL d   1      52.117  31.508  53.201  0.00  0.00     0.107 A 
ATOM      5  C   UNL d   1      53.269  32.262  53.551  0.00  0.00     0.110 A 
ATOM      6  C   UNL d   1      50.879  32.162  52.935  0.00  0.00     0.126 A 
ATOM      7  O   UNL d   1      51.317  31.466  52.994  0.00  0.00    -0.305 OA
ATOM      8  C   UNL d   1      52.555  30.812  53.260  0.00  0.00     0.050 A 
ATOM      9  C   UNL d   1      53.703  31.578  53.610  0.00  0.00     0.050 A 
ATOM     10  C   UNL d   1      53.344  30.850  53.463  0.00  0.00     0.107 A 
ATOM     11  O   UNL d   1      52.386  33.655  53.431  0.00  0.00    -0.286 OA
ENDROOT
BRANCH   3  12
ATOM     12  C   UNL d   1      50.793  33.589  53.020  0.00  0.00     0.005 A 
ATOM     13  C   UNL d   1      50.622  33.907  52.281  0.00  0.00     0.002 A 
ATOM     14  C   UNL d   1      50.181  34.598  52.222  0.00  0.00     0.024 A 
ATOM     15  C   UNL d   1      49.909  34.974  52.909  0.00  0.00     0.094 A 
ATOM     16  C   UNL d   1      50.079  34.658  53.647  0.00  0.00     0.024 A 
ATOM     17  C   UNL d   1      50.522  33.962  53.704  0.00  0.00     0.002 A 
BRANCH  15  18
ATOM     18  O   UNL d   1      49.466  35.669  52.852  0.00  0.00    -0.328 OA
ATOM     19  C   UNL d   1      48.656  35.665  53.039  0.00  0.00     0.181 C 
ENDBRANCH  15  18
ENDBRANCH   3  12
BRANCH   5  20
ATOM     20  O   UNL d   1      53.628  32.990  53.697  0.00  0.00    -0.273 OA
BRANCH  20  21
ATOM     21  C   UNL d   1      54.407  33.021  53.960  0.00  0.00     0.300 C 
ATOM     22  O   UNL d   1      55.029  32.923  53.427  0.00  0.00    -0.259 OA
ATOM     23  C   UNL d   1      54.565  33.150  54.759  0.00  0.00     0.074 C 
ENDBRANCH  20  21
ENDBRANCH   5  20
BRANCH  10  24
ATOM     24  O   UNL d   1      53.789  30.151  53.524  0.00  0.00    -0.273 OA
BRANCH  24  25
ATOM     25  C   UNL d   1      53.454  29.481  53.867  0.00  0.00     0.300 C 
ATOM     26  O   UNL d   1      52.968  28.987  53.421  0.00  0.00    -0.259 OA
ATOM     27  C   UNL d   1      53.600  29.296  54.660  0.00  0.00     0.074 C 
ENDBRANCH  24  25
ENDBRANCH  10  24
TORSDOF 6
ENDMDL
MODEL 5
REMARK VINA RESULT:      -6.7      1.667      5.882
REMARK  6 active torsions:
REMARK  status: ('A' for Active; 'I' for Inactive)
REMARK    1  A    between atoms: C_12  and  C_3 
REMARK    2  A    between atoms: O_11  and  C_5 
REMARK    3  A    between atoms: O_16  and  C_10 
REMARK    4  A    between atoms: C_13  and  O_11 
REMARK    5  A    between atoms: C_15  and  O_16 
REMARK    6  A    between atoms: O_24  and  C_21 
ROOT
ATOM      1  C   UNL d   1      49.498  34.832  52.736  0.00  0.00     0.201 A 
ATOM      2  C   UNL d   1      48.805  35.136  52.405  0.00  0.00     0.085 A 
ATOM      3  C   UNL d   1      50.023  34.407  52.278  0.00  0.00     0.064 A 
ATOM      4  C   UNL d   1      48.649  35.004  51.605  0.00  0.00     0.107 A 
ATOM      5  C   UNL d   1      48.271  35.563  52.855  0.00  0.00     0.110 A 
ATOM      6  C   UNL d   1      49.868  34.276  51.479  0.00  0.00     0.126 A 
ATOM      7  O   UNL d   1      49.179  34.574  51.138  0.00  0.00    -0.305 OA
ATOM      8  C   UNL d   1      47.961  35.302  51.264  0.00  0.00     0.050 A 
ATOM      9  C   UNL d   1      47.592  35.858  52.522  0.00  0.00     0.050 A 
ATOM     10  C   UNL d   1      47.436  35.727  51.723  0.00  0.00     0.107 A 
ATOM     11  O   UNL d   1      49.654  34.963  53.536  0.00  0.00    -0.286 OA
ENDROOT
BRANCH   3  12
ATOM     12  C   UNL d   1      50.718  34.105  52.618  0.00  0.00     0.005 A 
ATOM     13  C   UNL d   1      51.422  34.529  52.567  0.00  0.00     0.002 A 
ATOM     14  C   UNL d   1      52.109  34.230  52.903  0.00  0.00     0.024 A 
ATOM     15  C   UNL d   1      52.092  33.498  53.294  0.00  0.00     0.094 A 
ATOM     16  C   UNL d   1      51.392  33.074  53.345  0.00  0.00     0.024 A 
ATOM     17  C   UNL d   1      50.701  33.378  53.006  0.00  0.00     0.002 A 
BRANCH  15  18
ATOM     18  O   UNL d   1      52.782  33.195  53.632  0.00  0.00    -0.328 OA
ATOM     19  C   UNL d   1      53.242  33.667  54.139  0.00  0.00     0.181 C 
ENDBRANCH  15  18
ENDBRANCH   3  12
BRANCH   5  20
ATOM     20  O   UNL d   1      48.427  35.695  53.655  0.00  0.00    -0.273 OA
BRANCH  20  21
ATOM     21  C   UNL d   1      47.828  35.960  54.154  0.00  0.00     0.300 C 
ATOM     22  O   UNL d   1      47.179  35.477  54.315  0.00  0.00    -0.259 OA
ATOM     23  C   UNL d   1      47.879  36.709  54.493  0.00  0.00     0.074 C 
ENDBRANCH  20  21
ENDBRANCH   5  20
BRANCH  10  24
ATOM     24  O   UNL d   1      46.741  36.029  51.382  0.00  0.00    -0.273 OA
BRANCH  24  25
ATOM     25  C   UNL d   1      46.099  35.530  51.251  0.00  0.00     0.300 C 
ATOM     26  O   UNL d   1      46.187  34.856  50.785  0.00  0.00    -0.259 OA
ATOM     27  C   UNL d   1      45.360  35.698  51.584  0.00  0.00     0.074 C 
ENDBRANCH  24  25
ENDBRANCH  10  24
TORSDOF 6
ENDMDL
MODEL 6
REMARK VINA RESULT:      -6.7      2.185      4.508
REMARK  6 active torsions:
REMARK  status: ('A' for Active; 'I' for Inactive)
REMARK    1  A    between atoms: C_12  and  C_3 
REMARK    2  A    between atoms: O_11  and  C_5 
REMARK    3  A    between atoms: O_16  and  C_10 
REMARK    4  A    between atoms: C_13  and  O_11 
REMARK    5  A    between atoms: C_15  and  O_16 
REMARK    6  A    between atoms: O_24  and  C_21 
ROOT
ATOM      1  C   UNL d   1      53.546  32.156  54.061  0.00  0.00     0.201 A 
ATOM      2  C   UNL d   1      53.466  32.974  53.977  0.00  0.00     0.085 A 
ATOM      3  C   UNL d   1      53.024  31.650  53.690  0.00  0.00     0.064 A 
ATOM      4  C   UNL d   1      52.852  33.274  53.514  0.00  0.00     0.107 A 
ATOM      5  C   UNL d   1      53.984  33.492  54.345  0.00  0.00     0.110 A 
ATOM      6  C   UNL d   1      52.411  31.950  53.227  0.00  0.00     0.126 A 
ATOM      7  O   UNL d   1      52.321  32.764  53.137  0.00  0.00    -0.305 OA
ATOM      8  C   UNL d   1      52.763  34.088  53.424  0.00  0.00     0.050 A 
ATOM      9  C   UNL d   1      53.899  34.294  54.258  0.00  0.00     0.050 A 
ATOM     10  C   UNL d   1      53.285  34.594  53.795  0.00  0.00     0.107 A 
ATOM     11  O   UNL d   1      54.160  31.856  54.523  0.00  0.00    -0.286 OA
ENDROOT
BRANCH   3  12
ATOM     12  C   UNL d   1      53.110  30.829  53.778  0.00  0.00     0.005 A 
ATOM     13  C   UNL d   1      53.379  30.371  53.150  0.00  0.00     0.002 A 
ATOM     14  C   UNL d   1      53.464  29.559  53.238  0.00  0.00     0.024 A 
ATOM     15  C   UNL d   1      53.278  29.201  53.962  0.00  0.00     0.094 A 
ATOM     16  C   UNL d   1      53.010  29.656  54.591  0.00  0.00     0.024 A 
ATOM     17  C   UNL d   1      52.926  30.473  54.500  0.00  0.00     0.002 A 
BRANCH  15  18
ATOM     18  O   UNL d   1      53.363  28.384  54.053  0.00  0.00    -0.328 OA
ATOM     19  C   UNL d   1      53.662  28.071  54.763  0.00  0.00     0.181 C 
ENDBRANCH  15  18
ENDBRANCH   3  12
BRANCH   5  20
ATOM     20  O   UNL d   1      54.598  33.192  54.807  0.00  0.00    -0.273 OA
BRANCH  20  21
ATOM     21  C   UNL d   1      55.164  33.700  55.123  0.00  0.00     0.300 C 
ATOM     22  O   UNL d   1      55.070  34.002  55.884  0.00  0.00    -0.259 OA
ATOM     23  C   UNL d   1      55.824  33.906  54.675  0.00  0.00     0.074 C 
ENDBRANCH  20  21
ENDBRANCH   5  20
BRANCH  10  24
ATOM     24  O   UNL d   1      53.198  35.415  53.706  0.00  0.00    -0.273 OA
BRANCH  24  25
ATOM     25  C   UNL d   1      52.740  35.839  54.244  0.00  0.00     0.300 C 
ATOM     26  O   UNL d   1      51.923  35.738  54.260  0.00  0.00    -0.259 OA
ATOM     27  C   UNL d   1      53.093  36.370  54.771  0.00  0.00     0.074 C 
ENDBRANCH  24  25
ENDBRANCH  10  24
TORSDOF 6
ENDMDL
