MODEL 1
REMARK VINA RESULT:      18.2      0.000      0.000
REMARK  4 active torsions:
REMARK  status: ('A' for Active; 'I' for Inactive)
REMARK    1  A    between atoms: C_2  and  N_1 
REMARK       I    between atoms: C_3  and  N_1 
REMARK    2  A    between atoms: N_4  and  C_2 
REMARK    3  A    between atoms: C_7  and  C_3 
REMARK    4  A    between atoms: C_8  and  N_4 
ROOT
ATOM      1  C   UNL d   1      14.704  12.459  -0.641  0.00  0.00     0.179 C 
ATOM      2  S   UNL d   1      15.141  11.794  -0.409  0.00  0.00    -0.040 SA
ENDROOT
BRANCH   1   3
ATOM      3  N   UNL d   1      14.507  12.573  -1.434  0.00  0.00    -0.299 N 
ATOM      4  C   UNL d   1      13.824  12.234  -1.722  0.00  0.00     0.259 C 
ATOM      5  O   UNL d   1      13.334  11.784  -1.229  0.00  0.00    -0.267 OA
ATOM      6  H   UNL d   1      14.990  13.016  -1.919  0.00  0.00     0.171 HD
BRANCH   4   7
ATOM      7  C   UNL d   1      13.619  12.346  -2.524  0.00  0.00     0.056 A 
ATOM      8  C   UNL d   1      13.173  11.784  -2.913  0.00  0.00     0.005 A 
ATOM      9  C   UNL d   1      12.968  11.889  -3.705  0.00  0.00     0.000 A 
ATOM     10  C   UNL d   1      13.219  12.569  -4.100  0.00  0.00     0.000 A 
ATOM     11  C   UNL d   1      13.665  13.131  -3.711  0.00  0.00     0.000 A 
ATOM     12  C   UNL d   1      13.870  13.026  -2.919  0.00  0.00     0.005 A 
ENDBRANCH   4   7
ENDBRANCH   1   3
BRANCH   1  13
ATOM     13  N   UNL d   1      14.462  13.015  -0.081  0.00  0.00    -0.332 N 
ATOM     14  H   UNL d   1      13.873  12.832   0.453  0.00  0.00     0.168 HD
BRANCH  13  15
ATOM     15  C   UNL d   1      14.822  13.751  -0.069  0.00  0.00     0.058 A 
ATOM     16  C   UNL d   1      14.367  14.442  -0.100  0.00  0.00     0.018 A 
ATOM     17  C   UNL d   1      14.746  15.171  -0.087  0.00  0.00     0.013 A 
ATOM     18  C   UNL d   1      15.559  15.230  -0.045  0.00  0.00     0.058 A 
ATOM     19  C   UNL d   1      16.014  14.539  -0.014  0.00  0.00     0.013 A 
ATOM     20 CL   UNL d   1      15.934  15.955  -0.032  0.00  0.00    -0.082 Cl
ATOM     21  C   UNL d   1      15.650  13.799  -0.026  0.00  0.00     0.018 A 
ENDBRANCH  13  15
ENDBRANCH   1  13
TORSDOF 4
ENDMDL
MODEL 2
REMARK VINA RESULT:      19.8      1.816      4.152
REMARK  4 active torsions:
REMARK  status: ('A' for Active; 'I' for Inactive)
REMARK    1  A    between atoms: C_2  and  N_1 
REMARK       I    between atoms: C_3  and  N_1 
REMARK    2  A    between atoms: N_4  and  C_2 
REMARK    3  A    between atoms: C_7  and  C_3 
REMARK    4  A    between atoms: C_8  and  N_4 
ROOT
ATOM      1  C   UNL d   1      14.099  12.474  -1.827  0.00  0.00     0.179 C 
ATOM      2  S   UNL d   1      14.536  11.781  -1.709  0.00  0.00    -0.040 SA
ENDROOT
BRANCH   1   3
ATOM      3  N   UNL d   1      14.377  13.197  -1.543  0.00  0.00    -0.299 N 
ATOM      4  C   UNL d   1      14.858  13.201  -0.885  0.00  0.00     0.259 C 
ATOM      5  O   UNL d   1      15.065  12.494  -0.506  0.00  0.00    -0.267 OA
ATOM      6  H   UNL d   1      14.173  13.893  -1.916  0.00  0.00     0.171 HD
BRANCH   4   7
ATOM      7  C   UNL d   1      15.143  13.930  -0.592  0.00  0.00     0.056 A 
ATOM      8  C   UNL d   1      15.906  13.983  -0.306  0.00  0.00     0.005 A 
ATOM      9  C   UNL d   1      16.193  14.701  -0.016  0.00  0.00     0.000 A 
ATOM     10  C   UNL d   1      15.700  15.363  -0.018  0.00  0.00     0.000 A 
ATOM     11  C   UNL d   1      14.938  15.309  -0.304  0.00  0.00     0.000 A 
ATOM     12  C   UNL d   1      14.651  14.592  -0.594  0.00  0.00     0.005 A 
ENDBRANCH   4   7
ENDBRANCH   1   3
BRANCH   1  13
ATOM     13  N   UNL d   1      13.380  12.450  -2.231  0.00  0.00    -0.332 N 
ATOM     14  H   UNL d   1      12.675  12.447  -1.820  0.00  0.00     0.168 HD
BRANCH  13  15
ATOM     15  C   UNL d   1      13.384  12.428  -3.051  0.00  0.00     0.058 A 
ATOM     16  C   UNL d   1      13.710  11.782  -3.454  0.00  0.00     0.018 A 
ATOM     17  C   UNL d   1      13.704  11.780  -4.275  0.00  0.00     0.013 A 
ATOM     18  C   UNL d   1      13.385  12.397  -4.703  0.00  0.00     0.058 A 
ATOM     19  C   UNL d   1      13.059  13.043  -4.301  0.00  0.00     0.013 A 
ATOM     20 CL   UNL d   1      13.381  12.392  -5.519  0.00  0.00    -0.082 Cl
ATOM     21  C   UNL d   1      13.056  13.062  -3.476  0.00  0.00     0.018 A 
ENDBRANCH  13  15
ENDBRANCH   1  13
TORSDOF 4
ENDMDL
