MODEL 1
REMARK VINA RESULT:      43.1      0.000      0.000
REMARK  7 active torsions:
REMARK  status: ('A' for Active; 'I' for Inactive)
REMARK    1  A    between atoms: S_9  and  C_2 
REMARK    2  A    between atoms: C_6  and  C_8 
REMARK       I    between atoms: N_7  and  C_6 
REMARK    3  A    between atoms: C_11  and  N_7 
REMARK    4  A    between atoms: C_8  and  C_12 
REMARK    5  A    between atoms: C_12  and  S_9 
REMARK    6  A    between atoms: O_18  and  C_13 
REMARK    7  A    between atoms: C_20  and  O_18 
ROOT
ATOM      1  C   UNL d   1      60.935  49.191  51.417  0.00  0.00     0.280 C 
ATOM      2  N   UNL d   1      60.313  49.693  51.620  0.00  0.00    -0.208 NA
ATOM      3  O   UNL d   1      61.636  49.201  51.859  0.00  0.00    -0.265 OA
ENDROOT
BRANCH   1   4
ATOM      4  C   UNL d   1      60.861  48.678  50.773  0.00  0.00     0.070 C 
BRANCH   4   5
ATOM      5  C   UNL d   1      61.162  47.911  50.818  0.00  0.00     0.042 C 
BRANCH   5   6
ATOM      6  S   UNL d   1      61.627  47.606  50.195  0.00  0.00    -0.059 SA
BRANCH   6   7
ATOM      7  C   UNL d   1      61.611  46.799  50.024  0.00  0.00     0.164 A 
ATOM      8  S   UNL d   1      61.202  46.168  50.363  0.00  0.00    -0.039 SA
ATOM      9  C   UNL d   1      61.405  45.483  49.961  0.00  0.00     0.134 A 
ATOM     10  N   UNL d   1      61.944  45.677  49.364  0.00  0.00    -0.140 NA
ATOM     11  C   UNL d   1      61.116  44.717  50.126  0.00  0.00     0.030 C 
ATOM     12  N   UNL d   1      62.070  46.500  49.407  0.00  0.00    -0.134 NA
ENDBRANCH   6   7
ENDBRANCH   5   6
ENDBRANCH   4   5
ENDBRANCH   1   4
BRANCH   2  13
ATOM     13  C   UNL d   1      59.603  49.685  51.176  0.00  0.00     0.085 A 
ATOM     14  C   UNL d   1      58.876  49.699  51.568  0.00  0.00     0.021 A 
ATOM     15  C   UNL d   1      58.174  49.692  51.137  0.00  0.00     0.026 A 
ATOM     16  C   UNL d   1      58.199  49.671  50.311  0.00  0.00     0.100 A 
ATOM     17  C   UNL d   1      58.926  49.657  49.920  0.00  0.00     0.026 A 
ATOM     18  C   UNL d   1      59.630  49.664  50.353  0.00  0.00     0.021 A 
BRANCH  16  19
ATOM     19  O   UNL d   1      57.480  49.664  49.874  0.00  0.00    -0.305 OA
BRANCH  19  20
ATOM     20  C   UNL d   1      56.753  49.674  50.270  0.00  0.00     0.123 C 
ATOM     21  C   UNL d   1      56.068  49.443  49.873  0.00  0.00     0.029 C 
ENDBRANCH  19  20
ENDBRANCH  16  19
ENDBRANCH   2  13
TORSDOF 7
ENDMDL
