MODEL 1
REMARK VINA RESULT:      -6.6      0.000      0.000
REMARK  7 active torsions:
REMARK  status: ('A' for Active; 'I' for Inactive)
REMARK    1  A    between atoms: C_7  and  C_1 
REMARK    2  A    between atoms: C_9  and  N_2 
REMARK    3  A    between atoms: C_6  and  C_3 
REMARK    4  A    between atoms: C_8  and  C_7 
REMARK    5  A    between atoms: C_20  and  C_9 
REMARK    6  A    between atoms: O_24  and  C_10 
REMARK    7  A    between atoms: O_26  and  C_22 
ROOT
ATOM      1  C   UNL d   1      52.833  32.597  52.996  0.00  0.00     0.101 A 
ATOM      2  N   UNL d   1      53.439  31.512  53.473  0.00  0.00    -0.270 N 
ATOM      3  C   UNL d   1      53.407  32.326  53.517  0.00  0.00     0.075 A 
ATOM      4  C   UNL d   1      52.500  31.934  52.619  0.00  0.00     0.256 A 
ATOM      5  C   UNL d   1      52.875  31.263  52.914  0.00  0.00     0.304 A 
ATOM      6  O   UNL d   1      52.718  30.483  52.693  0.00  0.00    -0.263 OA
ATOM      7  O   UNL d   1      51.902  31.943  52.050  0.00  0.00    -0.281 OA
ENDROOT
BRANCH   3   8
ATOM      8  C   UNL d   1      53.871  32.815  54.003  0.00  0.00     0.041 A 
ATOM      9  C   UNL d   1      54.645  32.981  53.780  0.00  0.00     0.096 A 
ATOM     10  C   UNL d   1      55.119  33.468  54.257  0.00  0.00     0.026 A 
ATOM     11  C   UNL d   1      54.803  33.784  54.958  0.00  0.00     0.026 A 
ATOM     12  C   UNL d   1      54.023  33.614  55.179  0.00  0.00     0.094 A 
ATOM     13  C   UNL d   1      53.560  33.130  54.700  0.00  0.00     0.028 A 
BRANCH   9  14
ATOM     14  O   UNL d   1      54.958  32.669  53.088  0.00  0.00    -0.328 OA
ATOM     15  C   UNL d   1      55.729  32.845  52.857  0.00  0.00     0.181 C 
ENDBRANCH   9  14
BRANCH  12  16
ATOM     16  O   UNL d   1      53.710  33.929  55.878  0.00  0.00    -0.328 OA
ATOM     17  C   UNL d   1      53.546  34.743  55.922  0.00  0.00     0.181 C 
ENDBRANCH  12  16
ENDBRANCH   3   8
BRANCH   2  18
ATOM     18  C   UNL d   1      53.943  31.012  53.907  0.00  0.00     0.085 C 
BRANCH  18  19
ATOM     19  C   UNL d   1      53.650  30.305  54.220  0.00  0.00     0.037 A 
ATOM     20  C   UNL d   1      53.757  29.595  53.796  0.00  0.00     0.100 A 
ATOM     21  N   UNL d   1      53.467  28.893  54.106  0.00  0.00    -0.242 NA
ATOM     22  C   UNL d   1      53.072  28.885  54.829  0.00  0.00     0.099 A 
ATOM     23  C   UNL d   1      52.968  29.589  55.245  0.00  0.00     0.021 A 
ATOM     24  C   UNL d   1      53.259  30.300  54.938  0.00  0.00     0.005 A 
ENDBRANCH  18  19
ENDBRANCH   2  18
BRANCH   1  25
ATOM     25  C   UNL d   1      52.616  33.387  52.862  0.00  0.00     0.223 C 
ATOM     26  O   UNL d   1      53.166  33.915  52.556  0.00  0.00    -0.284 OA
BRANCH  25  27
ATOM     27  C   UNL d   1      51.858  33.634  53.036  0.00  0.00     0.139 A 
ATOM     28  O   UNL d   1      51.263  33.361  53.537  0.00  0.00    -0.302 OA
ATOM     29  C   UNL d   1      50.613  33.861  53.461  0.00  0.00     0.123 A 
ATOM     30  C   UNL d   1      50.804  34.440  52.918  0.00  0.00     0.029 A 
ATOM     31  C   UNL d   1      51.571  34.301  52.654  0.00  0.00     0.030 A 
ENDBRANCH  25  27
ENDBRANCH   1  25
TORSDOF 7
ENDMDL
MODEL 2
REMARK VINA RESULT:      -5.6      1.043      3.316
REMARK  7 active torsions:
REMARK  status: ('A' for Active; 'I' for Inactive)
REMARK    1  A    between atoms: C_7  and  C_1 
REMARK    2  A    between atoms: C_9  and  N_2 
REMARK    3  A    between atoms: C_6  and  C_3 
REMARK    4  A    between atoms: C_8  and  C_7 
REMARK    5  A    between atoms: C_20  and  C_9 
REMARK    6  A    between atoms: O_24  and  C_10 
REMARK    7  A    between atoms: O_26  and  C_22 
ROOT
ATOM      1  C   UNL d   1      53.376  31.462  53.270  0.00  0.00     0.101 A 
ATOM      2  N   UNL d   1      52.839  32.650  53.001  0.00  0.00    -0.270 N 
ATOM      3  C   UNL d   1      53.425  32.269  53.420  0.00  0.00     0.075 A 
ATOM      4  C   UNL d   1      52.743  31.342  52.744  0.00  0.00     0.256 A 
ATOM      5  C   UNL d   1      52.411  32.077  52.578  0.00  0.00     0.304 A 
ATOM      6  O   UNL d   1      51.767  32.216  52.079  0.00  0.00    -0.263 OA
ATOM      7  O   UNL d   1      52.489  30.617  52.441  0.00  0.00    -0.281 OA
ENDROOT
BRANCH   3   8
ATOM      8  C   UNL d   1      53.987  32.622  53.921  0.00  0.00     0.041 A 
ATOM      9  C   UNL d   1      54.683  32.915  53.595  0.00  0.00     0.096 A 
ATOM     10  C   UNL d   1      55.253  33.269  54.085  0.00  0.00     0.026 A 
ATOM     11  C   UNL d   1      55.111  33.324  54.903  0.00  0.00     0.026 A 
ATOM     12  C   UNL d   1      54.408  33.027  55.225  0.00  0.00     0.094 A 
ATOM     13  C   UNL d   1      53.849  32.677  54.733  0.00  0.00     0.028 A 
BRANCH   9  14
ATOM     14  O   UNL d   1      54.824  32.861  52.789  0.00  0.00    -0.328 OA
ATOM     15  C   UNL d   1      55.514  33.170  52.459  0.00  0.00     0.181 C 
ENDBRANCH   9  14
BRANCH  12  16
ATOM     16  O   UNL d   1      54.268  33.082  56.040  0.00  0.00    -0.328 OA
ATOM     17  C   UNL d   1      54.641  33.680  56.480  0.00  0.00     0.181 C 
ENDBRANCH  12  16
ENDBRANCH   3   8
BRANCH   2  18
ATOM     18  C   UNL d   1      52.690  33.469  52.993  0.00  0.00     0.085 C 
BRANCH  18  19
ATOM     19  C   UNL d   1      51.909  33.744  52.980  0.00  0.00     0.037 A 
ATOM     20  C   UNL d   1      51.425  33.630  53.648  0.00  0.00     0.100 A 
ATOM     21  N   UNL d   1      50.651  33.902  53.635  0.00  0.00    -0.242 NA
ATOM     22  C   UNL d   1      50.351  34.286  52.970  0.00  0.00     0.099 A 
ATOM     23  C   UNL d   1      50.834  34.397  52.311  0.00  0.00     0.021 A 
ATOM     24  C   UNL d   1      51.616  34.125  52.318  0.00  0.00     0.005 A 
ENDBRANCH  18  19
ENDBRANCH   2  18
BRANCH   1  25
ATOM     25  C   UNL d   1      53.864  30.868  53.582  0.00  0.00     0.223 C 
ATOM     26  O   UNL d   1      54.663  30.856  53.394  0.00  0.00    -0.284 OA
BRANCH  25  27
ATOM     27  C   UNL d   1      53.546  30.300  54.073  0.00  0.00     0.139 A 
ATOM     28  O   UNL d   1      52.972  30.303  54.664  0.00  0.00    -0.302 OA
ATOM     29  C   UNL d   1      52.900  29.538  54.959  0.00  0.00     0.123 A 
ATOM     30  C   UNL d   1      53.426  29.063  54.553  0.00  0.00     0.029 A 
ATOM     31  C   UNL d   1      53.825  29.531  54.007  0.00  0.00     0.030 A 
ENDBRANCH  25  27
ENDBRANCH   1  25
TORSDOF 7
ENDMDL
MODEL 3
REMARK VINA RESULT:      -4.4      1.473      3.975
REMARK  7 active torsions:
REMARK  status: ('A' for Active; 'I' for Inactive)
REMARK    1  A    between atoms: C_7  and  C_1 
REMARK    2  A    between atoms: C_9  and  N_2 
REMARK    3  A    between atoms: C_6  and  C_3 
REMARK    4  A    between atoms: C_8  and  C_7 
REMARK    5  A    between atoms: C_20  and  C_9 
REMARK    6  A    between atoms: O_24  and  C_10 
REMARK    7  A    between atoms: O_26  and  C_22 
ROOT
ATOM      1  C   UNL d   1      53.422  33.609  54.592  0.00  0.00     0.101 A 
ATOM      2  N   UNL d   1      52.710  33.729  53.473  0.00  0.00    -0.270 N 
ATOM      3  C   UNL d   1      53.187  33.226  53.903  0.00  0.00     0.075 A 
ATOM      4  C   UNL d   1      53.082  34.368  54.587  0.00  0.00     0.256 A 
ATOM      5  C   UNL d   1      52.642  34.442  53.895  0.00  0.00     0.304 A 
ATOM      6  O   UNL d   1      52.210  35.108  53.664  0.00  0.00    -0.263 OA
ATOM      7  O   UNL d   1      53.168  34.947  55.170  0.00  0.00    -0.281 OA
ENDROOT
BRANCH   3   8
ATOM      8  C   UNL d   1      53.408  32.452  53.695  0.00  0.00     0.041 A 
ATOM      9  C   UNL d   1      54.041  32.343  53.182  0.00  0.00     0.096 A 
ATOM     10  C   UNL d   1      54.272  31.575  52.966  0.00  0.00     0.026 A 
ATOM     11  C   UNL d   1      53.858  30.923  53.274  0.00  0.00     0.026 A 
ATOM     12  C   UNL d   1      53.221  31.039  53.790  0.00  0.00     0.094 A 
ATOM     13  C   UNL d   1      52.998  31.803  53.999  0.00  0.00     0.028 A 
BRANCH   9  14
ATOM     14  O   UNL d   1      54.450  32.986  52.877  0.00  0.00    -0.328 OA
ATOM     15  C   UNL d   1      55.141  32.879  52.441  0.00  0.00     0.181 C 
ENDBRANCH   9  14
BRANCH  12  16
ATOM     16  O   UNL d   1      52.809  30.388  54.096  0.00  0.00    -0.328 OA
ATOM     17  C   UNL d   1      53.036  29.620  53.876  0.00  0.00     0.181 C 
ENDBRANCH  12  16
ENDBRANCH   3   8
BRANCH   2  18
ATOM     18  C   UNL d   1      52.352  33.564  52.740  0.00  0.00     0.085 C 
BRANCH  18  19
ATOM     19  C   UNL d   1      51.556  33.755  52.620  0.00  0.00     0.037 A 
ATOM     20  C   UNL d   1      50.977  33.434  53.126  0.00  0.00     0.100 A 
ATOM     21  N   UNL d   1      50.188  33.624  53.007  0.00  0.00    -0.242 NA
ATOM     22  C   UNL d   1      49.965  34.127  52.393  0.00  0.00     0.099 A 
ATOM     23  C   UNL d   1      50.540  34.443  51.895  0.00  0.00     0.021 A 
ATOM     24  C   UNL d   1      51.338  34.255  52.009  0.00  0.00     0.005 A 
ENDBRANCH  18  19
ENDBRANCH   2  18
BRANCH   1  25
ATOM     25  C   UNL d   1      53.909  33.302  55.189  0.00  0.00     0.223 C 
ATOM     26  O   UNL d   1      53.672  32.638  55.609  0.00  0.00    -0.284 OA
BRANCH  25  27
ATOM     27  C   UNL d   1      54.623  33.663  55.354  0.00  0.00     0.139 A 
ATOM     28  O   UNL d   1      55.087  34.225  54.971  0.00  0.00    -0.302 OA
ATOM     29  C   UNL d   1      55.758  34.363  55.429  0.00  0.00     0.123 A 
ATOM     30  C   UNL d   1      55.709  33.888  56.092  0.00  0.00     0.029 A 
ATOM     31  C   UNL d   1      55.009  33.456  56.047  0.00  0.00     0.030 A 
ENDBRANCH  25  27
ENDBRANCH   1  25
TORSDOF 7
ENDMDL
MODEL 4
REMARK VINA RESULT:      -3.6      1.350      3.049
REMARK  7 active torsions:
REMARK  status: ('A' for Active; 'I' for Inactive)
REMARK    1  A    between atoms: C_7  and  C_1 
REMARK    2  A    between atoms: C_9  and  N_2 
REMARK    3  A    between atoms: C_6  and  C_3 
REMARK    4  A    between atoms: C_8  and  C_7 
REMARK    5  A    between atoms: C_20  and  C_9 
REMARK    6  A    between atoms: O_24  and  C_10 
REMARK    7  A    between atoms: O_26  and  C_22 
ROOT
ATOM      1  C   UNL d   1      52.834  33.717  54.265  0.00  0.00     0.101 A 
ATOM      2  N   UNL d   1      52.965  32.655  53.474  0.00  0.00    -0.270 N 
ATOM      3  C   UNL d   1      52.558  33.352  53.581  0.00  0.00     0.075 A 
ATOM      4  C   UNL d   1      53.427  33.231  54.588  0.00  0.00     0.256 A 
ATOM      5  C   UNL d   1      53.509  32.575  54.099  0.00  0.00     0.304 A 
ATOM      6  O   UNL d   1      54.037  31.949  54.210  0.00  0.00    -0.263 OA
ATOM      7  O   UNL d   1      53.859  33.379  55.276  0.00  0.00    -0.281 OA
ENDROOT
BRANCH   3   8
ATOM      8  C   UNL d   1      51.960  33.659  53.092  0.00  0.00     0.041 A 
ATOM      9  C   UNL d   1      52.171  34.017  52.382  0.00  0.00     0.096 A 
ATOM     10  C   UNL d   1      51.582  34.328  51.884  0.00  0.00     0.026 A 
ATOM     11  C   UNL d   1      50.785  34.272  52.111  0.00  0.00     0.026 A 
ATOM     12  C   UNL d   1      50.578  33.910  52.827  0.00  0.00     0.094 A 
ATOM     13  C   UNL d   1      51.167  33.605  53.315  0.00  0.00     0.028 A 
BRANCH   9  14
ATOM     14  O   UNL d   1      52.958  34.073  52.158  0.00  0.00    -0.328 OA
ATOM     15  C   UNL d   1      53.179  34.518  51.500  0.00  0.00     0.181 C 
ENDBRANCH   9  14
BRANCH  12  16
ATOM     16  O   UNL d   1      49.783  33.856  53.052  0.00  0.00    -0.328 OA
ATOM     17  C   UNL d   1      49.251  34.453  52.825  0.00  0.00     0.181 C 
ENDBRANCH  12  16
ENDBRANCH   3   8
BRANCH   2  18
ATOM     18  C   UNL d   1      52.862  32.113  52.850  0.00  0.00     0.085 C 
BRANCH  18  19
ATOM     19  C   UNL d   1      52.810  31.303  53.014  0.00  0.00     0.037 A 
ATOM     20  C   UNL d   1      52.091  30.988  53.294  0.00  0.00     0.100 A 
ATOM     21  N   UNL d   1      52.040  30.185  53.457  0.00  0.00    -0.242 NA
ATOM     22  C   UNL d   1      52.691  29.691  53.346  0.00  0.00     0.099 A 
ATOM     23  C   UNL d   1      53.400  30.008  53.070  0.00  0.00     0.021 A 
ATOM     24  C   UNL d   1      53.459  30.817  52.904  0.00  0.00     0.005 A 
ENDBRANCH  18  19
ENDBRANCH   2  18
BRANCH   1  25
ATOM     25  C   UNL d   1      52.573  34.438  54.583  0.00  0.00     0.223 C 
ATOM     26  O   UNL d   1      51.807  34.504  54.871  0.00  0.00    -0.284 OA
BRANCH  25  27
ATOM     27  C   UNL d   1      53.081  35.076  54.607  0.00  0.00     0.139 A 
ATOM     28  O   UNL d   1      53.881  35.184  54.442  0.00  0.00    -0.302 OA
ATOM     29  C   UNL d   1      54.069  35.974  54.577  0.00  0.00     0.123 A 
ATOM     30  C   UNL d   1      53.389  36.354  54.823  0.00  0.00     0.029 A 
ATOM     31  C   UNL d   1      52.779  35.802  54.842  0.00  0.00     0.030 A 
ENDBRANCH  25  27
ENDBRANCH   1  25
TORSDOF 7
ENDMDL
