MODEL 1
REMARK VINA RESULT:      11.1      0.000      0.000
REMARK  4 active torsions:
REMARK  status: ('A' for Active; 'I' for Inactive)
REMARK    1  A    between atoms: C_2  and  N_1 
REMARK    2  A    between atoms: N_7  and  C_3 
REMARK    3  A    between atoms: C_12  and  N_7 
REMARK    4  A    between atoms: C_13  and  C_12 
ROOT
ATOM      1  C   UNL d   1      46.250 -18.742  43.477  0.00  0.00     0.200 A 
ATOM      2  C   UNL d   1      46.217 -18.286  44.174  0.00  0.00     0.189 A 
ATOM      3  C   UNL d   1      46.465 -19.526  43.527  0.00  0.00     0.210 A 
ATOM      4  N   UNL d   1      46.399 -18.627  44.903  0.00  0.00    -0.203 NA
ATOM      5  N   UNL d   1      46.647 -19.875  44.235  0.00  0.00    -0.202 NA
ATOM      6  C   UNL d   1      46.613 -19.419  44.933  0.00  0.00     0.202 A 
ATOM      7  N   UNL d   1      46.498 -19.981  42.829  0.00  0.00    -0.125 N 
ENDROOT
BRANCH   2   8
ATOM      8  N   UNL d   1      46.004 -17.498  44.147  0.00  0.00    -0.224 NA
BRANCH   8   9
ATOM      9  C   UNL d   1      45.854 -17.083  44.834  0.00  0.00     0.101 C 
BRANCH   9  10
ATOM     10  C   UNL d   1      45.720 -16.267  44.807  0.00  0.00     0.019 A 
ATOM     11  C   UNL d   1      44.948 -15.970  44.895  0.00  0.00     0.002 A 
ATOM     12  C   UNL d   1      44.817 -15.156  44.867  0.00  0.00     0.000 A 
ATOM     13  C   UNL d   1      45.435 -14.647  44.755  0.00  0.00     0.000 A 
ATOM     14  C   UNL d   1      46.202 -14.937  44.666  0.00  0.00     0.000 A 
ATOM     15  C   UNL d   1      45.307 -13.836  44.727  0.00  0.00     0.000 C 
ATOM     16  C   UNL d   1      46.338 -15.758  44.694  0.00  0.00     0.002 A 
ENDBRANCH   9  10
ENDBRANCH   8   9
ENDBRANCH   2   8
BRANCH   1  17
ATOM     17  N   UNL d   1      46.070 -18.409  42.752  0.00  0.00    -0.107 N 
ATOM     18  O   UNL d   1      46.647 -18.001  42.350  0.00  0.00    -0.531 OA
ATOM     19  O   UNL d   1      45.317 -18.488  42.438  0.00  0.00    -0.531 OA
ENDBRANCH   1  17
TORSDOF 4
ENDMDL
