MODEL 1
REMARK VINA RESULT:       5.7      0.000      0.000
REMARK  1 active torsions:
REMARK  status: ('A' for Active; 'I' for Inactive)
REMARK    1  A    between atoms: C_12  and  N_1 
ROOT
ATOM      1  N   UNL d   1     -41.773-122.736 -49.925  0.00  0.00    -0.244 N 
ATOM      2  C   UNL d   1     -41.664-121.957 -50.090  0.00  0.00     0.251 A 
ATOM      3  C   UNL d   1     -41.727-123.094 -50.674  0.00  0.00     0.260 A 
ATOM      4  C   UNL d   1     -41.600-122.548 -51.241  0.00  0.00     0.033 A 
ATOM      5  C   UNL d   1     -41.560-121.836 -50.879  0.00  0.00     0.125 A 
ATOM      6  C   UNL d   1     -41.237-121.430 -53.282  0.00  0.00     0.068 A 
ATOM      7  C   UNL d   1     -41.468-121.868 -51.704  0.00  0.00    -0.010 A 
ATOM      8  C   UNL d   1     -41.468-122.441 -52.278  0.00  0.00    -0.007 A 
ATOM      9  C   UNL d   1     -41.352-122.219 -53.065  0.00  0.00    -0.015 A 
ATOM     10  C   UNL d   1     -41.243-120.873 -52.674  0.00  0.00    -0.015 A 
ATOM     11  C   UNL d   1     -41.358-121.089 -51.890  0.00  0.00    -0.007 A 
ATOM     12  O   UNL d   1     -41.670-121.516 -49.601  0.00  0.00    -0.271 OA
ATOM     13  O   UNL d   1     -41.804-123.785 -50.700  0.00  0.00    -0.267 OA
ATOM     14  C   UNL d   1     -41.360-120.517 -51.300  0.00  0.00    -0.001 A 
ATOM     15  C   UNL d   1     -41.581-123.225 -52.080  0.00  0.00    -0.001 A 
ATOM     16  C   UNL d   1     -41.349-122.801 -53.669  0.00  0.00    -0.004 A 
ATOM     17  C   UNL d   1     -41.130-120.084 -52.870  0.00  0.00    -0.004 A 
ATOM     18  C   UNL d   1     -41.245-119.722 -51.510  0.00  0.00    -0.000 A 
ATOM     19  C   UNL d   1     -41.578-123.813 -52.692  0.00  0.00    -0.000 A 
ATOM     20  C   UNL d   1     -41.461-123.590 -53.482  0.00  0.00    -0.000 A 
ATOM     21  C   UNL d   1     -41.133-119.515 -52.279  0.00  0.00    -0.000 A 
ENDROOT
BRANCH   1  22
ATOM     22  C   UNL d   1     -41.902-123.091 -49.150  0.00  0.00     0.089 A 
ATOM     23  C   UNL d   1     -42.709-123.185 -48.852  0.00  0.00     0.117 A 
ATOM     24  N   UNL d   1     -42.847-123.544 -48.068  0.00  0.00    -0.241 NA
ATOM     25  C   UNL d   1     -42.168-123.812 -47.579  0.00  0.00     0.099 A 
ATOM     26  C   UNL d   1     -41.364-123.715 -47.884  0.00  0.00     0.022 A 
ATOM     27  C   UNL d   1     -41.231-123.353 -48.673  0.00  0.00     0.021 A 
ENDBRANCH   1  22
TORSDOF 1
ENDMDL
MODEL 2
REMARK VINA RESULT:       6.8      1.723      4.332
REMARK  1 active torsions:
REMARK  status: ('A' for Active; 'I' for Inactive)
REMARK    1  A    between atoms: C_12  and  N_1 
ROOT
ATOM      1  N   UNL d   1     -41.571-122.525 -53.340  0.00  0.00    -0.244 N 
ATOM      2  C   UNL d   1     -41.577-123.015 -52.703  0.00  0.00     0.251 A 
ATOM      3  C   UNL d   1     -41.471-121.774 -52.997  0.00  0.00     0.260 A 
ATOM      4  C   UNL d   1     -41.422-121.830 -52.203  0.00  0.00     0.033 A 
ATOM      5  C   UNL d   1     -41.488-122.604 -52.016  0.00  0.00     0.125 A 
ATOM      6  C   UNL d   1     -41.218-121.383 -49.899  0.00  0.00     0.068 A 
ATOM      7  C   UNL d   1     -41.390-122.054 -51.401  0.00  0.00    -0.010 A 
ATOM      8  C   UNL d   1     -41.303-121.250 -51.334  0.00  0.00    -0.007 A 
ATOM      9  C   UNL d   1     -41.218-120.918 -50.583  0.00  0.00    -0.015 A 
ATOM     10  C   UNL d   1     -41.309-122.196 -50.003  0.00  0.00    -0.015 A 
ATOM     11  C   UNL d   1     -41.394-122.531 -50.748  0.00  0.00    -0.007 A 
ATOM     12  O   UNL d   1     -41.650-123.663 -52.790  0.00  0.00    -0.271 OA
ATOM     13  O   UNL d   1     -41.445-121.229 -53.429  0.00  0.00    -0.267 OA
ATOM     14  C   UNL d   1     -41.483-123.344 -50.828  0.00  0.00    -0.001 A 
ATOM     15  C   UNL d   1     -41.300-120.777 -52.000  0.00  0.00    -0.001 A 
ATOM     16  C   UNL d   1     -41.127-120.088 -50.498  0.00  0.00    -0.004 A 
ATOM     17  C   UNL d   1     -41.312-122.674 -49.336  0.00  0.00    -0.004 A 
ATOM     18  C   UNL d   1     -41.484-123.817 -50.146  0.00  0.00    -0.000 A 
ATOM     19  C   UNL d   1     -41.209-119.938 -51.913  0.00  0.00    -0.000 A 
ATOM     20  C   UNL d   1     -41.123-119.606 -51.159  0.00  0.00    -0.000 A 
ATOM     21  C   UNL d   1     -41.401-123.485 -49.419  0.00  0.00    -0.000 A 
ENDROOT
BRANCH   1  22
ATOM     22  C   UNL d   1     -41.650-122.747 -54.169  0.00  0.00     0.089 A 
ATOM     23  C   UNL d   1     -41.124-123.346 -54.504  0.00  0.00     0.117 A 
ATOM     24  N   UNL d   1     -41.199-123.575 -55.343  0.00  0.00    -0.241 NA
ATOM     25  C   UNL d   1     -41.810-123.199 -55.850  0.00  0.00     0.099 A 
ATOM     26  C   UNL d   1     -42.334-122.601 -55.508  0.00  0.00     0.022 A 
ATOM     27  C   UNL d   1     -42.253-122.374 -54.663  0.00  0.00     0.021 A 
ENDBRANCH   1  22
TORSDOF 1
ENDMDL
