MODEL 1
REMARK VINA RESULT:      38.7      0.000      0.000
REMARK  5 active torsions:
REMARK  status: ('A' for Active; 'I' for Inactive)
REMARK    1  A    between atoms: O_8  and  C_2 
REMARK    2  A    between atoms: C_9  and  C_5 
REMARK    3  A    between atoms: C_14  and  O_8 
REMARK    4  A    between atoms: N_11  and  C_9 
REMARK    5  A    between atoms: O_21  and  C_18 
ROOT
ATOM      1  C   UNL d   1      46.489 -18.558  42.791  0.00  0.00     0.108 A 
ATOM      2  C   UNL d   1      46.409 -17.597  44.148  0.00  0.00     0.161 A 
ATOM      3  C   UNL d   1      46.370 -18.903  43.542  0.00  0.00     0.064 A 
ATOM      4  C   UNL d   1      46.331 -18.427  44.209  0.00  0.00     0.222 A 
ATOM      5  C   UNL d   1      46.528 -19.038  42.112  0.00  0.00     0.079 A 
ATOM      6  O   UNL d   1      46.568 -17.734  42.712  0.00  0.00    -0.305 OA
ATOM      7  C   UNL d   1      46.529 -17.249  43.392  0.00  0.00     0.126 A 
ATOM      8  C   UNL d   1      46.293 -19.729  43.596  0.00  0.00     0.009 A 
ATOM      9  C   UNL d   1      46.451 -19.857  42.179  0.00  0.00     0.199 A 
ATOM     10  O   UNL d   1      46.214 -18.764  44.954  0.00  0.00    -0.284 OA
ATOM     11  C   UNL d   1      46.333 -20.202  42.921  0.00  0.00     0.042 A 
ATOM     12  O   UNL d   1      46.491 -20.329  41.504  0.00  0.00    -0.286 OA
ATOM     13  C   UNL d   1      46.606 -16.430  43.326  0.00  0.00     0.029 C 
ENDROOT
BRANCH   2  14
ATOM     14  O   UNL d   1      46.370 -17.122  44.819  0.00  0.00    -0.302 OA
BRANCH  14  15
ATOM     15  C   UNL d   1      45.921 -16.429  44.810  0.00  0.00     0.102 A 
ATOM     16  C   UNL d   1      46.296 -15.696  44.866  0.00  0.00     0.049 A 
ATOM     17  C   UNL d   1      45.846 -15.004  44.858  0.00  0.00     0.096 A 
ATOM     18  C   UNL d   1      45.024 -15.045  44.793  0.00  0.00     0.024 A 
ATOM     19  C   UNL d   1      44.649 -15.791  44.736  0.00  0.00     0.004 A 
ATOM     20  C   UNL d   1      45.102 -16.474  44.745  0.00  0.00     0.025 A 
BRANCH  17  21
ATOM     21  O   UNL d   1      46.221 -14.271  44.914  0.00  0.00    -0.328 OA
ATOM     22  C   UNL d   1      45.788 -13.579  44.798  0.00  0.00     0.181 C 
ENDBRANCH  17  21
ENDBRANCH  14  15
ENDBRANCH   2  14
BRANCH   5  23
ATOM     23  C   UNL d   1      46.645 -18.696  41.378  0.00  0.00     0.086 C 
BRANCH  23  24
ATOM     24  N   UNL d   1      45.997 -18.409  40.948  0.00  0.00    -0.299 N 
ATOM     25  C   UNL d   1      45.229 -18.581  41.203  0.00  0.00     0.107 A 
ATOM     26  C   UNL d   1      44.583 -18.297  40.777  0.00  0.00     0.142 A 
ATOM     27  O   UNL d   1      44.704 -17.841  40.095  0.00  0.00    -0.300 OA
ATOM     28  C   UNL d   1      45.473 -17.672  39.844  0.00  0.00     0.142 A 
ATOM     29  C   UNL d   1      46.124 -17.957  40.272  0.00  0.00     0.107 A 
ENDBRANCH  23  24
ENDBRANCH   5  23
TORSDOF 5
ENDMDL
