MODEL 1
REMARK VINA RESULT:      11.9      0.000      0.000
REMARK  5 active torsions:
REMARK  status: ('A' for Active; 'I' for Inactive)
REMARK    1  A    between atoms: N_5  and  C_1 
REMARK    2  A    between atoms: C_8  and  C_2 
REMARK       I    between atoms: C_7  and  N_5 
REMARK    3  A    between atoms: C_10  and  C_7 
REMARK    4  A    between atoms: O_12  and  C_8 
REMARK    5  A    between atoms: C_16  and  O_12 
ROOT
ATOM      1  C   UNL d   1      45.854 -15.953  44.452  0.00  0.00     0.114 A 
ATOM      2  C   UNL d   1      45.740 -14.629  44.426  0.00  0.00     0.094 A 
ATOM      3  S   UNL d   1      46.234 -15.247  44.269  0.00  0.00    -0.062 SA
ATOM      4  C   UNL d   1      45.030 -14.976  44.717  0.00  0.00     0.013 A 
ATOM      5  C   UNL d   1      45.110 -15.754  44.728  0.00  0.00     0.027 A 
ATOM      6  C   UNL d   1      44.352 -14.564  44.955  0.00  0.00     0.001 C 
ENDROOT
BRANCH   1   7
ATOM      7  N   UNL d   1      46.166 -16.749  44.375  0.00  0.00    -0.201 NA
ATOM      8  C   UNL d   1      45.749 -17.306  43.942  0.00  0.00     0.280 C 
ATOM      9  O   UNL d   1      45.039 -17.114  43.583  0.00  0.00    -0.265 OA
BRANCH   8  10
ATOM     10  C   UNL d   1      46.046 -18.063  43.868  0.00  0.00     0.058 A 
ATOM     11  C   UNL d   1      46.239 -18.375  43.136  0.00  0.00     0.005 A 
ATOM     12  C   UNL d   1      46.540 -19.138  43.048  0.00  0.00     0.000 A 
ATOM     13  C   UNL d   1      46.647 -19.594  43.731  0.00  0.00     0.000 A 
ATOM     14  C   UNL d   1      46.458 -19.295  44.475  0.00  0.00     0.000 A 
ATOM     15  C   UNL d   1      46.157 -18.531  44.550  0.00  0.00     0.005 A 
ENDBRANCH   8  10
ENDBRANCH   1   7
BRANCH   2  16
ATOM     16  C   UNL d   1      45.894 -13.816  44.323  0.00  0.00     0.306 C 
ATOM     17  O   UNL d   1      46.237 -13.407  44.941  0.00  0.00    -0.258 OA
BRANCH  16  18
ATOM     18  O   UNL d   1      45.711 -13.428  43.627  0.00  0.00    -0.271 OA
BRANCH  18  19
ATOM     19  C   UNL d   1      45.784 -12.610  43.573  0.00  0.00     0.126 C 
ATOM     20  C   UNL d   1      45.236 -12.190  43.117  0.00  0.00     0.029 C 
ENDBRANCH  18  19
ENDBRANCH  16  18
ENDBRANCH   2  16
TORSDOF 5
ENDMDL
