MODEL 1
REMARK VINA RESULT:       7.7      0.000      0.000
REMARK  2 active torsions:
REMARK  status: ('A' for Active; 'I' for Inactive)
REMARK    1  A    between atoms: N_6  and  C_4 
REMARK    2  A    between atoms: C_9  and  N_6 
ROOT
ATOM      1  S   UNL d   1      22.711  13.172  -0.835  0.00  0.00     0.216 S 
ATOM      2  C   UNL d   1      23.159  12.841  -1.447  0.00  0.00     0.121 A 
ATOM      3  C   UNL d   1      23.232  13.458  -0.284  0.00  0.00     0.142 A 
ATOM      4  C   UNL d   1      23.961  12.924  -1.272  0.00  0.00     0.132 A 
ATOM      5  C   UNL d   1      24.000  13.307  -0.548  0.00  0.00     0.225 A 
ATOM      6  O   UNL d   1      22.186  12.873  -1.411  0.00  0.00    -0.217 OA
ATOM      7  O   UNL d   1      22.103  13.435  -0.355  0.00  0.00    -0.217 OA
ATOM      8  O   UNL d   1      24.696  13.522  -0.127  0.00  0.00    -0.284 OA
ENDROOT
BRANCH   4   9
ATOM      9  N   UNL d   1      24.642  12.714  -1.650  0.00  0.00    -0.242 NA
BRANCH   9  10
ATOM     10  C   UNL d   1      24.671  12.617  -2.462  0.00  0.00     0.082 A 
ATOM     11  C   UNL d   1      24.635  11.874  -2.773  0.00  0.00     0.020 A 
ATOM     12  C   UNL d   1      24.666  11.779  -3.611  0.00  0.00     0.013 A 
ATOM     13  C   UNL d   1      24.731  12.435  -4.092  0.00  0.00     0.058 A 
ATOM     14  C   UNL d   1      24.767  13.192  -3.786  0.00  0.00     0.013 A 
ATOM     15 CL   UNL d   1      24.760  12.328  -4.927  0.00  0.00    -0.082 Cl
ATOM     16  C   UNL d   1      24.737  13.280  -2.960  0.00  0.00     0.020 A 
ENDBRANCH   9  10
ENDBRANCH   4   9
TORSDOF 2
ENDMDL
