MODEL 1
REMARK VINA RESULT:      61.6      0.000      0.000
REMARK  4 active torsions:
REMARK  status: ('A' for Active; 'I' for Inactive)
REMARK    1  A    between atoms: N_5  and  C_1 
REMARK    2  A    between atoms: C_8  and  C_2 
REMARK       I    between atoms: C_7  and  N_5 
REMARK    3  A    between atoms: C_10  and  C_7 
REMARK    4  A    between atoms: N_9  and  C_8 
ROOT
ATOM      1  C   UNL d   1     -58.510 -98.978 -44.459  0.00  0.00     0.115 A 
ATOM      2  C   UNL d   1     -57.740 -98.883 -44.187  0.00  0.00     0.042 A 
ATOM      3  S   UNL d   1     -59.016 -99.002 -43.792  0.00  0.00    -0.068 SA
ATOM      4  C   UNL d   1     -57.764 -98.848 -43.357  0.00  0.00     0.009 A 
ATOM      5  C   UNL d   1     -58.557 -98.922 -43.130  0.00  0.00     0.031 A 
ATOM      6  C   UNL d   1     -57.121 -98.755 -42.844  0.00  0.00     0.001 C 
ATOM      7  C   UNL d   1     -58.844 -98.918 -42.352  0.00  0.00     0.007 C 
ENDROOT
BRANCH   1   8
ATOM      8  N   UNL d   1     -58.659 -99.031 -45.269  0.00  0.00    -0.201 NA
ATOM      9  C   UNL d   1     -59.362 -99.364 -45.539  0.00  0.00     0.280 C 
ATOM     10  O   UNL d   1     -59.916 -99.645 -44.998  0.00  0.00    -0.265 OA
BRANCH   9  11
ATOM     11  C   UNL d   1     -59.511 -99.417 -46.348  0.00  0.00     0.058 A 
ATOM     12  C   UNL d   1     -59.753-100.131 -46.677  0.00  0.00     0.007 A 
ATOM     13  C   UNL d   1     -59.904-100.185 -47.495  0.00  0.00     0.030 A 
ATOM     14  C   UNL d   1     -59.810 -99.524 -47.976  0.00  0.00     0.140 A 
ATOM     15  C   UNL d   1     -59.567 -98.809 -47.647  0.00  0.00     0.030 A 
ATOM     16  F   UNL d   1     -59.959 -99.577 -48.785  0.00  0.00    -0.204 F 
ATOM     17  C   UNL d   1     -59.417 -98.755 -46.829  0.00  0.00     0.007 A 
ENDBRANCH   9  11
ENDBRANCH   1   8
BRANCH   2  18
ATOM     18  C   UNL d   1     -57.054 -98.831 -44.660  0.00  0.00     0.082 C 
BRANCH  18  19
ATOM     19  N   UNL d   1     -56.419 -99.340 -44.524  0.00  0.00    -0.302 N 
ATOM     20  C   UNL d   1     -56.598-100.117 -44.739  0.00  0.00     0.080 A 
ATOM     21  C   UNL d   1     -56.124-100.783 -44.693  0.00  0.00     0.019 A 
ATOM     22  C   UNL d   1     -55.347-100.846 -44.419  0.00  0.00     0.002 A 
ATOM     23  C   UNL d   1     -54.853-100.256 -44.124  0.00  0.00     0.002 A 
ATOM     24  C   UNL d   1     -55.020 -99.450 -44.031  0.00  0.00     0.019 A 
ATOM     25  C   UNL d   1     -55.712 -99.044 -44.207  0.00  0.00     0.080 A 
ENDBRANCH  18  19
ENDBRANCH   2  18
TORSDOF 4
ENDMDL
