MODEL 1
REMARK VINA RESULT:      -5.9      0.000      0.000
REMARK  4 active torsions:
REMARK  status: ('A' for Active; 'I' for Inactive)
REMARK    1  A    between atoms: C_7  and  C_3 
REMARK    2  A    between atoms: S_6  and  C_4 
REMARK    3  A    between atoms: C_9  and  S_6 
REMARK    4  A    between atoms: C_10  and  C_9 
ROOT
ATOM      1  O   UNL d   1     -41.694-122.901 -52.279  0.00  0.00    -0.263 OA
ATOM      2  N   UNL d   1     -41.144-121.684 -52.493  0.00  0.00    -0.120 NA
ATOM      3  C   UNL d   1     -41.504-122.345 -52.867  0.00  0.00     0.205 A 
ATOM      4  C   UNL d   1     -41.457-122.592 -51.544  0.00  0.00     0.236 A 
ATOM      5  N   UNL d   1     -41.123-121.851 -51.683  0.00  0.00    -0.114 NA
ENDROOT
BRANCH   4   6
ATOM      6  S   UNL d   1     -41.541-122.961 -50.815  0.00  0.00    -0.041 SA
BRANCH   6   7
ATOM      7  C   UNL d   1     -41.981-122.599 -50.202  0.00  0.00     0.039 C 
BRANCH   7   8
ATOM      8  C   UNL d   1     -42.098-122.983 -49.503  0.00  0.00     0.007 A 
ATOM      9  C   UNL d   1     -41.455-123.199 -49.030  0.00  0.00     0.001 A 
ATOM     10  C   UNL d   1     -41.560-123.592 -48.312  0.00  0.00     0.000 A 
ATOM     11  C   UNL d   1     -42.327-123.774 -48.061  0.00  0.00     0.000 A 
ATOM     12  C   UNL d   1     -42.982-123.553 -48.543  0.00  0.00     0.000 A 
ATOM     13  C   UNL d   1     -42.865-123.166 -49.249  0.00  0.00     0.001 A 
ENDBRANCH   7   8
ENDBRANCH   6   7
ENDBRANCH   4   6
BRANCH   3  14
ATOM     14  C   UNL d   1     -41.623-122.382 -53.677  0.00  0.00     0.046 A 
ATOM     15  C   UNL d   1     -41.189-122.926 -54.129  0.00  0.00     0.024 A 
ATOM     16  C   UNL d   1     -41.305-122.966 -54.941  0.00  0.00     0.099 A 
ATOM     17  N   UNL d   1     -41.859-122.460 -55.309  0.00  0.00    -0.242 NA
ATOM     18  C   UNL d   1     -42.266-121.942 -54.849  0.00  0.00     0.099 A 
ATOM     19  C   UNL d   1     -42.159-121.892 -54.033  0.00  0.00     0.024 A 
ENDBRANCH   3  14
TORSDOF 4
ENDMDL
MODEL 2
REMARK VINA RESULT:      -5.5      1.155      4.863
REMARK  4 active torsions:
REMARK  status: ('A' for Active; 'I' for Inactive)
REMARK    1  A    between atoms: C_7  and  C_3 
REMARK    2  A    between atoms: S_6  and  C_4 
REMARK    3  A    between atoms: C_9  and  S_6 
REMARK    4  A    between atoms: C_10  and  C_9 
ROOT
ATOM      1  O   UNL d   1     -41.867-122.946 -51.418  0.00  0.00    -0.263 OA
ATOM      2  N   UNL d   1     -41.288-121.958 -50.700  0.00  0.00    -0.120 NA
ATOM      3  C   UNL d   1     -41.754-122.656 -50.648  0.00  0.00     0.205 A 
ATOM      4  C   UNL d   1     -41.477-122.437 -51.948  0.00  0.00     0.236 A 
ATOM      5  N   UNL d   1     -41.126-121.838 -51.502  0.00  0.00    -0.114 NA
ENDROOT
BRANCH   4   6
ATOM      6  S   UNL d   1     -41.447-122.519 -52.764  0.00  0.00    -0.041 SA
BRANCH   6   7
ATOM      7  C   UNL d   1     -41.727-121.910 -53.265  0.00  0.00     0.039 C 
BRANCH   7   8
ATOM      8  C   UNL d   1     -41.833-122.045 -54.052  0.00  0.00     0.007 A 
ATOM      9  C   UNL d   1     -42.507-121.762 -54.440  0.00  0.00     0.001 A 
ATOM     10  C   UNL d   1     -42.627-121.893 -55.245  0.00  0.00     0.000 A 
ATOM     11  C   UNL d   1     -42.062-122.318 -55.674  0.00  0.00     0.000 A 
ATOM     12  C   UNL d   1     -41.376-122.607 -55.278  0.00  0.00     0.000 A 
ATOM     13  C   UNL d   1     -41.268-122.471 -54.483  0.00  0.00     0.001 A 
ENDBRANCH   7   8
ENDBRANCH   6   7
ENDBRANCH   4   6
BRANCH   3  14
ATOM     14  C   UNL d   1     -42.024-122.953 -49.934  0.00  0.00     0.046 A 
ATOM     15  C   UNL d   1     -41.531-123.445 -49.484  0.00  0.00     0.024 A 
ATOM     16  C   UNL d   1     -41.798-123.745 -48.768  0.00  0.00     0.099 A 
ATOM     17  N   UNL d   1     -42.565-123.554 -48.495  0.00  0.00    -0.242 NA
ATOM     18  C   UNL d   1     -43.023-123.076 -48.950  0.00  0.00     0.099 A 
ATOM     19  C   UNL d   1     -42.767-122.768 -49.670  0.00  0.00     0.024 A 
ENDBRANCH   3  14
TORSDOF 4
ENDMDL
