MODEL 1
REMARK VINA RESULT:      -9.2      0.000      0.000
REMARK  3 active torsions:
REMARK  status: ('A' for Active; 'I' for Inactive)
REMARK    1  A    between atoms: C_7  and  N_1 
REMARK    2  A    between atoms: C_6  and  C_2 
REMARK    3  A    between atoms: O_19  and  C_9 
ROOT
ATOM      1  N   UNL d   1      52.798  32.247  53.324  0.00  0.00    -0.259 N 
ATOM      2  C   UNL d   1      53.462  32.047  53.779  0.00  0.00     0.137 A 
ATOM      3  C   UNL d   1      52.526  31.586  52.942  0.00  0.00     0.282 A 
ATOM      4  N   UNL d   1      53.597  31.231  53.666  0.00  0.00    -0.287 N 
ATOM      5  C   UNL d   1      53.011  30.943  53.143  0.00  0.00     0.122 A 
ATOM      6  O   UNL d   1      51.873  31.538  52.430  0.00  0.00    -0.265 OA
ATOM      7  C   UNL d   1      54.083  30.596  53.870  0.00  0.00     0.082 A 
ATOM      8  C   UNL d   1      53.153  30.136  53.038  0.00  0.00     0.024 A 
ATOM      9  C   UNL d   1      53.809  29.918  53.481  0.00  0.00     0.021 A 
ENDROOT
BRANCH   2  10
ATOM     10  C   UNL d   1      53.913  32.547  54.256  0.00  0.00     0.056 A 
ATOM     11  C   UNL d   1      54.611  32.862  53.980  0.00  0.00     0.097 A 
ATOM     12  C   UNL d   1      55.065  33.360  54.450  0.00  0.00     0.024 A 
ATOM     13  C   UNL d   1      54.804  33.540  55.213  0.00  0.00     0.002 A 
ATOM     14  C   UNL d   1      54.106  33.225  55.490  0.00  0.00     0.000 A 
ATOM     15  C   UNL d   1      53.648  32.721  55.012  0.00  0.00     0.005 A 
BRANCH  11  16
ATOM     16  O   UNL d   1      54.867  32.677  53.211  0.00  0.00    -0.328 OA
ATOM     17  C   UNL d   1      55.606  32.970  52.931  0.00  0.00     0.181 C 
ENDBRANCH  11  16
ENDBRANCH   2  10
BRANCH   1  18
ATOM     18  C   UNL d   1      52.473  33.002  53.276  0.00  0.00     0.068 A 
ATOM     19  C   UNL d   1      51.932  33.249  53.841  0.00  0.00     0.018 A 
ATOM     20  C   UNL d   1      51.603  34.004  53.798  0.00  0.00     0.013 A 
ATOM     21  C   UNL d   1      51.821  34.512  53.181  0.00  0.00     0.058 A 
ATOM     22  C   UNL d   1      52.364  34.265  52.612  0.00  0.00     0.013 A 
ATOM     23 CL   UNL d   1      51.491  35.267  53.139  0.00  0.00    -0.082 Cl
ATOM     24  C   UNL d   1      52.691  33.510  52.658  0.00  0.00     0.018 A 
ENDBRANCH   1  18
TORSDOF 3
ENDMDL
MODEL 2
REMARK VINA RESULT:      -8.5      1.579      3.093
REMARK  3 active torsions:
REMARK  status: ('A' for Active; 'I' for Inactive)
REMARK    1  A    between atoms: C_7  and  N_1 
REMARK    2  A    between atoms: C_6  and  C_2 
REMARK    3  A    between atoms: O_19  and  C_9 
ROOT
ATOM      1  N   UNL d   1      52.565  32.397  53.306  0.00  0.00    -0.259 N 
ATOM      2  C   UNL d   1      53.024  33.084  53.387  0.00  0.00     0.137 A 
ATOM      3  C   UNL d   1      51.820  32.600  53.061  0.00  0.00     0.282 A 
ATOM      4  N   UNL d   1      52.534  33.729  53.182  0.00  0.00    -0.287 N 
ATOM      5  C   UNL d   1      51.782  33.426  52.978  0.00  0.00     0.122 A 
ATOM      6  O   UNL d   1      51.186  32.086  52.911  0.00  0.00    -0.265 OA
ATOM      7  C   UNL d   1      52.504  34.550  53.102  0.00  0.00     0.082 A 
ATOM      8  C   UNL d   1      51.306  34.071  52.777  0.00  0.00     0.024 A 
ATOM      9  C   UNL d   1      51.743  34.761  52.851  0.00  0.00     0.021 A 
ENDROOT
BRANCH   2  10
ATOM     10  C   UNL d   1      53.813  33.136  53.624  0.00  0.00     0.056 A 
ATOM     11  C   UNL d   1      54.002  33.383  54.377  0.00  0.00     0.097 A 
ATOM     12  C   UNL d   1      54.786  33.437  54.619  0.00  0.00     0.024 A 
ATOM     13  C   UNL d   1      55.385  33.237  54.086  0.00  0.00     0.002 A 
ATOM     14  C   UNL d   1      55.196  32.990  53.333  0.00  0.00     0.000 A 
ATOM     15  C   UNL d   1      54.402  32.936  53.091  0.00  0.00     0.005 A 
BRANCH  11  16
ATOM     16  O   UNL d   1      53.394  33.582  54.907  0.00  0.00    -0.328 OA
ATOM     17  C   UNL d   1      53.581  33.935  55.648  0.00  0.00     0.181 C 
ENDBRANCH  11  16
ENDBRANCH   2  10
BRANCH   1  18
ATOM     18  C   UNL d   1      52.835  31.634  53.454  0.00  0.00     0.068 A 
ATOM     19  C   UNL d   1      53.149  31.188  52.842  0.00  0.00     0.018 A 
ATOM     20  C   UNL d   1      53.421  30.422  52.983  0.00  0.00     0.013 A 
ATOM     21  C   UNL d   1      53.374  30.105  53.748  0.00  0.00     0.058 A 
ATOM     22  C   UNL d   1      53.058  30.552  54.364  0.00  0.00     0.013 A 
ATOM     23 CL   UNL d   1      53.646  29.339  53.888  0.00  0.00    -0.082 Cl
ATOM     24  C   UNL d   1      52.788  31.317  54.219  0.00  0.00     0.018 A 
ENDBRANCH   1  18
TORSDOF 3
ENDMDL
MODEL 3
REMARK VINA RESULT:      -8.0      1.266      2.554
REMARK  3 active torsions:
REMARK  status: ('A' for Active; 'I' for Inactive)
REMARK    1  A    between atoms: C_7  and  N_1 
REMARK    2  A    between atoms: C_6  and  C_2 
REMARK    3  A    between atoms: O_19  and  C_9 
ROOT
ATOM      1  N   UNL d   1      52.965  33.928  54.082  0.00  0.00    -0.259 N 
ATOM      2  C   UNL d   1      53.389  33.232  54.235  0.00  0.00     0.137 A 
ATOM      3  C   UNL d   1      53.203  34.507  54.596  0.00  0.00     0.282 A 
ATOM      4  N   UNL d   1      53.906  33.398  54.870  0.00  0.00    -0.287 N 
ATOM      5  C   UNL d   1      53.790  34.195  55.095  0.00  0.00     0.122 A 
ATOM      6  O   UNL d   1      52.922  35.287  54.636  0.00  0.00    -0.265 OA
ATOM      7  C   UNL d   1      54.488  33.082  55.362  0.00  0.00     0.082 A 
ATOM      8  C   UNL d   1      54.305  34.349  55.722  0.00  0.00     0.024 A 
ATOM      9  C   UNL d   1      54.735  33.671  55.890  0.00  0.00     0.021 A 
ENDROOT
BRANCH   2  10
ATOM     10  C   UNL d   1      53.325  32.508  53.845  0.00  0.00     0.056 A 
ATOM     11  C   UNL d   1      53.899  32.270  53.319  0.00  0.00     0.097 A 
ATOM     12  C   UNL d   1      53.840  31.550  52.928  0.00  0.00     0.024 A 
ATOM     13  C   UNL d   1      53.187  31.064  53.075  0.00  0.00     0.002 A 
ATOM     14  C   UNL d   1      52.613  31.302  53.601  0.00  0.00     0.000 A 
ATOM     15  C   UNL d   1      52.675  32.032  53.996  0.00  0.00     0.005 A 
BRANCH  11  16
ATOM     16  O   UNL d   1      54.552  32.763  53.177  0.00  0.00    -0.328 OA
ATOM     17  C   UNL d   1      55.205  32.477  52.726  0.00  0.00     0.181 C 
ENDBRANCH  11  16
ENDBRANCH   2  10
BRANCH   1  18
ATOM     18  C   UNL d   1      52.392  34.008  53.495  0.00  0.00     0.068 A 
ATOM     19  C   UNL d   1      51.620  33.778  53.648  0.00  0.00     0.018 A 
ATOM     20  C   UNL d   1      51.041  33.855  53.065  0.00  0.00     0.013 A 
ATOM     21  C   UNL d   1      51.244  34.167  52.324  0.00  0.00     0.058 A 
ATOM     22  C   UNL d   1      52.020  34.399  52.170  0.00  0.00     0.013 A 
ATOM     23 CL   UNL d   1      50.665  34.244  51.742  0.00  0.00    -0.082 Cl
ATOM     24  C   UNL d   1      52.595  34.320  52.755  0.00  0.00     0.018 A 
ENDBRANCH   1  18
TORSDOF 3
ENDMDL
MODEL 4
REMARK VINA RESULT:      -7.6      1.402      2.118
REMARK  3 active torsions:
REMARK  status: ('A' for Active; 'I' for Inactive)
REMARK    1  A    between atoms: C_7  and  N_1 
REMARK    2  A    between atoms: C_6  and  C_2 
REMARK    3  A    between atoms: O_19  and  C_9 
ROOT
ATOM      1  N   UNL d   1      52.388  33.078  53.071  0.00  0.00    -0.259 N 
ATOM      2  C   UNL d   1      53.067  33.432  53.390  0.00  0.00     0.137 A 
ATOM      3  C   UNL d   1      52.539  32.297  52.918  0.00  0.00     0.282 A 
ATOM      4  N   UNL d   1      53.654  32.839  53.431  0.00  0.00    -0.287 N 
ATOM      5  C   UNL d   1      53.323  32.130  53.136  0.00  0.00     0.122 A 
ATOM      6  O   UNL d   1      52.014  31.740  52.597  0.00  0.00    -0.265 OA
ATOM      7  C   UNL d   1      54.433  32.680  53.649  0.00  0.00     0.082 A 
ATOM      8  C   UNL d   1      53.910  31.550  53.180  0.00  0.00     0.024 A 
ATOM      9  C   UNL d   1      54.592  31.881  53.494  0.00  0.00     0.021 A 
ENDROOT
BRANCH   2  10
ATOM     10  C   UNL d   1      53.161  34.218  53.626  0.00  0.00     0.056 A 
ATOM     11  C   UNL d   1      53.175  34.412  54.417  0.00  0.00     0.097 A 
ATOM     12  C   UNL d   1      53.269  35.191  54.658  0.00  0.00     0.024 A 
ATOM     13  C   UNL d   1      53.348  35.783  54.086  0.00  0.00     0.002 A 
ATOM     14  C   UNL d   1      53.334  35.588  53.295  0.00  0.00     0.000 A 
ATOM     15  C   UNL d   1      53.239  34.798  53.053  0.00  0.00     0.005 A 
BRANCH  11  16
ATOM     16  O   UNL d   1      53.095  33.812  54.986  0.00  0.00    -0.328 OA
ATOM     17  C   UNL d   1      53.256  33.977  55.797  0.00  0.00     0.181 C 
ENDBRANCH  11  16
ENDBRANCH   2  10
BRANCH   1  18
ATOM     18  C   UNL d   1      51.676  33.469  52.935  0.00  0.00     0.068 A 
ATOM     19  C   UNL d   1      51.570  33.889  52.240  0.00  0.00     0.018 A 
ATOM     20  C   UNL d   1      50.859  34.283  52.097  0.00  0.00     0.013 A 
ATOM     21  C   UNL d   1      50.252  34.250  52.661  0.00  0.00     0.058 A 
ATOM     22  C   UNL d   1      50.357  33.828  53.361  0.00  0.00     0.013 A 
ATOM     23 CL   UNL d   1      49.541  34.644  52.517  0.00  0.00    -0.082 Cl
ATOM     24  C   UNL d   1      51.069  33.436  53.499  0.00  0.00     0.018 A 
ENDBRANCH   1  18
TORSDOF 3
ENDMDL
MODEL 5
REMARK VINA RESULT:      -7.3      1.282      2.852
REMARK  3 active torsions:
REMARK  status: ('A' for Active; 'I' for Inactive)
REMARK    1  A    between atoms: C_7  and  N_1 
REMARK    2  A    between atoms: C_6  and  C_2 
REMARK    3  A    between atoms: O_19  and  C_9 
ROOT
ATOM      1  N   UNL d   1      53.659  32.112  53.902  0.00  0.00    -0.259 N 
ATOM      2  C   UNL d   1      53.104  32.300  53.315  0.00  0.00     0.137 A 
ATOM      3  C   UNL d   1      53.714  31.307  53.972  0.00  0.00     0.282 A 
ATOM      4  N   UNL d   1      52.812  31.575  53.017  0.00  0.00    -0.287 N 
ATOM      5  C   UNL d   1      53.194  30.956  53.428  0.00  0.00     0.122 A 
ATOM      6  O   UNL d   1      54.203  30.883  54.493  0.00  0.00    -0.265 OA
ATOM      7  C   UNL d   1      52.294  31.233  52.474  0.00  0.00     0.082 A 
ATOM      8  C   UNL d   1      52.899  30.245  53.127  0.00  0.00     0.024 A 
ATOM      9  C   UNL d   1      52.348  30.409  52.542  0.00  0.00     0.021 A 
ENDROOT
BRANCH   2  10
ATOM     10  C   UNL d   1      52.874  33.051  53.061  0.00  0.00     0.056 A 
ATOM     11  C   UNL d   1      52.146  33.351  53.269  0.00  0.00     0.097 A 
ATOM     12  C   UNL d   1      51.911  34.098  53.020  0.00  0.00     0.024 A 
ATOM     13  C   UNL d   1      52.425  34.546  52.552  0.00  0.00     0.002 A 
ATOM     14  C   UNL d   1      53.152  34.245  52.345  0.00  0.00     0.000 A 
ATOM     15  C   UNL d   1      53.388  33.488  52.598  0.00  0.00     0.005 A 
BRANCH  11  16
ATOM     16  O   UNL d   1      51.635  32.895  53.740  0.00  0.00    -0.328 OA
ATOM     17  C   UNL d   1      50.845  33.154  53.876  0.00  0.00     0.181 C 
ENDBRANCH  11  16
ENDBRANCH   2  10
BRANCH   1  18
ATOM     18  C   UNL d   1      54.081  32.666  54.341  0.00  0.00     0.068 A 
ATOM     19  C   UNL d   1      54.775  32.980  54.038  0.00  0.00     0.018 A 
ATOM     20  C   UNL d   1      55.204  33.535  54.471  0.00  0.00     0.013 A 
ATOM     21  C   UNL d   1      54.929  33.774  55.216  0.00  0.00     0.058 A 
ATOM     22  C   UNL d   1      54.232  33.460  55.523  0.00  0.00     0.013 A 
ATOM     23 CL   UNL d   1      55.359  34.330  55.649  0.00  0.00    -0.082 Cl
ATOM     24  C   UNL d   1      53.806  32.905  55.086  0.00  0.00     0.018 A 
ENDBRANCH   1  18
TORSDOF 3
ENDMDL
MODEL 6
REMARK VINA RESULT:      -7.3      1.677      3.515
REMARK  3 active torsions:
REMARK  status: ('A' for Active; 'I' for Inactive)
REMARK    1  A    between atoms: C_7  and  N_1 
REMARK    2  A    between atoms: C_6  and  C_2 
REMARK    3  A    between atoms: O_19  and  C_9 
ROOT
ATOM      1  N   UNL d   1      53.212  32.908  54.080  0.00  0.00    -0.259 N 
ATOM      2  C   UNL d   1      52.707  33.559  53.988  0.00  0.00     0.137 A 
ATOM      3  C   UNL d   1      53.809  33.102  54.593  0.00  0.00     0.282 A 
ATOM      4  N   UNL d   1      53.012  34.173  54.467  0.00  0.00    -0.287 N 
ATOM      5  C   UNL d   1      53.701  33.886  54.844  0.00  0.00     0.122 A 
ATOM      6  O   UNL d   1      54.434  32.614  54.840  0.00  0.00    -0.265 OA
ATOM      7  C   UNL d   1      52.898  34.952  54.712  0.00  0.00     0.082 A 
ATOM      8  C   UNL d   1      53.994  34.499  55.314  0.00  0.00     0.024 A 
ATOM      9  C   UNL d   1      53.507  35.154  55.237  0.00  0.00     0.021 A 
ENDROOT
BRANCH   2  10
ATOM     10  C   UNL d   1      52.029  33.608  53.519  0.00  0.00     0.056 A 
ATOM     11  C   UNL d   1      52.052  33.987  52.800  0.00  0.00     0.097 A 
ATOM     12  C   UNL d   1      51.382  34.039  52.328  0.00  0.00     0.024 A 
ATOM     13  C   UNL d   1      50.677  33.699  52.594  0.00  0.00     0.002 A 
ATOM     14  C   UNL d   1      50.654  33.319  53.313  0.00  0.00     0.000 A 
ATOM     15  C   UNL d   1      51.335  33.268  53.789  0.00  0.00     0.005 A 
BRANCH  11  16
ATOM     16  O   UNL d   1      52.765  34.327  52.540  0.00  0.00    -0.328 OA
ATOM     17  C   UNL d   1      52.791  34.739  51.805  0.00  0.00     0.181 C 
ENDBRANCH  11  16
ENDBRANCH   2  10
BRANCH   1  18
ATOM     18  C   UNL d   1      53.114  32.182  53.705  0.00  0.00     0.068 A 
ATOM     19  C   UNL d   1      52.617  31.619  54.033  0.00  0.00     0.018 A 
ATOM     20  C   UNL d   1      52.514  30.889  53.662  0.00  0.00     0.013 A 
ATOM     21  C   UNL d   1      52.916  30.729  52.955  0.00  0.00     0.058 A 
ATOM     22  C   UNL d   1      53.417  31.294  52.623  0.00  0.00     0.013 A 
ATOM     23 CL   UNL d   1      52.813  29.998  52.585  0.00  0.00    -0.082 Cl
ATOM     24  C   UNL d   1      53.517  32.021  52.997  0.00  0.00     0.018 A 
ENDBRANCH   1  18
TORSDOF 3
ENDMDL
