MODEL 1
REMARK VINA RESULT:      10.5      0.000      0.000
REMARK  3 active torsions:
REMARK  status: ('A' for Active; 'I' for Inactive)
REMARK    1  A    between atoms: C_6  and  C_3 
REMARK    2  A    between atoms: C_9  and  C_6 
REMARK    3  A    between atoms: O_15  and  C_10 
ROOT
ATOM      1  C   UNL d   1      13.723  12.181  -2.643  0.00  0.00     0.001 A 
ATOM      2  C   UNL d   1      13.099  12.905  -3.997  0.00  0.00     0.094 A 
ATOM      3  C   UNL d   1      13.149  11.786  -3.084  0.00  0.00     0.002 A 
ATOM      4  C   UNL d   1      13.987  12.929  -2.870  0.00  0.00     0.002 A 
ATOM      5  C   UNL d   1      12.835  12.157  -3.770  0.00  0.00     0.024 A 
ATOM      6  C   UNL d   1      13.690  13.288  -3.524  0.00  0.00     0.024 A 
ENDROOT
BRANCH   1   7
ATOM      7  C   UNL d   1      14.003  11.779  -1.978  0.00  0.00     0.011 C 
BRANCH   7   8
ATOM      8  C   UNL d   1      14.246  12.157  -1.271  0.00  0.00     0.092 A 
ATOM      9  C   UNL d   1      13.880  12.171  -0.562  0.00  0.00     0.288 A 
ATOM     10  N   UNL d   1      14.320  12.601  -0.052  0.00  0.00    -0.163 NA
ATOM     11  O   UNL d   1      13.130  11.779  -0.394  0.00  0.00    -0.265 OA
ATOM     12  C   UNL d   1      14.990  12.857  -0.490  0.00  0.00     0.313 A 
ATOM     13  S   UNL d   1      14.908  12.563  -1.234  0.00  0.00    -0.021 SA
ATOM     14  O   UNL d   1      15.617  13.332  -0.182  0.00  0.00    -0.258 OA
ENDBRANCH   7   8
ENDBRANCH   1   7
BRANCH   2  15
ATOM     15  O   UNL d   1      12.783  13.259  -4.673  0.00  0.00    -0.328 OA
ATOM     16  C   UNL d   1      12.968  14.026  -4.851  0.00  0.00     0.181 C 
ENDBRANCH   2  15
TORSDOF 3
ENDMDL
