MODEL 1
REMARK VINA RESULT:      -8.9      0.000      0.000
REMARK  1 active torsions:
REMARK  status: ('A' for Active; 'I' for Inactive)
REMARK    1  A    between atoms: C_6  and  C_3 
ROOT
ATOM      1  C   UNL d   1      54.015  32.477  54.074  0.00  0.00     0.018 A 
ATOM      2  C   UNL d   1      54.619  32.866  53.708  0.00  0.00     0.005 A 
ATOM      3  C   UNL d   1      53.852  32.599  54.878  0.00  0.00     0.005 A 
ATOM      4  C   UNL d   1      54.930  33.521  54.935  0.00  0.00     0.196 A 
ATOM      5  C   UNL d   1      55.093  33.399  54.130  0.00  0.00     0.042 A 
ATOM      6  C   UNL d   1      54.326  33.131  55.296  0.00  0.00     0.042 A 
ATOM      7  O   UNL d   1      55.402  34.051  55.350  0.00  0.00    -0.287 OA
ENDROOT
BRANCH   1   8
ATOM      8  C   UNL d   1      53.543  31.947  53.659  0.00  0.00     0.090 A 
ATOM      9  N   UNL d   1      53.640  31.141  53.731  0.00  0.00    -0.219 NA
ATOM     10  C   UNL d   1      53.093  30.761  53.254  0.00  0.00     0.215 A 
ATOM     11  S   UNL d   1      52.657  31.309  52.887  0.00  0.00    -0.045 SA
ATOM     12  N   UNL d   1      52.980  29.943  53.143  0.00  0.00    -0.120 N 
ATOM     13  C   UNL d   1      52.922  32.062  53.128  0.00  0.00     0.058 A 
ENDBRANCH   1   8
TORSDOF 1
ENDMDL
MODEL 2
REMARK VINA RESULT:      -7.8      2.191      3.208
REMARK  1 active torsions:
REMARK  status: ('A' for Active; 'I' for Inactive)
REMARK    1  A    between atoms: C_6  and  C_3 
ROOT
ATOM      1  C   UNL d   1      53.494  32.073  53.822  0.00  0.00     0.018 A 
ATOM      2  C   UNL d   1      53.761  31.338  54.016  0.00  0.00     0.005 A 
ATOM      3  C   UNL d   1      52.950  32.184  53.206  0.00  0.00     0.005 A 
ATOM      4  C   UNL d   1      52.950  30.782  52.983  0.00  0.00     0.196 A 
ATOM      5  C   UNL d   1      53.495  30.672  53.601  0.00  0.00     0.042 A 
ATOM      6  C   UNL d   1      52.687  31.518  52.794  0.00  0.00     0.042 A 
ATOM      7  O   UNL d   1      52.689  30.118  52.574  0.00  0.00    -0.287 OA
ENDROOT
BRANCH   1   8
ATOM      8  C   UNL d   1      53.755  32.737  54.232  0.00  0.00     0.090 A 
ATOM      9  N   UNL d   1      54.529  32.809  54.480  0.00  0.00    -0.219 NA
ATOM     10  C   UNL d   1      54.619  33.524  54.869  0.00  0.00     0.215 A 
ATOM     11  S   UNL d   1      53.924  33.900  54.870  0.00  0.00    -0.045 SA
ATOM     12  N   UNL d   1      55.306  33.842  55.219  0.00  0.00    -0.120 N 
ATOM     13  C   UNL d   1      53.366  33.423  54.474  0.00  0.00     0.058 A 
ENDBRANCH   1   8
TORSDOF 1
ENDMDL
MODEL 3
REMARK VINA RESULT:      -7.7      1.830      1.887
REMARK  1 active torsions:
REMARK  status: ('A' for Active; 'I' for Inactive)
REMARK    1  A    between atoms: C_6  and  C_3 
ROOT
ATOM      1  C   UNL d   1      53.205  33.630  53.890  0.00  0.00     0.018 A 
ATOM      2  C   UNL d   1      52.904  34.160  53.363  0.00  0.00     0.005 A 
ATOM      3  C   UNL d   1      53.416  33.863  54.658  0.00  0.00     0.005 A 
ATOM      4  C   UNL d   1      53.009  35.186  54.347  0.00  0.00     0.196 A 
ATOM      5  C   UNL d   1      52.798  34.954  53.578  0.00  0.00     0.042 A 
ATOM      6  C   UNL d   1      53.309  34.654  54.870  0.00  0.00     0.042 A 
ATOM      7  O   UNL d   1      52.903  35.974  54.556  0.00  0.00    -0.287 OA
ENDROOT
BRANCH   1   8
ATOM      8  C   UNL d   1      53.311  32.843  53.681  0.00  0.00     0.090 A 
ATOM      9  N   UNL d   1      52.719  32.411  53.323  0.00  0.00    -0.219 NA
ATOM     10  C   UNL d   1      52.988  31.651  53.183  0.00  0.00     0.215 A 
ATOM     11  S   UNL d   1      53.732  31.595  53.444  0.00  0.00    -0.045 SA
ATOM     12  N   UNL d   1      52.583  31.013  52.830  0.00  0.00    -0.120 N 
ATOM     13  C   UNL d   1      53.955  32.333  53.761  0.00  0.00     0.058 A 
ENDBRANCH   1   8
TORSDOF 1
ENDMDL
MODEL 4
REMARK VINA RESULT:      -7.6      2.604      3.396
REMARK  1 active torsions:
REMARK  status: ('A' for Active; 'I' for Inactive)
REMARK    1  A    between atoms: C_6  and  C_3 
ROOT
ATOM      1  C   UNL d   1      52.401  33.546  53.425  0.00  0.00     0.018 A 
ATOM      2  C   UNL d   1      51.733  33.103  53.513  0.00  0.00     0.005 A 
ATOM      3  C   UNL d   1      52.380  34.280  53.039  0.00  0.00     0.005 A 
ATOM      4  C   UNL d   1      50.986  34.109  52.833  0.00  0.00     0.196 A 
ATOM      5  C   UNL d   1      51.007  33.374  53.219  0.00  0.00     0.042 A 
ATOM      6  C   UNL d   1      51.656  34.547  52.747  0.00  0.00     0.042 A 
ATOM      7  O   UNL d   1      50.264  34.374  52.543  0.00  0.00    -0.287 OA
ENDROOT
BRANCH   1   8
ATOM      8  C   UNL d   1      53.123  33.281  53.715  0.00  0.00     0.090 A 
ATOM      9  N   UNL d   1      53.375  33.467  54.468  0.00  0.00    -0.219 NA
ATOM     10  C   UNL d   1      54.109  33.127  54.597  0.00  0.00     0.215 A 
ATOM     11  S   UNL d   1      54.322  32.734  53.944  0.00  0.00    -0.045 SA
ATOM     12  N   UNL d   1      54.585  33.162  55.280  0.00  0.00    -0.120 N 
ATOM     13  C   UNL d   1      53.716  32.818  53.377  0.00  0.00     0.058 A 
ENDBRANCH   1   8
TORSDOF 1
ENDMDL
MODEL 5
REMARK VINA RESULT:      -7.4      2.339      3.140
REMARK  1 active torsions:
REMARK  status: ('A' for Active; 'I' for Inactive)
REMARK    1  A    between atoms: C_6  and  C_3 
ROOT
ATOM      1  C   UNL d   1      52.997  32.521  53.416  0.00  0.00     0.018 A 
ATOM      2  C   UNL d   1      53.637  32.270  53.837  0.00  0.00     0.005 A 
ATOM      3  C   UNL d   1      52.540  31.988  52.974  0.00  0.00     0.005 A 
ATOM      4  C   UNL d   1      53.396  30.937  53.395  0.00  0.00     0.196 A 
ATOM      5  C   UNL d   1      53.854  31.471  53.837  0.00  0.00     0.042 A 
ATOM      6  C   UNL d   1      52.758  31.191  52.976  0.00  0.00     0.042 A 
ATOM      7  O   UNL d   1      53.615  30.144  53.398  0.00  0.00    -0.287 OA
ENDROOT
BRANCH   1   8
ATOM      8  C   UNL d   1      52.779  33.313  53.413  0.00  0.00     0.090 A 
ATOM      9  N   UNL d   1      53.123  33.853  53.918  0.00  0.00    -0.219 NA
ATOM     10  C   UNL d   1      52.793  34.591  53.785  0.00  0.00     0.215 A 
ATOM     11  S   UNL d   1      52.253  34.526  53.212  0.00  0.00    -0.045 SA
ATOM     12  N   UNL d   1      52.966  35.313  54.165  0.00  0.00    -0.120 N 
ATOM     13  C   UNL d   1      52.228  33.731  52.963  0.00  0.00     0.058 A 
ENDBRANCH   1   8
TORSDOF 1
ENDMDL
MODEL 6
REMARK VINA RESULT:      -7.4      1.954      2.266
REMARK  1 active torsions:
REMARK  status: ('A' for Active; 'I' for Inactive)
REMARK    1  A    between atoms: C_6  and  C_3 
ROOT
ATOM      1  C   UNL d   1      53.319  33.616  54.072  0.00  0.00     0.018 A 
ATOM      2  C   UNL d   1      53.378  34.185  54.639  0.00  0.00     0.005 A 
ATOM      3  C   UNL d   1      53.935  33.076  53.941  0.00  0.00     0.005 A 
ATOM      4  C   UNL d   1      54.677  33.704  54.976  0.00  0.00     0.196 A 
ATOM      5  C   UNL d   1      54.059  34.244  55.107  0.00  0.00     0.042 A 
ATOM      6  C   UNL d   1      54.613  33.137  54.408  0.00  0.00     0.042 A 
ATOM      7  O   UNL d   1      55.351  33.766  55.442  0.00  0.00    -0.287 OA
ENDROOT
BRANCH   1   8
ATOM      8  C   UNL d   1      52.645  33.554  53.606  0.00  0.00     0.090 A 
ATOM      9  N   UNL d   1      52.451  34.125  53.056  0.00  0.00    -0.219 NA
ATOM     10  C   UNL d   1      51.755  33.911  52.681  0.00  0.00     0.215 A 
ATOM     11  S   UNL d   1      51.510  33.222  52.982  0.00  0.00    -0.045 SA
ATOM     12  N   UNL d   1      51.342  34.317  52.082  0.00  0.00    -0.120 N 
ATOM     13  C   UNL d   1      52.054  32.980  53.565  0.00  0.00     0.058 A 
ENDBRANCH   1   8
TORSDOF 1
ENDMDL
