MODEL 1
REMARK VINA RESULT:      76.1      0.000      0.000
REMARK  5 active torsions:
REMARK  status: ('A' for Active; 'I' for Inactive)
REMARK    1  A    between atoms: N_7  and  C_1 
REMARK    2  A    between atoms: C_4  and  C_3 
REMARK       I    between atoms: C_8  and  N_7 
REMARK    3  A    between atoms: C_15  and  C_8 
REMARK    4  A    between atoms: O_20  and  C_15 
REMARK    5  A    between atoms: C_22  and  O_20 
ROOT
ATOM      1  C   UNL d   1      61.031  48.283  50.250  0.00  0.00     0.204 A 
ATOM      2  S   UNL d   1      60.764  47.601  49.876  0.00  0.00    -0.031 SA
ATOM      3  C   UNL d   1      61.371  47.029  49.919  0.00  0.00     0.119 A 
ATOM      4  N   UNL d   1      61.799  48.146  50.527  0.00  0.00    -0.123 NA
ATOM      5  N   UNL d   1      61.993  47.372  50.316  0.00  0.00    -0.143 NA
ENDROOT
BRANCH   1   6
ATOM      6  N   UNL d   1      60.650  49.008  50.363  0.00  0.00    -0.248 N 
ATOM      7  C   UNL d   1      59.874  48.998  50.747  0.00  0.00     0.291 C 
ATOM      8  O   UNL d   1      59.534  48.253  50.991  0.00  0.00    -0.264 OA
ATOM      9  C   UNL d   1      60.993  49.705  50.122  0.00  0.00     0.104 C 
BRANCH   7  10
ATOM     10  C   UNL d   1      59.469  49.708  50.873  0.00  0.00     0.184 C 
BRANCH  10  11
ATOM     11  O   UNL d   1      58.725  49.684  51.257  0.00  0.00    -0.300 OA
BRANCH  11  12
ATOM     12  C   UNL d   1      58.054  49.655  50.765  0.00  0.00     0.100 A 
ATOM     13  C   UNL d   1      58.088  49.701  49.942  0.00  0.00     0.025 A 
ATOM     14  C   UNL d   1      57.416  49.670  49.484  0.00  0.00     0.002 A 
ATOM     15  C   UNL d   1      56.653  49.589  49.822  0.00  0.00     0.000 A 
ATOM     16  C   UNL d   1      56.607  49.541  50.674  0.00  0.00     0.002 A 
ATOM     17  C   UNL d   1      57.313  49.574  51.147  0.00  0.00     0.025 A 
ENDBRANCH  11  12
ENDBRANCH  10  11
ENDBRANCH   7  10
ENDBRANCH   1   6
BRANCH   3  18
ATOM     18  C   UNL d   1      61.410  46.253  49.641  0.00  0.00     0.081 A 
ATOM     19  C   UNL d   1      61.000  45.561  49.579  0.00  0.00    -0.017 A 
ATOM     20  C   UNL d   1      61.344  44.950  49.228  0.00  0.00    -0.008 A 
ATOM     21  C   UNL d   1      60.893  44.252  49.182  0.00  0.00    -0.001 A 
ATOM     22  C   UNL d   1      62.089  45.157  48.984  0.00  0.00    -0.022 A 
ATOM     23  C   UNL d   1      61.465  44.826  49.135  0.00  0.00    -0.008 A 
ATOM     24  C   UNL d   1      61.230  45.490  49.459  0.00  0.00    -0.017 A 
ATOM     25  C   UNL d   1      62.367  45.053  48.832  0.00  0.00    -0.022 A 
ATOM     26  C   UNL d   1      62.599  45.826  48.996  0.00  0.00     0.045 A 
ATOM     27  C   UNL d   1      62.169  46.411  49.374  0.00  0.00     0.023 A 
ENDBRANCH   3  18
TORSDOF 5
ENDMDL
