MODEL 1
REMARK VINA RESULT:      -2.8      0.000      0.000
REMARK  2 active torsions:
REMARK  status: ('A' for Active; 'I' for Inactive)
REMARK    1  A    between atoms: N_2  and  N_1 
REMARK    2  A    between atoms: N_8  and  C_10 
ROOT
ATOM      1  N   UNL d   1      31.228  16.691 -24.139  0.00  0.00    -0.171 N 
ATOM      2  C   UNL d   1      30.528  16.349 -23.892  0.00  0.00     0.283 A 
ATOM      3  C   UNL d   1      29.902  16.833 -24.163  0.00  0.00     0.085 A 
ATOM      4  C   UNL d   1      31.058  17.380 -24.560  0.00  0.00     0.282 A 
ATOM      5  C   UNL d   1      30.233  17.478 -24.580  0.00  0.00     0.064 A 
ATOM      6  C   UNL d   1      29.085  16.774 -24.086  0.00  0.00     0.131 A 
ATOM      7  O   UNL d   1      30.479  15.650 -23.454  0.00  0.00    -0.265 OA
ATOM      8  O   UNL d   1      31.633  17.892 -24.907  0.00  0.00    -0.265 OA
ATOM      9  C   UNL d   1      29.742  18.050 -24.913  0.00  0.00     0.005 A 
ATOM     10  C   UNL d   1      28.596  17.341 -24.415  0.00  0.00     0.024 A 
ATOM     11  C   UNL d   1      28.920  17.972 -24.824  0.00  0.00     0.002 A 
ENDROOT
BRANCH   1  12
ATOM     12  N   UNL d   1      32.013  16.469 -24.039  0.00  0.00    -0.189 N 
ATOM     13  C   UNL d   1      32.507  15.946 -24.426  0.00  0.00     0.169 A 
ATOM     14  S   UNL d   1      33.241  15.973 -24.057  0.00  0.00    -0.051 SA
ATOM     15  S   UNL d   1      32.301  15.457 -25.097  0.00  0.00    -0.050 SA
ATOM     16  C   UNL d   1      33.202  16.514 -23.439  0.00  0.00     0.100 A 
ATOM     17  C   UNL d   1      32.452  16.822 -23.421  0.00  0.00     0.287 A 
ATOM     18  O   UNL d   1      32.182  17.382 -22.887  0.00  0.00    -0.265 OA
ENDBRANCH   1  12
BRANCH   6  19
ATOM     19  N   UNL d   1      28.750  16.123 -23.664  0.00  0.00    -0.114 N 
ATOM     20  O   UNL d   1      28.503  15.454 -24.074  0.00  0.00    -0.532 OA
ATOM     21  O   UNL d   1      28.673  16.160 -22.849  0.00  0.00    -0.532 OA
ENDBRANCH   6  19
TORSDOF 2
ENDMDL
MODEL 2
REMARK VINA RESULT:      -2.5      1.653      3.475
REMARK  2 active torsions:
REMARK  status: ('A' for Active; 'I' for Inactive)
REMARK    1  A    between atoms: N_2  and  N_1 
REMARK    2  A    between atoms: N_8  and  C_10 
ROOT
ATOM      1  N   UNL d   1      30.549  16.634 -24.157  0.00  0.00    -0.171 N 
ATOM      2  C   UNL d   1      31.130  17.140 -23.883  0.00  0.00     0.283 A 
ATOM      3  C   UNL d   1      31.856  16.891 -24.214  0.00  0.00     0.085 A 
ATOM      4  C   UNL d   1      30.892  16.072 -24.654  0.00  0.00     0.282 A 
ATOM      5  C   UNL d   1      31.708  16.224 -24.696  0.00  0.00     0.064 A 
ATOM      6  C   UNL d   1      32.623  17.180 -24.142  0.00  0.00     0.131 A 
ATOM      7  O   UNL d   1      30.992  17.774 -23.371  0.00  0.00    -0.265 OA
ATOM      8  O   UNL d   1      30.476  15.453 -25.048  0.00  0.00    -0.265 OA
ATOM      9  C   UNL d   1      32.329  15.858 -25.097  0.00  0.00     0.005 A 
ATOM     10  C   UNL d   1      33.241  16.818 -24.539  0.00  0.00     0.024 A 
ATOM     11  C   UNL d   1      33.096  16.165 -25.011  0.00  0.00     0.002 A 
ENDROOT
BRANCH   1  12
ATOM     12  N   UNL d   1      29.738  16.605 -24.023  0.00  0.00    -0.189 N 
ATOM     13  C   UNL d   1      29.092  16.951 -24.382  0.00  0.00     0.169 A 
ATOM     14  S   UNL d   1      28.418  16.700 -23.984  0.00  0.00    -0.051 SA
ATOM     15  S   UNL d   1      29.109  17.482 -25.053  0.00  0.00    -0.050 SA
ATOM     16  C   UNL d   1      28.647  16.196 -23.376  0.00  0.00     0.100 A 
ATOM     17  C   UNL d   1      29.456  16.133 -23.393  0.00  0.00     0.287 A 
ATOM     18  O   UNL d   1      29.907  15.682 -22.879  0.00  0.00    -0.265 OA
ENDBRANCH   1  12
BRANCH   6  19
ATOM     19  N   UNL d   1      32.773  17.854 -23.655  0.00  0.00    -0.114 N 
ATOM     20  O   UNL d   1      32.896  17.756 -22.847  0.00  0.00    -0.532 OA
ATOM     21  O   UNL d   1      32.796  18.602 -23.988  0.00  0.00    -0.532 OA
ENDBRANCH   6  19
TORSDOF 2
ENDMDL
MODEL 3
REMARK VINA RESULT:      -1.9      1.582      1.934
REMARK  2 active torsions:
REMARK  status: ('A' for Active; 'I' for Inactive)
REMARK    1  A    between atoms: N_2  and  N_1 
REMARK    2  A    between atoms: N_8  and  C_10 
ROOT
ATOM      1  N   UNL d   1      31.546  17.433 -24.184  0.00  0.00    -0.171 N 
ATOM      2  C   UNL d   1      30.748  17.604 -24.205  0.00  0.00     0.283 A 
ATOM      3  C   UNL d   1      30.352  16.928 -24.497  0.00  0.00     0.085 A 
ATOM      4  C   UNL d   1      31.664  16.663 -24.456  0.00  0.00     0.282 A 
ATOM      5  C   UNL d   1      30.925  16.339 -24.654  0.00  0.00     0.064 A 
ATOM      6  C   UNL d   1      29.557  16.772 -24.639  0.00  0.00     0.131 A 
ATOM      7  O   UNL d   1      30.420  18.327 -23.973  0.00  0.00    -0.265 OA
ATOM      8  O   UNL d   1      32.413  16.279 -24.519  0.00  0.00    -0.265 OA
ATOM      9  C   UNL d   1      30.692  15.605 -24.949  0.00  0.00     0.005 A 
ATOM     10  C   UNL d   1      29.324  16.044 -24.932  0.00  0.00     0.024 A 
ATOM     11  C   UNL d   1      29.884  15.468 -25.086  0.00  0.00     0.002 A 
ENDROOT
BRANCH   1  12
ATOM     12  N   UNL d   1      32.198  17.877 -23.951  0.00  0.00    -0.189 N 
ATOM     13  C   UNL d   1      32.642  18.462 -24.309  0.00  0.00     0.169 A 
ATOM     14  S   UNL d   1      33.229  18.689 -23.782  0.00  0.00    -0.051 SA
ATOM     15  S   UNL d   1      32.519  18.782 -25.093  0.00  0.00    -0.050 SA
ATOM     16  C   UNL d   1      33.151  18.245 -23.095  0.00  0.00     0.100 A 
ATOM     17  C   UNL d   1      32.519  17.744 -23.191  0.00  0.00     0.287 A 
ATOM     18  O   UNL d   1      32.252  17.206 -22.634  0.00  0.00    -0.265 OA
ENDBRANCH   1  12
BRANCH   6  19
ATOM     19  N   UNL d   1      28.978  17.366 -24.480  0.00  0.00    -0.114 N 
ATOM     20  O   UNL d   1      28.610  17.393 -23.745  0.00  0.00    -0.532 OA
ATOM     21  O   UNL d   1      28.786  17.914 -25.058  0.00  0.00    -0.532 OA
ENDBRANCH   6  19
TORSDOF 2
ENDMDL
MODEL 4
REMARK VINA RESULT:      -1.8      1.680      3.112
REMARK  2 active torsions:
REMARK  status: ('A' for Active; 'I' for Inactive)
REMARK    1  A    between atoms: N_2  and  N_1 
REMARK    2  A    between atoms: N_8  and  C_10 
ROOT
ATOM      1  N   UNL d   1      30.179  16.435 -23.987  0.00  0.00    -0.171 N 
ATOM      2  C   UNL d   1      30.952  16.185 -23.906  0.00  0.00     0.283 A 
ATOM      3  C   UNL d   1      31.446  16.798 -24.190  0.00  0.00     0.085 A 
ATOM      4  C   UNL d   1      30.171  17.191 -24.316  0.00  0.00     0.282 A 
ATOM      5  C   UNL d   1      30.958  17.427 -24.446  0.00  0.00     0.064 A 
ATOM      6  C   UNL d   1      32.263  16.866 -24.248  0.00  0.00     0.131 A 
ATOM      7  O   UNL d   1      31.176  15.453 -23.595  0.00  0.00    -0.265 OA
ATOM      8  O   UNL d   1      29.478  17.641 -24.487  0.00  0.00    -0.265 OA
ATOM      9  C   UNL d   1      31.296  18.112 -24.756  0.00  0.00     0.005 A 
ATOM     10  C   UNL d   1      32.601  17.546 -24.556  0.00  0.00     0.024 A 
ATOM     11  C   UNL d   1      32.124  18.161 -24.807  0.00  0.00     0.002 A 
ENDROOT
BRANCH   1  12
ATOM     12  N   UNL d   1      29.463  16.073 -23.804  0.00  0.00    -0.189 N 
ATOM     13  C   UNL d   1      28.887  15.702 -24.248  0.00  0.00     0.169 A 
ATOM     14  S   UNL d   1      28.296  15.453 -23.735  0.00  0.00    -0.051 SA
ATOM     15  S   UNL d   1      28.895  15.591 -25.096  0.00  0.00    -0.050 SA
ATOM     16  C   UNL d   1      28.505  15.670 -22.970  0.00  0.00     0.100 A 
ATOM     17  C   UNL d   1      29.220  16.051 -23.004  0.00  0.00     0.287 A 
ATOM     18  O   UNL d   1      29.626  16.357 -22.361  0.00  0.00    -0.265 OA
ENDBRANCH   1  12
BRANCH   6  19
ATOM     19  N   UNL d   1      32.756  16.231 -23.989  0.00  0.00    -0.114 N 
ATOM     20  O   UNL d   1      32.976  15.642 -24.520  0.00  0.00    -0.532 OA
ATOM     21  O   UNL d   1      33.014  16.204 -23.212  0.00  0.00    -0.532 OA
ENDBRANCH   6  19
TORSDOF 2
ENDMDL
