MODEL 1
REMARK VINA RESULT:      -1.0      0.000      0.000
REMARK  3 active torsions:
REMARK  status: ('A' for Active; 'I' for Inactive)
REMARK    1  A    between atoms: C_11  and  C_3 
REMARK       I    between atoms: C_7  and  N_9 
REMARK    2  A    between atoms: C_8  and  C_7 
REMARK    3  A    between atoms: N_9  and  C_13 
ROOT
ATOM      1  C   UNL d   1     -41.844-122.189 -49.597  0.00  0.00     0.021 A 
ATOM      2  C   UNL d   1     -41.614-122.077 -51.002  0.00  0.00     0.085 A 
ATOM      3  C   UNL d   1     -41.931-122.488 -50.361  0.00  0.00     0.021 A 
ATOM      4  C   UNL d   1     -41.440-121.480 -49.474  0.00  0.00     0.002 A 
ATOM      5  C   UNL d   1     -41.123-121.069 -50.116  0.00  0.00     0.002 A 
ATOM      6  C   UNL d   1     -41.209-121.368 -50.880  0.00  0.00     0.019 A 
ENDROOT
BRANCH   2   7
ATOM      7  N   UNL d   1     -41.700-122.374 -51.763  0.00  0.00    -0.207 NA
ATOM      8  C   UNL d   1     -41.540-121.901 -52.410  0.00  0.00     0.297 C 
ATOM      9  O   UNL d   1     -41.289-121.115 -52.301  0.00  0.00    -0.264 OA
BRANCH   8  10
ATOM     10  C   UNL d   1     -41.627-122.200 -53.174  0.00  0.00     0.139 A 
ATOM     11  N   UNL d   1     -42.065-121.790 -53.731  0.00  0.00    -0.241 NA
ATOM     12  C   UNL d   1     -42.152-122.089 -54.495  0.00  0.00     0.082 A 
ATOM     13  C   UNL d   1     -42.594-121.672 -55.052  0.00  0.00     0.019 A 
ATOM     14  C   UNL d   1     -41.800-122.797 -54.703  0.00  0.00     0.018 A 
ATOM     15  C   UNL d   1     -42.681-121.970 -55.816  0.00  0.00     0.002 A 
ATOM     16  C   UNL d   1     -42.325-122.686 -56.023  0.00  0.00     0.000 A 
ATOM     17  C   UNL d   1     -41.887-123.096 -55.467  0.00  0.00     0.002 A 
ATOM     18  C   UNL d   1     -41.353-123.222 -54.143  0.00  0.00     0.003 A 
ATOM     19  C   UNL d   1     -41.266-122.923 -53.379  0.00  0.00     0.024 A 
ENDBRANCH   8  10
ENDBRANCH   2   7
BRANCH   1  20
ATOM     20  C   UNL d   1     -42.162-122.600 -48.954  0.00  0.00     0.101 A 
ATOM     21  N   UNL d   1     -42.844-123.067 -48.928  0.00  0.00    -0.221 NA
ATOM     22  C   UNL d   1     -42.916-123.348 -48.169  0.00  0.00     0.179 A 
ATOM     23  N   UNL d   1     -42.288-123.063 -47.719  0.00  0.00    -0.282 N 
ATOM     24  S   UNL d   1     -43.383-123.811 -47.681  0.00  0.00    -0.048 SA
ATOM     25  C   UNL d   1     -41.817-122.596 -48.209  0.00  0.00     0.101 A 
ATOM     26  C   UNL d   1     -42.376-123.360 -46.946  0.00  0.00     0.089 A 
ATOM     27  C   UNL d   1     -43.048-123.816 -46.930  0.00  0.00     0.057 A 
ENDBRANCH   1  20
TORSDOF 3
ENDMDL
