MODEL 1
REMARK VINA RESULT:      91.9      0.000      0.000
REMARK  9 active torsions:
REMARK  status: ('A' for Active; 'I' for Inactive)
REMARK    1  A    between atoms: N_2  and  S_1 
REMARK    2  A    between atoms: C_9  and  S_1 
REMARK    3  A    between atoms: C_4  and  N_2 
REMARK    4  A    between atoms: O_24  and  C_6 
REMARK    5  A    between atoms: O_26  and  C_7 
REMARK       I    between atoms: C_12  and  N_15 
REMARK    6  A    between atoms: C_22  and  C_12 
REMARK    7  A    between atoms: C_14  and  O_16 
REMARK    8  A    between atoms: N_15  and  C_23 
REMARK    9  A    between atoms: O_16  and  C_22 
ROOT
ATOM      1  C   UNL d   1      60.541  48.540  50.740  0.00  0.00     0.105 A 
ATOM      2  C   UNL d   1      60.843  48.521  49.979  0.00  0.00     0.015 A 
ATOM      3  C   UNL d   1      60.786  47.977  51.300  0.00  0.00     0.015 A 
ATOM      4  C   UNL d   1      61.631  47.390  50.317  0.00  0.00     0.085 A 
ATOM      5  C   UNL d   1      61.392  47.952  49.742  0.00  0.00     0.020 A 
ATOM      6  C   UNL d   1      61.332  47.408  51.074  0.00  0.00     0.020 A 
ENDROOT
BRANCH   1   7
ATOM      7  S   UNL d   1      59.994  49.109  50.967  0.00  0.00     0.287 S 
ATOM      8  O   UNL d   1      60.632  49.657  51.121  0.00  0.00    -0.198 OA
ATOM      9  O   UNL d   1      59.360  48.593  50.824  0.00  0.00    -0.198 OA
BRANCH   7  10
ATOM     10  N   UNL d   1      59.455  49.707  51.204  0.00  0.00    -0.139 NA
BRANCH  10  11
ATOM     11  C   UNL d   1      58.676  49.706  50.961  0.00  0.00     0.182 A 
ATOM     12  N   UNL d   1      58.490  49.703  50.182  0.00  0.00    -0.185 NA
ATOM     13  C   UNL d   1      57.695  49.702  49.918  0.00  0.00     0.274 A 
ATOM     14  N   UNL d   1      57.095  49.703  50.466  0.00  0.00    -0.181 NA
ATOM     15  C   UNL d   1      57.261  49.705  51.260  0.00  0.00     0.185 A 
ATOM     16  C   UNL d   1      58.083  49.706  51.517  0.00  0.00     0.084 A 
BRANCH  13  17
ATOM     17  O   UNL d   1      57.505  49.699  49.100  0.00  0.00    -0.297 OA
ATOM     18  C   UNL d   1      56.819  49.331  48.828  0.00  0.00     0.185 C 
ENDBRANCH  13  17
BRANCH  15  19
ATOM     19  O   UNL d   1      56.619  49.706  51.799  0.00  0.00    -0.312 OA
ATOM     20  C   UNL d   1      56.185  48.999  51.900  0.00  0.00     0.183 C 
ENDBRANCH  15  19
ENDBRANCH  10  11
ENDBRANCH   7  10
ENDBRANCH   1   7
BRANCH   4  21
ATOM     21  N   UNL d   1      62.183  46.804  50.115  0.00  0.00    -0.206 NA
ATOM     22  C   UNL d   1      61.924  46.180  49.614  0.00  0.00     0.304 C 
ATOM     23  O   UNL d   1      61.180  46.160  49.349  0.00  0.00    -0.263 OA
BRANCH  22  24
ATOM     24  C   UNL d   1      62.472  45.597  49.412  0.00  0.00     0.185 C 
BRANCH  24  25
ATOM     25  O   UNL d   1      62.224  44.847  49.187  0.00  0.00    -0.300 OA
BRANCH  25  26
ATOM     26  C   UNL d   1      62.142  44.258  49.780  0.00  0.00     0.100 A 
ATOM     27  C   UNL d   1      62.239  43.457  49.625  0.00  0.00     0.023 A 
ATOM     28  C   UNL d   1      62.157  42.895  50.210  0.00  0.00     0.002 A 
ATOM     29  C   UNL d   1      62.429  43.188  48.839  0.00  0.00     0.002 C 
ATOM     30  C   UNL d   1      61.977  43.125  50.961  0.00  0.00     0.000 A 
ATOM     31  C   UNL d   1      61.872  43.928  51.156  0.00  0.00     0.002 A 
ATOM     32  C   UNL d   1      61.889  42.564  51.573  0.00  0.00     0.000 C 
ATOM     33  C   UNL d   1      61.954  44.490  50.571  0.00  0.00     0.025 A 
ENDBRANCH  25  26
ENDBRANCH  24  25
ENDBRANCH  22  24
ENDBRANCH   4  21
TORSDOF 9
ENDMDL
