MODEL 1
REMARK VINA RESULT:      11.3      0.000      0.000
REMARK  3 active torsions:
REMARK  status: ('A' for Active; 'I' for Inactive)
REMARK    1  A    between atoms: N_2  and  C_1 
REMARK       I    between atoms: C_4  and  N_2 
REMARK    2  A    between atoms: C_8  and  C_4 
REMARK    3  A    between atoms: C_10  and  C_5 
ROOT
ATOM      1  C   UNL d   1      46.253 -16.984  44.257  0.00  0.00     0.197 A 
ATOM      2  N   UNL d   1      46.381 -17.411  43.578  0.00  0.00    -0.221 NA
ATOM      3  C   UNL d   1      46.281 -18.231  43.813  0.00  0.00     0.090 A 
ATOM      4  S   UNL d   1      46.080 -17.480  44.900  0.00  0.00    -0.046 SA
ATOM      5  C   UNL d   1      46.097 -18.244  44.631  0.00  0.00     0.058 A 
ENDROOT
BRANCH   1   6
ATOM      6  N   UNL d   1      46.291 -16.138  44.303  0.00  0.00    -0.183 NA
ATOM      7  C   UNL d   1      45.613 -15.722  44.585  0.00  0.00     0.281 C 
ATOM      8  O   UNL d   1      44.928 -16.134  44.809  0.00  0.00    -0.265 OA
BRANCH   7   9
ATOM      9  C   UNL d   1      45.614 -14.899  44.643  0.00  0.00     0.058 A 
ATOM     10  C   UNL d   1      44.906 -14.503  44.551  0.00  0.00     0.006 A 
ATOM     11  C   UNL d   1      44.898 -13.667  44.608  0.00  0.00     0.012 A 
ATOM     12  C   UNL d   1      45.583 -13.240  44.754  0.00  0.00     0.058 A 
ATOM     13  C   UNL d   1      46.307 -13.658  44.847  0.00  0.00     0.012 A 
ATOM     14 CL   UNL d   1      45.598 -12.483  44.810  0.00  0.00    -0.082 Cl
ATOM     15  C   UNL d   1      46.315 -14.491  44.790  0.00  0.00     0.006 A 
ENDBRANCH   7   9
ENDBRANCH   1   6
BRANCH   3  16
ATOM     16  C   UNL d   1      46.350 -18.896  43.339  0.00  0.00     0.018 A 
ATOM     17  C   UNL d   1      46.196 -19.650  43.636  0.00  0.00     0.002 A 
ATOM     18  C   UNL d   1      46.266 -20.328  43.153  0.00  0.00     0.000 A 
ATOM     19  C   UNL d   1      46.496 -20.229  42.357  0.00  0.00     0.000 A 
ATOM     20  C   UNL d   1      46.647 -19.478  42.066  0.00  0.00     0.000 A 
ATOM     21  C   UNL d   1      46.573 -18.809  42.562  0.00  0.00     0.002 A 
ENDBRANCH   3  16
TORSDOF 3
ENDMDL
MODEL 2
REMARK VINA RESULT:      12.9      1.985      5.095
REMARK  3 active torsions:
REMARK  status: ('A' for Active; 'I' for Inactive)
REMARK    1  A    between atoms: N_2  and  C_1 
REMARK       I    between atoms: C_4  and  N_2 
REMARK    2  A    between atoms: C_8  and  C_4 
REMARK    3  A    between atoms: C_10  and  C_5 
ROOT
ATOM      1  C   UNL d   1      45.900 -15.966  44.229  0.00  0.00     0.197 A 
ATOM      2  N   UNL d   1      46.075 -15.252  43.882  0.00  0.00    -0.221 NA
ATOM      3  C   UNL d   1      45.647 -14.671  44.348  0.00  0.00     0.090 A 
ATOM      4  S   UNL d   1      45.393 -15.872  44.879  0.00  0.00    -0.046 SA
ATOM      5  C   UNL d   1      45.237 -15.081  44.955  0.00  0.00     0.058 A 
ENDROOT
BRANCH   1   6
ATOM      6  N   UNL d   1      46.199 -16.713  43.961  0.00  0.00    -0.183 NA
ATOM      7  C   UNL d   1      45.653 -17.267  43.633  0.00  0.00     0.281 C 
ATOM      8  O   UNL d   1      44.846 -17.083  43.578  0.00  0.00    -0.265 OA
BRANCH   7   9
ATOM      9  C   UNL d   1      45.908 -18.003  43.362  0.00  0.00     0.058 A 
ATOM     10  C   UNL d   1      45.727 -18.217  42.595  0.00  0.00     0.006 A 
ATOM     11  C   UNL d   1      45.982 -18.964  42.311  0.00  0.00     0.012 A 
ATOM     12  C   UNL d   1      46.407 -19.482  42.785  0.00  0.00     0.058 A 
ATOM     13  C   UNL d   1      46.588 -19.251  43.573  0.00  0.00     0.012 A 
ATOM     14 CL   UNL d   1      46.647 -20.161  42.547  0.00  0.00    -0.082 Cl
ATOM     15  C   UNL d   1      46.334 -18.508  43.856  0.00  0.00     0.006 A 
ENDBRANCH   7   9
ENDBRANCH   1   6
BRANCH   3  16
ATOM     16  C   UNL d   1      45.630 -13.860  44.237  0.00  0.00     0.018 A 
ATOM     17  C   UNL d   1      45.344 -13.530  43.538  0.00  0.00     0.002 A 
ATOM     18  C   UNL d   1      45.326 -12.702  43.425  0.00  0.00     0.000 A 
ATOM     19  C   UNL d   1      45.605 -12.210  44.037  0.00  0.00     0.000 A 
ATOM     20  C   UNL d   1      45.889 -12.542  44.732  0.00  0.00     0.000 A 
ATOM     21  C   UNL d   1      45.900 -13.373  44.829  0.00  0.00     0.002 A 
ENDBRANCH   3  16
TORSDOF 3
ENDMDL
