MODEL 1
REMARK VINA RESULT:      -2.1      0.000      0.000
REMARK  2 active torsions:
REMARK  status: ('A' for Active; 'I' for Inactive)
REMARK    1  A    between atoms: C_12  and  C_9 
REMARK    2  A    between atoms: N_15  and  C_12 
ROOT
ATOM      1  C   UNL d   1      31.076  16.615 -23.920  0.00  0.00     0.176 A 
ATOM      2  C   UNL d   1      31.045  17.315 -24.356  0.00  0.00     0.174 A 
ATOM      3  N   UNL d   1      31.818  16.323 -23.653  0.00  0.00    -0.240 N 
ATOM      4  N   UNL d   1      32.476  17.435 -24.264  0.00  0.00    -0.223 N 
ATOM      5  C   UNL d   1      32.508  16.725 -23.821  0.00  0.00     0.343 A 
ATOM      6  C   UNL d   1      31.755  17.733 -24.532  0.00  0.00     0.289 A 
ATOM      7  N   UNL d   1      30.396  16.197 -23.740  0.00  0.00    -0.206 NA
ATOM      8  N   UNL d   1      29.622  17.192 -24.445  0.00  0.00    -0.217 NA
ATOM      9  C   UNL d   1      29.667  16.482 -24.001  0.00  0.00     0.182 A 
ATOM     10  O   UNL d   1      33.241  16.436 -23.557  0.00  0.00    -0.245 OA
ATOM     11  O   UNL d   1      31.724  18.436 -24.971  0.00  0.00    -0.265 OA
ATOM     12  C   UNL d   1      31.849  15.617 -23.212  0.00  0.00     0.105 C 
ATOM     13  C   UNL d   1      33.217  17.867 -24.445  0.00  0.00     0.107 C 
ENDROOT
BRANCH   9  14
ATOM     14  C   UNL d   1      29.120  15.943 -23.731  0.00  0.00     0.120 C 
BRANCH  14  15
ATOM     15  N   UNL d   1      28.325  15.876 -23.783  0.00  0.00    -0.297 N 
ATOM     16  C   UNL d   1      27.989  15.453 -24.382  0.00  0.00     0.100 C 
ATOM     17  C   UNL d   1      27.858  16.233 -23.232  0.00  0.00     0.100 C 
ENDBRANCH  14  15
ENDBRANCH   9  14
TORSDOF 2
ENDMDL
MODEL 2
REMARK VINA RESULT:      -2.0      4.743      6.093
REMARK  2 active torsions:
REMARK  status: ('A' for Active; 'I' for Inactive)
REMARK    1  A    between atoms: C_12  and  C_9 
REMARK    2  A    between atoms: N_15  and  C_12 
ROOT
ATOM      1  C   UNL d   1      33.119  21.504 -21.942  0.00  0.00     0.176 A 
ATOM      2  C   UNL d   1      33.026  21.393 -21.130  0.00  0.00     0.174 A 
ATOM      3  N   UNL d   1      33.146  22.283 -22.256  0.00  0.00    -0.240 N 
ATOM      4  N   UNL d   1      32.987  22.819 -20.940  0.00  0.00    -0.223 N 
ATOM      5  C   UNL d   1      33.082  22.932 -21.765  0.00  0.00     0.343 A 
ATOM      6  C   UNL d   1      32.959  22.060 -20.619  0.00  0.00     0.289 A 
ATOM      7  N   UNL d   1      33.186  20.868 -22.453  0.00  0.00    -0.206 NA
ATOM      8  N   UNL d   1      33.065  19.976 -21.323  0.00  0.00    -0.217 NA
ATOM      9  C   UNL d   1      33.160  20.101 -22.146  0.00  0.00     0.182 A 
ATOM     10  O   UNL d   1      33.109  23.702 -22.075  0.00  0.00    -0.245 OA
ATOM     11  O   UNL d   1      32.866  21.949 -19.803  0.00  0.00    -0.265 OA
ATOM     12  C   UNL d   1      33.240  22.395 -23.076  0.00  0.00     0.105 C 
ATOM     13  C   UNL d   1      32.918  23.515 -20.412  0.00  0.00     0.107 C 
ENDROOT
BRANCH   9  14
ATOM     14  C   UNL d   1      33.240  19.613 -22.793  0.00  0.00     0.120 C 
BRANCH  14  15
ATOM     15  N   UNL d   1      33.030  18.859 -22.956  0.00  0.00    -0.297 N 
ATOM     16  C   UNL d   1      32.610  18.689 -23.623  0.00  0.00     0.100 C 
ATOM     17  C   UNL d   1      33.240  18.268 -22.451  0.00  0.00     0.100 C 
ENDBRANCH  14  15
ENDBRANCH   9  14
TORSDOF 2
ENDMDL
MODEL 3
REMARK VINA RESULT:      -1.8      1.558      3.594
REMARK  2 active torsions:
REMARK  status: ('A' for Active; 'I' for Inactive)
REMARK    1  A    between atoms: C_12  and  C_9 
REMARK    2  A    between atoms: N_15  and  C_12 
ROOT
ATOM      1  C   UNL d   1      30.426  16.711 -24.009  0.00  0.00     0.176 A 
ATOM      2  C   UNL d   1      29.924  17.124 -24.518  0.00  0.00     0.174 A 
ATOM      3  N   UNL d   1      30.105  16.149 -23.473  0.00  0.00    -0.240 N 
ATOM      4  N   UNL d   1      28.792  16.427 -23.968  0.00  0.00    -0.223 N 
ATOM      5  C   UNL d   1      29.301  16.008 -23.451  0.00  0.00     0.343 A 
ATOM      6  C   UNL d   1      29.094  16.981 -24.499  0.00  0.00     0.289 A 
ATOM      7  N   UNL d   1      31.235  16.838 -24.015  0.00  0.00    -0.206 NA
ATOM      8  N   UNL d   1      31.053  17.815 -25.063  0.00  0.00    -0.217 NA
ATOM      9  C   UNL d   1      31.552  17.389 -24.541  0.00  0.00     0.182 A 
ATOM     10  O   UNL d   1      28.983  15.453 -22.920  0.00  0.00    -0.245 OA
ATOM     11  O   UNL d   1      28.590  17.396 -25.010  0.00  0.00    -0.265 OA
ATOM     12  C   UNL d   1      30.611  15.733 -22.959  0.00  0.00     0.105 C 
ATOM     13  C   UNL d   1      27.929  16.276 -23.944  0.00  0.00     0.107 C 
ENDROOT
BRANCH   9  14
ATOM     14  C   UNL d   1      32.354  17.376 -24.402  0.00  0.00     0.120 C 
BRANCH  14  15
ATOM     15  N   UNL d   1      32.928  17.932 -24.377  0.00  0.00    -0.297 N 
ATOM     16  C   UNL d   1      33.199  18.206 -23.668  0.00  0.00     0.100 C 
ATOM     17  C   UNL d   1      33.237  18.218 -25.064  0.00  0.00     0.100 C 
ENDBRANCH  14  15
ENDBRANCH   9  14
TORSDOF 2
ENDMDL
MODEL 4
REMARK VINA RESULT:      -1.8      3.183      4.905
REMARK  2 active torsions:
REMARK  status: ('A' for Active; 'I' for Inactive)
REMARK    1  A    between atoms: C_12  and  C_9 
REMARK    2  A    between atoms: N_15  and  C_12 
ROOT
ATOM      1  C   UNL d   1      33.186  19.416 -23.062  0.00  0.00     0.176 A 
ATOM      2  C   UNL d   1      33.210  18.729 -22.606  0.00  0.00     0.174 A 
ATOM      3  N   UNL d   1      33.166  19.359 -23.900  0.00  0.00    -0.240 N 
ATOM      4  N   UNL d   1      33.196  17.932 -23.804  0.00  0.00    -0.223 N 
ATOM      5  C   UNL d   1      33.171  18.630 -24.268  0.00  0.00     0.343 A 
ATOM      6  C   UNL d   1      33.215  17.974 -22.981  0.00  0.00     0.289 A 
ATOM      7  N   UNL d   1      33.180  20.157 -22.714  0.00  0.00    -0.206 NA
ATOM      8  N   UNL d   1      33.225  19.524 -21.416  0.00  0.00    -0.217 NA
ATOM      9  C   UNL d   1      33.200  20.214 -21.890  0.00  0.00     0.182 A 
ATOM     10  O   UNL d   1      33.151  18.574 -25.097  0.00  0.00    -0.245 OA
ATOM     11  O   UNL d   1      33.240  17.284 -22.523  0.00  0.00    -0.265 OA
ATOM     12  C   UNL d   1      33.141  20.053 -24.361  0.00  0.00     0.105 C 
ATOM     13  C   UNL d   1      33.201  17.150 -24.198  0.00  0.00     0.107 C 
ENDROOT
BRANCH   9  14
ATOM     14  C   UNL d   1      33.188  21.013 -21.735  0.00  0.00     0.120 C 
BRANCH  14  15
ATOM     15  N   UNL d   1      32.946  21.462 -21.118  0.00  0.00    -0.297 N 
ATOM     16  C   UNL d   1      33.240  21.331 -20.378  0.00  0.00     0.100 C 
ATOM     17  C   UNL d   1      32.406  22.047 -21.239  0.00  0.00     0.100 C 
ENDBRANCH  14  15
ENDBRANCH   9  14
TORSDOF 2
ENDMDL
MODEL 5
REMARK VINA RESULT:      -1.7      3.524      4.996
REMARK  2 active torsions:
REMARK  status: ('A' for Active; 'I' for Inactive)
REMARK    1  A    between atoms: C_12  and  C_9 
REMARK    2  A    between atoms: N_15  and  C_12 
ROOT
ATOM      1  C   UNL d   1      33.224  20.165 -22.479  0.00  0.00     0.176 A 
ATOM      2  C   UNL d   1      33.229  19.942 -21.685  0.00  0.00     0.174 A 
ATOM      3  N   UNL d   1      33.224  20.981 -22.683  0.00  0.00    -0.240 N 
ATOM      4  N   UNL d   1      33.235  21.327 -21.295  0.00  0.00    -0.223 N 
ATOM      5  C   UNL d   1      33.229  21.554 -22.102  0.00  0.00     0.343 A 
ATOM      6  C   UNL d   1      33.235  20.531 -21.082  0.00  0.00     0.289 A 
ATOM      7  N   UNL d   1      33.219  19.607 -23.078  0.00  0.00    -0.206 NA
ATOM      8  N   UNL d   1      33.224  18.565 -22.076  0.00  0.00    -0.217 NA
ATOM      9  C   UNL d   1      33.219  18.805 -22.879  0.00  0.00     0.182 A 
ATOM     10  O   UNL d   1      33.230  22.361 -22.303  0.00  0.00    -0.245 OA
ATOM     11  O   UNL d   1      33.240  20.306 -20.284  0.00  0.00    -0.265 OA
ATOM     12  C   UNL d   1      33.219  21.207 -23.484  0.00  0.00     0.105 C 
ATOM     13  C   UNL d   1      33.240  21.942 -20.671  0.00  0.00     0.107 C 
ENDROOT
BRANCH   9  14
ATOM     14  C   UNL d   1      33.213  18.412 -23.592  0.00  0.00     0.120 C 
BRANCH  14  15
ATOM     15  N   UNL d   1      32.891  17.728 -23.853  0.00  0.00    -0.297 N 
ATOM     16  C   UNL d   1      33.241  17.021 -23.682  0.00  0.00     0.100 C 
ATOM     17  C   UNL d   1      32.215  17.746 -24.290  0.00  0.00     0.100 C 
ENDBRANCH  14  15
ENDBRANCH   9  14
TORSDOF 2
ENDMDL
MODEL 6
REMARK VINA RESULT:      -1.7      3.870      5.151
REMARK  2 active torsions:
REMARK  status: ('A' for Active; 'I' for Inactive)
REMARK    1  A    between atoms: C_12  and  C_9 
REMARK    2  A    between atoms: N_15  and  C_12 
ROOT
ATOM      1  C   UNL d   1      33.228  20.431 -22.053  0.00  0.00     0.176 A 
ATOM      2  C   UNL d   1      33.231  21.004 -22.646  0.00  0.00     0.174 A 
ATOM      3  N   UNL d   1      33.229  20.667 -21.246  0.00  0.00    -0.240 N 
ATOM      4  N   UNL d   1      33.236  22.039 -21.647  0.00  0.00    -0.223 N 
ATOM      5  C   UNL d   1      33.233  21.458 -21.044  0.00  0.00     0.343 A 
ATOM      6  C   UNL d   1      33.236  21.822 -22.443  0.00  0.00     0.289 A 
ATOM      7  N   UNL d   1      33.224  19.632 -22.233  0.00  0.00    -0.206 NA
ATOM      8  N   UNL d   1      33.226  19.971 -23.637  0.00  0.00    -0.217 NA
ATOM      9  C   UNL d   1      33.223  19.399 -23.025  0.00  0.00     0.182 A 
ATOM     10  O   UNL d   1      33.234  21.691 -20.246  0.00  0.00    -0.245 OA
ATOM     11  O   UNL d   1      33.239  22.397 -23.039  0.00  0.00    -0.265 OA
ATOM     12  C   UNL d   1      33.225  20.089 -20.646  0.00  0.00     0.105 C 
ATOM     13  C   UNL d   1      33.241  22.888 -21.431  0.00  0.00     0.107 C 
ENDROOT
BRANCH   9  14
ATOM     14  C   UNL d   1      33.218  18.585 -23.004  0.00  0.00     0.120 C 
BRANCH  14  15
ATOM     15  N   UNL d   1      33.021  18.011 -23.525  0.00  0.00    -0.297 N 
ATOM     16  C   UNL d   1      33.227  18.078 -24.302  0.00  0.00     0.100 C 
ATOM     17  C   UNL d   1      32.615  17.364 -23.271  0.00  0.00     0.100 C 
ENDBRANCH  14  15
ENDBRANCH   9  14
TORSDOF 2
ENDMDL
MODEL 7
REMARK VINA RESULT:      -1.7      1.929      3.751
REMARK  2 active torsions:
REMARK  status: ('A' for Active; 'I' for Inactive)
REMARK    1  A    between atoms: C_12  and  C_9 
REMARK    2  A    between atoms: N_15  and  C_12 
ROOT
ATOM      1  C   UNL d   1      32.482  17.633 -23.433  0.00  0.00     0.176 A 
ATOM      2  C   UNL d   1      31.922  17.892 -23.981  0.00  0.00     0.174 A 
ATOM      3  N   UNL d   1      32.636  16.811 -23.350  0.00  0.00    -0.240 N 
ATOM      4  N   UNL d   1      31.667  16.528 -24.363  0.00  0.00    -0.223 N 
ATOM      5  C   UNL d   1      32.236  16.266 -23.807  0.00  0.00     0.343 A 
ATOM      6  C   UNL d   1      31.506  17.332 -24.454  0.00  0.00     0.289 A 
ATOM      7  N   UNL d   1      32.895  18.164 -22.965  0.00  0.00    -0.206 NA
ATOM      8  N   UNL d   1      32.178  19.247 -23.598  0.00  0.00    -0.217 NA
ATOM      9  C   UNL d   1      32.745  18.972 -23.045  0.00  0.00     0.182 A 
ATOM     10  O   UNL d   1      32.388  15.453 -23.725  0.00  0.00    -0.245 OA
ATOM     11  O   UNL d   1      30.943  17.592 -25.004  0.00  0.00    -0.265 OA
ATOM     12  C   UNL d   1      33.202  16.550 -22.798  0.00  0.00     0.105 C 
ATOM     13  C   UNL d   1      31.237  15.943 -24.853  0.00  0.00     0.107 C 
ENDROOT
BRANCH   9  14
ATOM     14  C   UNL d   1      33.240  19.331 -22.508  0.00  0.00     0.120 C 
BRANCH  14  15
ATOM     15  N   UNL d   1      33.221  20.019 -22.101  0.00  0.00    -0.297 N 
ATOM     16  C   UNL d   1      33.237  20.725 -22.490  0.00  0.00     0.100 C 
ATOM     17  C   UNL d   1      33.187  20.005 -21.296  0.00  0.00     0.100 C 
ENDBRANCH  14  15
ENDBRANCH   9  14
TORSDOF 2
ENDMDL
MODEL 8
REMARK VINA RESULT:      -1.5      4.022      5.577
REMARK  2 active torsions:
REMARK  status: ('A' for Active; 'I' for Inactive)
REMARK    1  A    between atoms: C_12  and  C_9 
REMARK    2  A    between atoms: N_15  and  C_12 
ROOT
ATOM      1  C   UNL d   1      33.232  20.459 -22.576  0.00  0.00     0.176 A 
ATOM      2  C   UNL d   1      33.236  20.705 -23.364  0.00  0.00     0.174 A 
ATOM      3  N   UNL d   1      33.231  19.638 -22.396  0.00  0.00    -0.240 N 
ATOM      4  N   UNL d   1      33.235  19.331 -23.793  0.00  0.00    -0.223 N 
ATOM      5  C   UNL d   1      33.232  19.081 -22.993  0.00  0.00     0.343 A 
ATOM      6  C   UNL d   1      33.237  20.133 -23.983  0.00  0.00     0.289 A 
ATOM      7  N   UNL d   1      33.231  21.000 -21.962  0.00  0.00    -0.206 NA
ATOM      8  N   UNL d   1      33.236  22.069 -22.933  0.00  0.00    -0.217 NA
ATOM      9  C   UNL d   1      33.233  21.807 -22.137  0.00  0.00     0.182 A 
ATOM     10  O   UNL d   1      33.230  18.269 -22.815  0.00  0.00    -0.245 OA
ATOM     11  O   UNL d   1      33.241  20.380 -24.774  0.00  0.00    -0.265 OA
ATOM     12  C   UNL d   1      33.227  19.389 -21.601  0.00  0.00     0.105 C 
ATOM     13  C   UNL d   1      33.237  18.734 -24.434  0.00  0.00     0.107 C 
ENDROOT
BRANCH   9  14
ATOM     14  C   UNL d   1      33.231  22.179 -21.413  0.00  0.00     0.120 C 
BRANCH  14  15
ATOM     15  N   UNL d   1      32.883  22.838 -21.122  0.00  0.00    -0.297 N 
ATOM     16  C   UNL d   1      32.179  22.789 -20.730  0.00  0.00     0.100 C 
ATOM     17  C   UNL d   1      33.238  23.554 -21.222  0.00  0.00     0.100 C 
ENDBRANCH  14  15
ENDBRANCH   9  14
TORSDOF 2
ENDMDL
MODEL 9
REMARK VINA RESULT:      -1.1      6.673      7.771
REMARK  2 active torsions:
REMARK  status: ('A' for Active; 'I' for Inactive)
REMARK    1  A    between atoms: C_12  and  C_9 
REMARK    2  A    between atoms: N_15  and  C_12 
ROOT
ATOM      1  C   UNL d   1      32.818  22.543 -20.413  0.00  0.00     0.176 A 
ATOM      2  C   UNL d   1      32.741  21.729 -20.300  0.00  0.00     0.174 A 
ATOM      3  N   UNL d   1      32.986  22.843 -21.180  0.00  0.00    -0.240 N 
ATOM      4  N   UNL d   1      32.996  21.511 -21.700  0.00  0.00    -0.223 N 
ATOM      5  C   UNL d   1      33.074  22.338 -21.814  0.00  0.00     0.343 A 
ATOM      6  C   UNL d   1      32.831  21.203 -20.953  0.00  0.00     0.289 A 
ATOM      7  N   UNL d   1      32.733  23.068 -19.790  0.00  0.00    -0.206 NA
ATOM      8  N   UNL d   1      32.487  21.950 -18.909  0.00  0.00    -0.217 NA
ATOM      9  C   UNL d   1      32.567  22.774 -19.036  0.00  0.00     0.182 A 
ATOM     10  O   UNL d   1      33.241  22.635 -22.572  0.00  0.00    -0.245 OA
ATOM     11  O   UNL d   1      32.754  20.386 -20.840  0.00  0.00    -0.265 OA
ATOM     12  C   UNL d   1      33.064  23.665 -21.294  0.00  0.00     0.105 C 
ATOM     13  C   UNL d   1      33.091  20.968 -22.380  0.00  0.00     0.107 C 
ENDROOT
BRANCH   9  14
ATOM     14  C   UNL d   1      32.520  23.432 -18.560  0.00  0.00     0.120 C 
BRANCH  14  15
ATOM     15  N   UNL d   1      32.514  23.554 -17.770  0.00  0.00    -0.297 N 
ATOM     16  C   UNL d   1      33.206  23.582 -17.356  0.00  0.00     0.100 C 
ATOM     17  C   UNL d   1      31.812  23.649 -17.386  0.00  0.00     0.100 C 
ENDBRANCH  14  15
ENDBRANCH   9  14
TORSDOF 2
ENDMDL
