MODEL 1
REMARK VINA RESULT:       5.2      0.000      0.000
REMARK  2 active torsions:
REMARK  status: ('A' for Active; 'I' for Inactive)
REMARK    1  A    between atoms: C_4  and  C_3 
REMARK    2  A    between atoms: S_11  and  C_6 
ROOT
ATOM      1  N   UNL d   1      46.297 -18.655  42.690  0.00  0.00    -0.146 NA
ATOM      2  N   UNL d   1      46.395 -18.435  41.899  0.00  0.00    -0.142 NA
ATOM      3  C   UNL d   1      46.351 -19.448  42.904  0.00  0.00     0.126 A 
ATOM      4  C   UNL d   1      46.546 -19.009  41.326  0.00  0.00     0.128 A 
ATOM      5  C   UNL d   1      46.502 -20.022  42.331  0.00  0.00     0.025 A 
ATOM      6  C   UNL d   1      46.599 -19.803  41.543  0.00  0.00     0.029 A 
ENDROOT
BRANCH   3   7
ATOM      7  C   UNL d   1      46.255 -19.674  43.685  0.00  0.00     0.119 A 
ATOM      8  O   UNL d   1      45.748 -19.322  44.229  0.00  0.00    -0.304 OA
ATOM      9  C   UNL d   1      45.819 -19.717  44.953  0.00  0.00     0.123 A 
ATOM     10  C   UNL d   1      46.379 -20.322  44.855  0.00  0.00     0.029 A 
ATOM     11  C   UNL d   1      46.646 -20.293  44.072  0.00  0.00     0.028 A 
ENDBRANCH   3   7
BRANCH   4  12
ATOM     12  S   UNL d   1      46.644 -18.788  40.535  0.00  0.00    -0.092 SA
ATOM     13  C   UNL d   1      46.566 -17.997  40.314  0.00  0.00     0.076 C 
ENDBRANCH   4  12
TORSDOF 2
ENDMDL
MODEL 2
REMARK VINA RESULT:       7.9      5.374      6.076
REMARK  2 active torsions:
REMARK  status: ('A' for Active; 'I' for Inactive)
REMARK    1  A    between atoms: C_4  and  C_3 
REMARK    2  A    between atoms: S_11  and  C_6 
ROOT
ATOM      1  N   UNL d   1      44.784 -14.700  43.869  0.00  0.00    -0.146 NA
ATOM      2  N   UNL d   1      44.850 -15.477  44.144  0.00  0.00    -0.142 NA
ATOM      3  C   UNL d   1      45.312 -14.126  44.131  0.00  0.00     0.126 A 
ATOM      4  C   UNL d   1      45.445 -15.676  44.680  0.00  0.00     0.128 A 
ATOM      5  C   UNL d   1      45.907 -14.325  44.667  0.00  0.00     0.025 A 
ATOM      6  C   UNL d   1      45.973 -15.099  44.941  0.00  0.00     0.029 A 
ENDROOT
BRANCH   3   7
ATOM      7  C   UNL d   1      45.253 -13.355  43.863  0.00  0.00     0.119 A 
ATOM      8  O   UNL d   1      45.846 -12.785  43.900  0.00  0.00    -0.304 OA
ATOM      9  C   UNL d   1      45.561 -12.082  43.571  0.00  0.00     0.123 A 
ATOM     10  C   UNL d   1      44.778 -12.218  43.327  0.00  0.00     0.029 A 
ATOM     11  C   UNL d   1      44.592 -13.004  43.509  0.00  0.00     0.028 A 
ENDBRANCH   3   7
BRANCH   4  12
ATOM     12  S   UNL d   1      45.511 -16.453  44.955  0.00  0.00    -0.092 SA
ATOM     13  C   UNL d   1      45.902 -17.020  44.501  0.00  0.00     0.076 C 
ENDBRANCH   4  12
TORSDOF 2
ENDMDL
