MODEL 1
REMARK VINA RESULT:       8.6      0.000      0.000
REMARK  1 active torsions:
REMARK  status: ('A' for Active; 'I' for Inactive)
REMARK    1  A    between atoms: N_3  and  C_1 
ROOT
ATOM      1  C   UNL d   1     -51.889  24.644  33.398  0.00  0.00     0.158 A 
ATOM      2  C   UNL d   1     -51.453  23.940  33.386  0.00  0.00     0.103 A 
ATOM      3  C   UNL d   1     -50.627  23.959  33.347  0.00  0.00     0.104 C 
ATOM      4  N   UNL d   1     -49.807  23.983  33.308  0.00  0.00    -0.191 NA
ATOM      5  N   UNL d   1     -52.713  24.618  33.437  0.00  0.00    -0.226 NA
ATOM      6  C   UNL d   1     -51.842  23.214  33.413  0.00  0.00     0.015 A 
ATOM      7  C   UNL d   1     -53.100  23.892  33.463  0.00  0.00     0.101 A 
ATOM      8  C   UNL d   1     -52.664  23.189  33.451  0.00  0.00     0.021 A 
ENDROOT
BRANCH   1   9
ATOM      9  N   UNL d   1     -51.500  25.366  33.371  0.00  0.00    -0.286 N 
ATOM     10  C   UNL d   1     -51.936  26.070  33.382  0.00  0.00     0.102 A 
ATOM     11  C   UNL d   1     -51.547  26.790  33.355  0.00  0.00     0.118 A 
ATOM     12  N   UNL d   1     -50.728  26.819  33.317  0.00  0.00    -0.239 NA
ATOM     13  C   UNL d   1     -50.294  26.119  33.306  0.00  0.00     0.118 A 
ATOM     14  C   UNL d   1     -50.679  25.391  33.333  0.00  0.00     0.102 A 
ENDBRANCH   1   9
TORSDOF 1
ENDMDL
MODEL 2
REMARK VINA RESULT:      10.0      0.934      2.871
REMARK  1 active torsions:
REMARK  status: ('A' for Active; 'I' for Inactive)
REMARK    1  A    between atoms: N_3  and  C_1 
ROOT
ATOM      1  C   UNL d   1     -51.526  24.785  33.333  0.00  0.00     0.158 A 
ATOM      2  C   UNL d   1     -51.505  25.612  33.319  0.00  0.00     0.103 A 
ATOM      3  C   UNL d   1     -52.206  26.051  33.317  0.00  0.00     0.104 C 
ATOM      4  N   UNL d   1     -52.906  26.481  33.315  0.00  0.00    -0.191 NA
ATOM      5  N   UNL d   1     -50.822  24.355  33.335  0.00  0.00    -0.226 NA
ATOM      6  C   UNL d   1     -50.780  26.006  33.306  0.00  0.00     0.015 A 
ATOM      7  C   UNL d   1     -50.100  24.748  33.323  0.00  0.00     0.101 A 
ATOM      8  C   UNL d   1     -50.078  25.576  33.308  0.00  0.00     0.021 A 
ENDROOT
BRANCH   1   9
ATOM      9  N   UNL d   1     -52.248  24.395  33.346  0.00  0.00    -0.286 N 
ATOM     10  C   UNL d   1     -52.951  24.831  33.306  0.00  0.00     0.102 A 
ATOM     11  C   UNL d   1     -53.672  24.441  33.318  0.00  0.00     0.118 A 
ATOM     12  N   UNL d   1     -53.702  23.623  33.370  0.00  0.00    -0.239 NA
ATOM     13  C   UNL d   1     -53.002  23.190  33.410  0.00  0.00     0.118 A 
ATOM     14  C   UNL d   1     -52.273  23.576  33.398  0.00  0.00     0.102 A 
ENDBRANCH   1   9
TORSDOF 1
ENDMDL
