MODEL 1
REMARK VINA RESULT:      13.3      0.000      0.000
REMARK  5 active torsions:
REMARK  status: ('A' for Active; 'I' for Inactive)
REMARK    1  A    between atoms: S_4  and  N_1 
REMARK    2  A    between atoms: C_2  and  C_5 
REMARK    3  A    between atoms: C_12  and  C_7 
REMARK    4  A    between atoms: O_26  and  C_24 
REMARK    5  A    between atoms: C_27  and  O_26 
ROOT
ATOM      1  C   UNL d   1     -41.587-122.094 -53.323  0.00  0.00     0.076 A 
ATOM      2  C   UNL d   1     -41.379-121.420 -52.902  0.00  0.00     0.281 A 
ATOM      3  C   UNL d   1     -41.660-122.818 -52.933  0.00  0.00     0.008 A 
ATOM      4  N   UNL d   1     -41.243-121.465 -52.089  0.00  0.00    -0.208 NA
ATOM      5  C   UNL d   1     -41.316-122.193 -51.694  0.00  0.00     0.087 A 
ATOM      6  C   UNL d   1     -41.524-122.867 -52.115  0.00  0.00     0.018 A 
ATOM      7  C   UNL d   1     -41.180-122.238 -50.880  0.00  0.00     0.044 A 
ATOM      8  O   UNL d   1     -41.215-120.608 -52.877  0.00  0.00    -0.265 OA
ATOM      9  C   UNL d   1     -41.597-123.591 -51.724  0.00  0.00     0.004 A 
ATOM     10  C   UNL d   1     -41.256-122.932 -50.540  0.00  0.00     0.102 A 
ATOM     11  C   UNL d   1     -41.464-123.606 -50.960  0.00  0.00     0.025 A 
ENDROOT
BRANCH   1  12
ATOM     12  C   UNL d   1     -41.723-122.047 -54.137  0.00  0.00     0.101 A 
ATOM     13  N   UNL d   1     -42.198-122.539 -54.572  0.00  0.00    -0.155 N 
ATOM     14  N   UNL d   1     -42.176-122.298 -55.355  0.00  0.00    -0.153 NA
ATOM     15  C   UNL d   1     -41.679-121.650 -55.396  0.00  0.00     0.126 A 
ATOM     16  C   UNL d   1     -41.392-121.486 -54.644  0.00  0.00     0.043 A 
BRANCH  13  17
ATOM     17  S   UNL d   1     -42.628-123.170 -54.276  0.00  0.00     0.266 S 
ATOM     18  O   UNL d   1     -43.245-122.646 -54.042  0.00  0.00    -0.203 OA
ATOM     19  O   UNL d   1     -42.039-123.705 -54.495  0.00  0.00    -0.203 OA
ATOM     20  C   UNL d   1     -43.087-123.811 -53.965  0.00  0.00     0.165 C 
ENDBRANCH  13  17
BRANCH  15  21
ATOM     21  C   UNL d   1     -41.495-121.231 -56.070  0.00  0.00     0.119 A 
ATOM     22  O   UNL d   1     -41.388-120.409 -56.126  0.00  0.00    -0.304 OA
ATOM     23  C   UNL d   1     -41.212-120.229 -56.902  0.00  0.00     0.123 A 
ATOM     24  C   UNL d   1     -41.204-120.942 -57.353  0.00  0.00     0.029 A 
ATOM     25  C   UNL d   1     -41.383-121.549 -56.815  0.00  0.00     0.028 A 
ENDBRANCH  15  21
ENDBRANCH   1  12
BRANCH  10  26
ATOM     26  O   UNL d   1     -41.126-122.998 -49.738  0.00  0.00    -0.305 OA
BRANCH  26  27
ATOM     27  C   UNL d   1     -42.146-122.730 -49.273  0.00  0.00     0.123 C 
ATOM     28  C   UNL d   1     -42.279-122.806 -48.450  0.00  0.00     0.029 C 
ENDBRANCH  26  27
ENDBRANCH  10  26
TORSDOF 5
ENDMDL
