MODEL 1
REMARK VINA RESULT:      -1.6      0.000      0.000
REMARK  5 active torsions:
REMARK  status: ('A' for Active; 'I' for Inactive)
REMARK    1  A    between atoms: C_12  and  C_4 
REMARK    2  A    between atoms: N_10  and  C_6 
REMARK    3  A    between atoms: C_11  and  C_9 
REMARK    4  A    between atoms: C_14  and  N_10 
REMARK    5  A    between atoms: C_15  and  C_14 
ROOT
ATOM      1  C   UNL d   1      30.511  17.456 -24.486  0.00  0.00     0.167 A 
ATOM      2  N   UNL d   1      30.942  18.112 -24.751  0.00  0.00    -0.195 N 
ATOM      3  N   UNL d   1      29.737  18.750 -25.092  0.00  0.00    -0.163 NA
ATOM      4  C   UNL d   1      29.706  17.452 -24.526  0.00  0.00     0.055 A 
ATOM      5  N   UNL d   1      30.905  16.803 -24.180  0.00  0.00    -0.231 NA
ATOM      6  C   UNL d   1      31.756  18.098 -24.703  0.00  0.00     0.167 A 
ATOM      7  C   UNL d   1      29.313  18.104 -24.832  0.00  0.00     0.104 A 
ATOM      8  C   UNL d   1      32.153  17.443 -24.396  0.00  0.00     0.054 A 
ATOM      9  C   UNL d   1      31.729  16.798 -24.135  0.00  0.00     0.063 A 
ATOM     10  C   UNL d   1      28.501  18.113 -24.877  0.00  0.00     0.023 C 
ENDROOT
BRANCH   6  11
ATOM     11  N   UNL d   1      32.200  18.774 -24.976  0.00  0.00    -0.224 NA
BRANCH  11  12
ATOM     12  C   UNL d   1      32.961  19.129 -24.922  0.00  0.00     0.120 C 
BRANCH  12  13
ATOM     13  C   UNL d   1      33.054  19.894 -24.585  0.00  0.00     0.101 A 
ATOM     14  N   UNL d   1      33.114  20.566 -25.090  0.00  0.00    -0.242 NA
ATOM     15  C   UNL d   1      33.209  21.344 -24.743  0.00  0.00     0.099 A 
ATOM     16  C   UNL d   1      33.241  21.433 -23.906  0.00  0.00     0.021 A 
ATOM     17  C   UNL d   1      33.178  20.743 -23.397  0.00  0.00     0.003 A 
ATOM     18  C   UNL d   1      33.086  19.982 -23.743  0.00  0.00     0.021 A 
ENDBRANCH  12  13
ENDBRANCH  11  12
ENDBRANCH   6  11
BRANCH   9  19
ATOM     19  C   UNL d   1      32.135  16.120 -23.818  0.00  0.00     0.036 C 
ATOM     20  C   UNL d   1      32.536  15.453 -23.498  0.00  0.00     0.006 C 
ATOM     21  C   UNL d   1      32.388  15.494 -24.339  0.00  0.00     0.006 C 
ATOM     22  C   UNL d   1      32.282  16.079 -22.982  0.00  0.00     0.006 C 
ENDBRANCH   9  19
BRANCH   4  23
ATOM     23  C   UNL d   1      29.280  16.803 -24.264  0.00  0.00     0.004 A 
ATOM     24  C   UNL d   1      28.994  16.794 -23.499  0.00  0.00     0.000 A 
ATOM     25  C   UNL d   1      28.563  16.138 -23.234  0.00  0.00     0.000 A 
ATOM     26  C   UNL d   1      28.432  15.511 -23.742  0.00  0.00     0.000 A 
ATOM     27  C   UNL d   1      28.725  15.534 -24.508  0.00  0.00     0.000 A 
ATOM     28  C   UNL d   1      29.149  16.179 -24.768  0.00  0.00     0.000 A 
ENDBRANCH   4  23
TORSDOF 5
ENDMDL
MODEL 2
REMARK VINA RESULT:      -0.0      2.377      5.892
REMARK  5 active torsions:
REMARK  status: ('A' for Active; 'I' for Inactive)
REMARK    1  A    between atoms: C_12  and  C_4 
REMARK    2  A    between atoms: N_10  and  C_6 
REMARK    3  A    between atoms: C_11  and  C_9 
REMARK    4  A    between atoms: C_14  and  N_10 
REMARK    5  A    between atoms: C_15  and  C_14 
ROOT
ATOM      1  C   UNL d   1      32.792  21.297 -22.040  0.00  0.00     0.167 A 
ATOM      2  N   UNL d   1      32.904  20.529 -22.328  0.00  0.00    -0.195 N 
ATOM      3  N   UNL d   1      32.818  20.038 -21.014  0.00  0.00    -0.163 NA
ATOM      4  C   UNL d   1      32.695  21.429 -21.251  0.00  0.00     0.055 A 
ATOM      5  N   UNL d   1      32.779  21.932 -22.561  0.00  0.00    -0.231 NA
ATOM      6  C   UNL d   1      32.999  20.415 -23.130  0.00  0.00     0.167 A 
ATOM      7  C   UNL d   1      32.708  20.794 -20.730  0.00  0.00     0.104 A 
ATOM      8  C   UNL d   1      32.987  21.052 -23.654  0.00  0.00     0.054 A 
ATOM      9  C   UNL d   1      32.877  21.808 -23.371  0.00  0.00     0.063 A 
ATOM     10  C   UNL d   1      32.612  20.913 -19.932  0.00  0.00     0.023 C 
ENDROOT
BRANCH   6  11
ATOM     11  N   UNL d   1      33.114  19.623 -23.427  0.00  0.00    -0.224 NA
BRANCH  11  12
ATOM     12  C   UNL d   1      33.239  19.198 -24.142  0.00  0.00     0.120 C 
BRANCH  12  13
ATOM     13  C   UNL d   1      32.830  18.478 -24.290  0.00  0.00     0.101 A 
ATOM     14  N   UNL d   1      32.137  18.485 -24.769  0.00  0.00    -0.242 NA
ATOM     15  C   UNL d   1      31.723  17.750 -24.917  0.00  0.00     0.099 A 
ATOM     16  C   UNL d   1      32.007  17.030 -24.586  0.00  0.00     0.021 A 
ATOM     17  C   UNL d   1      32.715  17.030 -24.098  0.00  0.00     0.003 A 
ATOM     18  C   UNL d   1      33.117  17.755 -23.956  0.00  0.00     0.021 A 
ENDBRANCH  12  13
ENDBRANCH  11  12
ENDBRANCH   6  11
BRANCH   9  19
ATOM     19  C   UNL d   1      32.863  22.468 -23.909  0.00  0.00     0.036 C 
ATOM     20  C   UNL d   1      32.853  23.124 -24.437  0.00  0.00     0.006 C 
ATOM     21  C   UNL d   1      32.473  22.393 -24.663  0.00  0.00     0.006 C 
ATOM     22  C   UNL d   1      33.241  23.195 -23.684  0.00  0.00     0.006 C 
ENDBRANCH   9  19
BRANCH   4  23
ATOM     23  C   UNL d   1      32.585  22.189 -20.966  0.00  0.00     0.004 A 
ATOM     24  C   UNL d   1      33.233  22.624 -20.724  0.00  0.00     0.000 A 
ATOM     25  C   UNL d   1      33.121  23.393 -20.436  0.00  0.00     0.000 A 
ATOM     26  C   UNL d   1      32.365  23.702 -20.399  0.00  0.00     0.000 A 
ATOM     27  C   UNL d   1      31.725  23.254 -20.645  0.00  0.00     0.000 A 
ATOM     28  C   UNL d   1      31.834  22.498 -20.929  0.00  0.00     0.000 A 
ENDBRANCH   4  23
TORSDOF 5
ENDMDL
