MODEL 1
REMARK VINA RESULT:       5.6      0.000      0.000
REMARK  1 active torsions:
REMARK  status: ('A' for Active; 'I' for Inactive)
REMARK    1  A    between atoms: C_6  and  C_2 
ROOT
ATOM      1  S   UNL d   1     -55.225-102.703 -36.799  0.00  0.00    -0.024 SA
ATOM      2  C   UNL d   1     -55.123-102.233 -37.463  0.00  0.00     0.135 A 
ATOM      3  N   UNL d   1     -54.807-101.510 -37.228  0.00  0.00    -0.139 NA
ATOM      4  C   UNL d   1     -54.970-102.265 -36.148  0.00  0.00     0.236 A 
ATOM      5  N   UNL d   1     -54.714-101.536 -36.406  0.00  0.00    -0.119 NA
ATOM      6  N   UNL d   1     -54.975-102.528 -35.366  0.00  0.00    -0.118 N 
ENDROOT
BRANCH   2   7
ATOM      7  C   UNL d   1     -55.305-102.447 -38.237  0.00  0.00     0.029 A 
ATOM      8  C   UNL d   1     -56.076-102.619 -38.455  0.00  0.00     0.023 A 
ATOM      9  C   UNL d   1     -56.259-102.834 -39.233  0.00  0.00     0.099 A 
ATOM     10  N   UNL d   1     -55.672-102.879 -39.797  0.00  0.00    -0.242 NA
ATOM     11  C   UNL d   1     -54.895-102.709 -39.589  0.00  0.00     0.099 A 
ATOM     12  C   UNL d   1     -54.712-102.494 -38.811  0.00  0.00     0.023 A 
ENDBRANCH   2   7
TORSDOF 1
ENDMDL
