MODEL 1
REMARK VINA RESULT:      36.0      0.000      0.000
REMARK  8 active torsions:
REMARK  status: ('A' for Active; 'I' for Inactive)
REMARK    1  A    between atoms: O_8  and  C_1 
REMARK    2  A    between atoms: C_10  and  C_5 
REMARK    3  A    between atoms: C_12  and  O_8 
REMARK    4  A    between atoms: N_9  and  C_10 
REMARK    5  A    between atoms: C_25  and  N_14 
REMARK    6  A    between atoms: O_24  and  C_17 
REMARK    7  A    between atoms: C_30  and  O_24 
REMARK    8  A    between atoms: C_29  and  C_25 
ROOT
ATOM      1  C   UNL d   1      45.124 -14.652  44.330  0.00  0.00     0.161 A 
ATOM      2  C   UNL d   1      45.586 -16.247  44.332  0.00  0.00     0.108 A 
ATOM      3  C   UNL d   1      44.845 -16.031  44.645  0.00  0.00     0.064 A 
ATOM      4  C   UNL d   1      44.618 -15.236  44.643  0.00  0.00     0.222 A 
ATOM      5  C   UNL d   1      45.814 -17.043  44.333  0.00  0.00     0.079 A 
ATOM      6  O   UNL d   1      46.101 -15.679  44.017  0.00  0.00    -0.305 OA
ATOM      7  C   UNL d   1      45.864 -14.873  44.018  0.00  0.00     0.126 A 
ATOM      8  C   UNL d   1      44.349 -16.605  44.952  0.00  0.00     0.009 A 
ATOM      9  C   UNL d   1      45.310 -17.614  44.644  0.00  0.00     0.199 A 
ATOM     10  O   UNL d   1      43.884 -15.017  44.953  0.00  0.00    -0.284 OA
ATOM     11  C   UNL d   1      44.577 -17.396  44.953  0.00  0.00     0.042 A 
ATOM     12  O   UNL d   1      45.539 -18.406  44.645  0.00  0.00    -0.286 OA
ATOM     13  C   UNL d   1      46.368 -14.300  43.707  0.00  0.00     0.029 C 
ENDROOT
BRANCH   1  14
ATOM     14  O   UNL d   1      44.891 -13.859  44.331  0.00  0.00    -0.300 OA
BRANCH  14  15
ATOM     15  C   UNL d   1      45.463 -13.268  44.308  0.00  0.00     0.123 A 
ATOM     16  C   UNL d   1      45.522 -12.780  43.647  0.00  0.00     0.123 A 
ATOM     17  C   UNL d   1      46.089 -12.190  43.619  0.00  0.00     0.027 A 
ATOM     18  C   UNL d   1      46.606 -12.080  44.251  0.00  0.00     0.002 A 
ATOM     19  C   UNL d   1      46.549 -12.573  44.922  0.00  0.00     0.002 A 
ATOM     20  C   UNL d   1      45.977 -13.165  44.945  0.00  0.00     0.027 A 
BRANCH  16  21
ATOM     21  O   UNL d   1      45.006 -12.886  43.012  0.00  0.00    -0.303 OA
BRANCH  21  22
ATOM     22  C   UNL d   1      45.044 -12.378  42.366  0.00  0.00     0.123 C 
ATOM     23  C   UNL d   1      44.355 -12.090  42.020  0.00  0.00     0.029 C 
ENDBRANCH  21  22
ENDBRANCH  16  21
ENDBRANCH  14  15
ENDBRANCH   1  14
BRANCH   5  24
ATOM     24  C   UNL d   1      46.546 -17.269  44.026  0.00  0.00     0.086 C 
BRANCH  24  25
ATOM     25  N   UNL d   1      46.570 -17.787  43.378  0.00  0.00    -0.300 N 
ATOM     26  C   UNL d   1      46.557 -18.605  43.497  0.00  0.00     0.100 A 
ATOM     27  C   UNL d   1      46.581 -19.113  42.854  0.00  0.00     0.100 A 
ATOM     28  N   UNL d   1      46.618 -18.813  42.086  0.00  0.00    -0.297 N 
ATOM     29  C   UNL d   1      46.630 -17.995  41.966  0.00  0.00     0.100 A 
ATOM     30  C   UNL d   1      46.606 -17.476  42.615  0.00  0.00     0.100 A 
BRANCH  28  31
ATOM     31  C   UNL d   1      46.642 -19.324  41.440  0.00  0.00     0.126 C 
BRANCH  31  32
ATOM     32  C   UNL d   1      46.535 -19.026  40.679  0.00  0.00     0.253 C 
ATOM     33  O   UNL d   1      45.776 -18.856  40.409  0.00  0.00    -0.281 OA
ENDBRANCH  31  32
ENDBRANCH  28  31
ENDBRANCH  24  25
ENDBRANCH   5  24
TORSDOF 8
ENDMDL
