MODEL 1
REMARK VINA RESULT:      -9.6      0.000      0.000
REMARK  5 active torsions:
REMARK  status: ('A' for Active; 'I' for Inactive)
REMARK    1  A    between atoms: C_4  and  S_1 
REMARK    2  A    between atoms: N_5  and  S_1 
REMARK       I    between atoms: N_2  and  C_3 
REMARK    3  A    between atoms: C_3  and  C_12 
REMARK    4  A    between atoms: C_19  and  N_5 
REMARK    5  A    between atoms: C_20  and  C_19 
ROOT
ATOM      1  C   UNL d   1      51.713  33.515  52.928  0.00  0.00     0.057 A 
ATOM      2  C   UNL d   1      51.064  33.280  53.383  0.00  0.00     0.005 A 
ATOM      3  C   UNL d   1      51.629  34.110  52.367  0.00  0.00     0.005 A 
ATOM      4  C   UNL d   1      50.246  34.239  52.713  0.00  0.00     0.020 A 
ATOM      5  C   UNL d   1      50.339  33.642  53.273  0.00  0.00     0.002 A 
ATOM      6  C   UNL d   1      50.896  34.471  52.261  0.00  0.00     0.002 A 
ENDROOT
BRANCH   4   7
ATOM      7  C   UNL d   1      49.515  34.602  52.604  0.00  0.00     0.112 C 
BRANCH   7   8
ATOM      8  N   UNL d   1      49.371  35.347  52.940  0.00  0.00    -0.157 NA
BRANCH   8   9
ATOM      9  S   UNL d   1      48.597  35.654  52.944  0.00  0.00     0.285 S 
ATOM     10  O   UNL d   1      48.419  35.227  52.254  0.00  0.00    -0.198 OA
ATOM     11  O   UNL d   1      48.773  36.086  53.640  0.00  0.00    -0.198 OA
BRANCH   9  12
ATOM     12  C   UNL d   1      47.821  35.964  52.953  0.00  0.00     0.106 A 
ATOM     13  C   UNL d   1      47.401  36.003  53.652  0.00  0.00     0.024 A 
ATOM     14  C   UNL d   1      46.638  36.309  53.658  0.00  0.00     0.059 A 
ATOM     15 CL   UNL d   1      46.206  36.352  54.362  0.00  0.00    -0.082 Cl
ATOM     16  C   UNL d   1      46.292  36.577  52.958  0.00  0.00     0.011 A 
ATOM     17  C   UNL d   1      46.719  36.535  52.259  0.00  0.00     0.002 A 
ATOM     18  C   UNL d   1      47.487  36.228  52.252  0.00  0.00     0.013 A 
ENDBRANCH   9  12
ENDBRANCH   8   9
ENDBRANCH   7   8
ENDBRANCH   4   7
BRANCH   1  19
ATOM     19  C   UNL d   1      52.459  33.149  53.035  0.00  0.00     0.265 C 
ATOM     20  N   UNL d   1      52.994  33.459  53.587  0.00  0.00    -0.268 N 
ATOM     21  C   UNL d   1      52.792  34.127  54.030  0.00  0.00     0.108 A 
ATOM     22  C   UNL d   1      53.729  33.097  53.691  0.00  0.00     0.108 A 
ATOM     23  C   UNL d   1      53.332  34.436  54.584  0.00  0.00     0.118 A 
ATOM     24  C   UNL d   1      53.129  35.106  55.029  0.00  0.00     0.028 C 
ATOM     25  O   UNL d   1      54.066  34.073  54.687  0.00  0.00    -0.304 OA
ATOM     26  C   UNL d   1      54.273  33.405  54.246  0.00  0.00     0.118 A 
ATOM     27  C   UNL d   1      55.011  33.043  54.353  0.00  0.00     0.028 C 
ATOM     28  O   UNL d   1      52.658  32.480  52.588  0.00  0.00    -0.267 OA
ENDBRANCH   1  19
TORSDOF 5
ENDMDL
MODEL 2
REMARK VINA RESULT:      -8.7      1.112      1.700
REMARK  5 active torsions:
REMARK  status: ('A' for Active; 'I' for Inactive)
REMARK    1  A    between atoms: C_4  and  S_1 
REMARK    2  A    between atoms: N_5  and  S_1 
REMARK       I    between atoms: N_2  and  C_3 
REMARK    3  A    between atoms: C_3  and  C_12 
REMARK    4  A    between atoms: C_19  and  N_5 
REMARK    5  A    between atoms: C_20  and  C_19 
ROOT
ATOM      1  C   UNL d   1      51.657  34.294  52.871  0.00  0.00     0.057 A 
ATOM      2  C   UNL d   1      51.452  34.319  52.070  0.00  0.00     0.005 A 
ATOM      3  C   UNL d   1      51.074  34.340  53.447  0.00  0.00     0.005 A 
ATOM      4  C   UNL d   1      50.075  34.435  52.428  0.00  0.00     0.020 A 
ATOM      5  C   UNL d   1      50.665  34.388  51.855  0.00  0.00     0.002 A 
ATOM      6  C   UNL d   1      50.284  34.410  53.225  0.00  0.00     0.002 A 
ENDROOT
BRANCH   4   7
ATOM      7  C   UNL d   1      49.284  34.505  52.209  0.00  0.00     0.112 C 
BRANCH   7   8
ATOM      8  N   UNL d   1      49.022  35.194  51.826  0.00  0.00    -0.157 NA
BRANCH   8   9
ATOM      9  S   UNL d   1      48.206  35.342  51.759  0.00  0.00     0.285 S 
ATOM     10  O   UNL d   1      48.165  34.844  51.095  0.00  0.00    -0.198 OA
ATOM     11  O   UNL d   1      48.243  35.845  52.428  0.00  0.00    -0.198 OA
BRANCH   9  12
ATOM     12  C   UNL d   1      47.386  35.494  51.696  0.00  0.00     0.106 A 
ATOM     13  C   UNL d   1      47.002  35.927  52.271  0.00  0.00     0.024 A 
ATOM     14  C   UNL d   1      46.196  36.075  52.206  0.00  0.00     0.059 A 
ATOM     15 CL   UNL d   1      45.800  36.513  52.785  0.00  0.00    -0.082 Cl
ATOM     16  C   UNL d   1      45.771  35.787  51.560  0.00  0.00     0.011 A 
ATOM     17  C   UNL d   1      46.163  35.352  50.984  0.00  0.00     0.002 A 
ATOM     18  C   UNL d   1      46.974  35.203  51.049  0.00  0.00     0.013 A 
ENDBRANCH   9  12
ENDBRANCH   8   9
ENDBRANCH   7   8
ENDBRANCH   4   7
BRANCH   1  19
ATOM     19  C   UNL d   1      52.460  34.223  53.098  0.00  0.00     0.265 C 
ATOM     20  N   UNL d   1      52.802  33.471  53.173  0.00  0.00    -0.268 N 
ATOM     21  C   UNL d   1      52.351  32.795  53.023  0.00  0.00     0.108 A 
ATOM     22  C   UNL d   1      53.594  33.403  53.398  0.00  0.00     0.108 A 
ATOM     23  C   UNL d   1      52.698  32.041  53.099  0.00  0.00     0.118 A 
ATOM     24  C   UNL d   1      52.246  31.361  52.949  0.00  0.00     0.028 C 
ATOM     25  O   UNL d   1      53.489  31.974  53.323  0.00  0.00    -0.304 OA
ATOM     26  C   UNL d   1      53.944  32.648  53.475  0.00  0.00     0.118 A 
ATOM     27  C   UNL d   1      54.739  32.576  53.700  0.00  0.00     0.028 C 
ATOM     28  O   UNL d   1      52.909  34.904  53.248  0.00  0.00    -0.267 OA
ENDBRANCH   1  19
TORSDOF 5
ENDMDL
MODEL 3
REMARK VINA RESULT:      -8.6      2.182      5.960
REMARK  5 active torsions:
REMARK  status: ('A' for Active; 'I' for Inactive)
REMARK    1  A    between atoms: C_4  and  S_1 
REMARK    2  A    between atoms: N_5  and  S_1 
REMARK       I    between atoms: N_2  and  C_3 
REMARK    3  A    between atoms: C_3  and  C_12 
REMARK    4  A    between atoms: C_19  and  N_5 
REMARK    5  A    between atoms: C_20  and  C_19 
ROOT
ATOM      1  C   UNL d   1      49.330  34.526  51.803  0.00  0.00     0.057 A 
ATOM      2  C   UNL d   1      49.391  34.259  52.583  0.00  0.00     0.005 A 
ATOM      3  C   UNL d   1      50.007  34.676  51.363  0.00  0.00     0.005 A 
ATOM      4  C   UNL d   1      50.815  34.293  52.481  0.00  0.00     0.020 A 
ATOM      5  C   UNL d   1      50.130  34.145  52.915  0.00  0.00     0.002 A 
ATOM      6  C   UNL d   1      50.749  34.559  51.704  0.00  0.00     0.002 A 
ENDROOT
BRANCH   4   7
ATOM      7  C   UNL d   1      51.557  34.177  52.818  0.00  0.00     0.112 C 
BRANCH   7   8
ATOM      8  N   UNL d   1      51.715  33.477  53.236  0.00  0.00    -0.157 NA
BRANCH   8   9
ATOM      9  S   UNL d   1      52.489  33.323  53.502  0.00  0.00     0.285 S 
ATOM     10  O   UNL d   1      52.568  34.114  53.744  0.00  0.00    -0.198 OA
ATOM     11  O   UNL d   1      52.413  32.525  53.261  0.00  0.00    -0.198 OA
BRANCH   9  12
ATOM     12  C   UNL d   1      53.265  33.164  53.769  0.00  0.00     0.106 A 
ATOM     13  C   UNL d   1      53.471  33.306  54.545  0.00  0.00     0.024 A 
ATOM     14  C   UNL d   1      54.236  33.148  54.805  0.00  0.00     0.059 A 
ATOM     15 CL   UNL d   1      54.452  33.289  55.590  0.00  0.00    -0.082 Cl
ATOM     16  C   UNL d   1      54.798  32.845  54.281  0.00  0.00     0.011 A 
ATOM     17  C   UNL d   1      54.585  32.705  53.502  0.00  0.00     0.002 A 
ATOM     18  C   UNL d   1      53.816  32.863  53.240  0.00  0.00     0.013 A 
ENDBRANCH   9  12
ENDBRANCH   8   9
ENDBRANCH   7   8
ENDBRANCH   4   7
BRANCH   1  19
ATOM     19  C   UNL d   1      48.576  34.645  51.456  0.00  0.00     0.265 C 
ATOM     20  N   UNL d   1      48.066  35.221  51.766  0.00  0.00    -0.268 N 
ATOM     21  C   UNL d   1      48.301  35.675  52.415  0.00  0.00     0.108 A 
ATOM     22  C   UNL d   1      47.324  35.336  51.422  0.00  0.00     0.108 A 
ATOM     23  C   UNL d   1      47.787  36.253  52.724  0.00  0.00     0.118 A 
ATOM     24  C   UNL d   1      48.021  36.709  53.376  0.00  0.00     0.028 C 
ATOM     25  O   UNL d   1      47.045  36.368  52.380  0.00  0.00    -0.304 OA
ATOM     26  C   UNL d   1      46.806  35.915  51.730  0.00  0.00     0.118 A 
ATOM     27  C   UNL d   1      46.060  36.034  51.387  0.00  0.00     0.028 C 
ATOM     28  O   UNL d   1      48.345  34.187  50.804  0.00  0.00    -0.267 OA
ENDBRANCH   1  19
TORSDOF 5
ENDMDL
MODEL 4
REMARK VINA RESULT:      -6.8      2.558      6.187
REMARK  5 active torsions:
REMARK  status: ('A' for Active; 'I' for Inactive)
REMARK    1  A    between atoms: C_4  and  S_1 
REMARK    2  A    between atoms: N_5  and  S_1 
REMARK       I    between atoms: N_2  and  C_3 
REMARK    3  A    between atoms: C_3  and  C_12 
REMARK    4  A    between atoms: C_19  and  N_5 
REMARK    5  A    between atoms: C_20  and  C_19 
ROOT
ATOM      1  C   UNL d   1      50.124  34.649  53.025  0.00  0.00     0.057 A 
ATOM      2  C   UNL d   1      50.808  34.852  52.607  0.00  0.00     0.005 A 
ATOM      3  C   UNL d   1      50.031  33.887  53.318  0.00  0.00     0.005 A 
ATOM      4  C   UNL d   1      51.306  33.525  52.779  0.00  0.00     0.020 A 
ATOM      5  C   UNL d   1      51.392  34.291  52.488  0.00  0.00     0.002 A 
ATOM      6  C   UNL d   1      50.622  33.326  53.195  0.00  0.00     0.002 A 
ENDROOT
BRANCH   4   7
ATOM      7  C   UNL d   1      51.895  32.962  52.657  0.00  0.00     0.112 C 
BRANCH   7   8
ATOM      8  N   UNL d   1      52.480  32.846  53.235  0.00  0.00    -0.157 NA
BRANCH   8   9
ATOM      9  S   UNL d   1      52.868  32.112  53.285  0.00  0.00     0.285 S 
ATOM     10  O   UNL d   1      53.122  32.294  54.056  0.00  0.00    -0.198 OA
ATOM     11  O   UNL d   1      52.616  31.925  52.509  0.00  0.00    -0.198 OA
BRANCH   9  12
ATOM     12  C   UNL d   1      53.258  31.374  53.331  0.00  0.00     0.106 A 
ATOM     13  C   UNL d   1      52.830  30.689  53.452  0.00  0.00     0.024 A 
ATOM     14  C   UNL d   1      53.215  29.964  53.497  0.00  0.00     0.059 A 
ATOM     15 CL   UNL d   1      52.788  29.267  53.619  0.00  0.00    -0.082 Cl
ATOM     16  C   UNL d   1      54.036  29.924  53.419  0.00  0.00     0.011 A 
ATOM     17  C   UNL d   1      54.461  30.616  53.298  0.00  0.00     0.002 A 
ATOM     18  C   UNL d   1      54.074  31.346  53.253  0.00  0.00     0.013 A 
ENDBRANCH   9  12
ENDBRANCH   8   9
ENDBRANCH   7   8
ENDBRANCH   4   7
BRANCH   1  19
ATOM     19  C   UNL d   1      49.522  35.217  53.151  0.00  0.00     0.265 C 
ATOM     20  N   UNL d   1      48.916  35.307  52.593  0.00  0.00    -0.268 N 
ATOM     21  C   UNL d   1      48.906  34.835  51.914  0.00  0.00     0.108 A 
ATOM     22  C   UNL d   1      48.323  35.868  52.720  0.00  0.00     0.108 A 
ATOM     23  C   UNL d   1      48.295  34.927  51.354  0.00  0.00     0.118 A 
ATOM     24  C   UNL d   1      48.285  34.455  50.672  0.00  0.00     0.028 C 
ATOM     25  O   UNL d   1      47.704  35.488  51.482  0.00  0.00    -0.304 OA
ATOM     26  C   UNL d   1      47.709  35.962  52.160  0.00  0.00     0.118 A 
ATOM     27  C   UNL d   1      47.113  36.525  52.284  0.00  0.00     0.028 C 
ATOM     28  O   UNL d   1      49.536  35.688  53.834  0.00  0.00    -0.267 OA
ENDBRANCH   1  19
TORSDOF 5
ENDMDL
