MODEL 1
REMARK VINA RESULT:      -5.1      0.000      0.000
REMARK  4 active torsions:
REMARK  status: ('A' for Active; 'I' for Inactive)
REMARK    1  A    between atoms: C_3  and  C_1 
REMARK    2  A    between atoms: C_2  and  C_3 
REMARK    3  A    between atoms: C_6  and  C_2 
REMARK    4  A    between atoms: C_16  and  C_6 
ROOT
ATOM      1  C   UNL d   1     -42.436-122.835 -49.636  0.00  0.00     0.119 A 
ATOM      2  C   UNL d   1     -42.004-123.487 -49.389  0.00  0.00     0.119 A 
ATOM      3  O   UNL d   1     -43.042-122.716 -49.091  0.00  0.00    -0.300 OA
ATOM      4  O   UNL d   1     -42.337-123.773 -48.693  0.00  0.00    -0.300 OA
ATOM      5  C   UNL d   1     -42.985-123.289 -48.511  0.00  0.00     0.304 A 
ATOM      6  C   UNL d   1     -42.223-122.434 -50.326  0.00  0.00     0.026 A 
ATOM      7  C   UNL d   1     -41.564-122.694 -50.773  0.00  0.00     0.002 A 
ATOM      8  C   UNL d   1     -41.344-123.747 -49.835  0.00  0.00     0.026 A 
ATOM      9  C   UNL d   1     -41.123-123.352 -50.526  0.00  0.00     0.002 A 
ENDROOT
BRANCH   7  10
ATOM     10  C   UNL d   1     -41.334-122.293 -51.480  0.00  0.00     0.003 C 
BRANCH  10  11
ATOM     11  C   UNL d   1     -41.413-122.687 -52.204  0.00  0.00     0.043 C 
BRANCH  11  12
ATOM     12  C   UNL d   1     -41.322-122.262 -52.904  0.00  0.00     0.202 C 
ATOM     13  O   UNL d   1     -41.123-121.463 -52.875  0.00  0.00    -0.286 OA
BRANCH  12  14
ATOM     14  C   UNL d   1     -41.428-122.629 -53.634  0.00  0.00     0.068 A 
ATOM     15  S   UNL d   1     -41.250-123.395 -53.905  0.00  0.00    -0.083 SA
ATOM     16  C   UNL d   1     -41.482-123.443 -54.686  0.00  0.00     0.035 A 
ATOM     17  C   UNL d   1     -41.797-122.727 -54.901  0.00  0.00     0.008 A 
ATOM     18  C   UNL d   1     -41.769-122.219 -54.263  0.00  0.00     0.010 A 
ENDBRANCH  12  14
ENDBRANCH  11  12
ENDBRANCH  10  11
ENDBRANCH   7  10
TORSDOF 4
ENDMDL
MODEL 2
REMARK VINA RESULT:      -3.0      1.059      1.470
REMARK  4 active torsions:
REMARK  status: ('A' for Active; 'I' for Inactive)
REMARK    1  A    between atoms: C_3  and  C_1 
REMARK    2  A    between atoms: C_2  and  C_3 
REMARK    3  A    between atoms: C_6  and  C_2 
REMARK    4  A    between atoms: C_16  and  C_6 
ROOT
ATOM      1  C   UNL d   1     -42.446-122.951 -48.161  0.00  0.00     0.119 A 
ATOM      2  C   UNL d   1     -41.855-123.465 -47.912  0.00  0.00     0.119 A 
ATOM      3  O   UNL d   1     -43.017-122.925 -47.568  0.00  0.00    -0.300 OA
ATOM      4  O   UNL d   1     -42.057-123.756 -47.170  0.00  0.00    -0.300 OA
ATOM      5  C   UNL d   1     -42.784-123.416 -46.959  0.00  0.00     0.304 A 
ATOM      6  C   UNL d   1     -42.387-122.575 -48.893  0.00  0.00     0.026 A 
ATOM      7  C   UNL d   1     -41.722-122.718 -49.383  0.00  0.00     0.002 A 
ATOM      8  C   UNL d   1     -41.191-123.608 -48.403  0.00  0.00     0.026 A 
ATOM      9  C   UNL d   1     -41.123-123.237 -49.137  0.00  0.00     0.002 A 
ENDROOT
BRANCH   7  10
ATOM     10  C   UNL d   1     -41.648-122.341 -50.136  0.00  0.00     0.003 C 
BRANCH  10  11
ATOM     11  C   UNL d   1     -41.570-122.812 -50.811  0.00  0.00     0.043 C 
BRANCH  11  12
ATOM     12  C   UNL d   1     -41.571-122.453 -51.553  0.00  0.00     0.202 C 
ATOM     13  O   UNL d   1     -41.732-121.648 -51.618  0.00  0.00    -0.286 OA
BRANCH  12  14
ATOM     14  C   UNL d   1     -41.413-122.892 -52.232  0.00  0.00     0.068 A 
ATOM     15  S   UNL d   1     -41.218-123.693 -52.346  0.00  0.00    -0.083 SA
ATOM     16  C   UNL d   1     -41.123-123.815 -53.147  0.00  0.00     0.035 A 
ATOM     17  C   UNL d   1     -41.254-123.110 -53.528  0.00  0.00     0.008 A 
ATOM     18  C   UNL d   1     -41.433-122.536 -52.975  0.00  0.00     0.010 A 
ENDBRANCH  12  14
ENDBRANCH  11  12
ENDBRANCH  10  11
ENDBRANCH   7  10
TORSDOF 4
ENDMDL
