MODEL 1
REMARK VINA RESULT:      -5.9      0.000      0.000
REMARK  5 active torsions:
REMARK  status: ('A' for Active; 'I' for Inactive)
REMARK    1  A    between atoms: N_2  and  S_1 
REMARK    2  A    between atoms: C_6  and  S_1 
REMARK    3  A    between atoms: C_3  and  N_2 
REMARK    4  A    between atoms: N_7  and  C_3 
REMARK    5  A    between atoms: C_9  and  N_7 
ROOT
ATOM      1  N   UNL d   1     -41.728-122.693 -51.759  0.00  0.00    -0.128 NA
ENDROOT
BRANCH   1   2
ATOM      2  S   UNL d   1     -41.810-122.787 -50.939  0.00  0.00     0.287 S 
ATOM      3  O   UNL d   1     -41.264-122.170 -50.803  0.00  0.00    -0.198 OA
ATOM      4  O   UNL d   1     -42.355-123.402 -51.053  0.00  0.00    -0.198 OA
BRANCH   2   5
ATOM      5  C   UNL d   1     -41.892-122.882 -50.113  0.00  0.00     0.105 A 
ATOM      6  C   UNL d   1     -41.253-123.166 -49.660  0.00  0.00     0.013 A 
ATOM      7  C   UNL d   1     -41.334-123.260 -48.847  0.00  0.00     0.001 A 
ATOM      8  C   UNL d   1     -42.045-123.072 -48.479  0.00  0.00     0.000 A 
ATOM      9  C   UNL d   1     -42.685-122.789 -48.925  0.00  0.00     0.001 A 
ATOM     10  C   UNL d   1     -42.603-122.695 -49.741  0.00  0.00     0.013 A 
ENDBRANCH   2   5
ENDBRANCH   1   2
BRANCH   1  11
ATOM     11  C   UNL d   1     -41.350-122.901 -52.476  0.00  0.00     0.232 C 
ATOM     12  S   UNL d   1     -41.208-123.695 -52.646  0.00  0.00    -0.036 SA
BRANCH  11  13
ATOM     13  N   UNL d   1     -41.123-122.310 -53.006  0.00  0.00    -0.217 NA
BRANCH  13  14
ATOM     14  C   UNL d   1     -41.445-122.292 -53.767  0.00  0.00     0.084 A 
ATOM     15  C   UNL d   1     -41.127-122.766 -54.359  0.00  0.00     0.019 A 
ATOM     16  C   UNL d   1     -41.445-122.750 -55.115  0.00  0.00     0.002 A 
ATOM     17  C   UNL d   1     -42.084-122.261 -55.286  0.00  0.00     0.000 A 
ATOM     18  C   UNL d   1     -42.405-121.784 -54.693  0.00  0.00     0.002 A 
ATOM     19  C   UNL d   1     -42.088-121.798 -53.932  0.00  0.00     0.019 A 
ENDBRANCH  13  14
ENDBRANCH  11  13
ENDBRANCH   1  11
TORSDOF 5
ENDMDL
MODEL 2
REMARK VINA RESULT:      -5.9      0.902      4.558
REMARK  5 active torsions:
REMARK  status: ('A' for Active; 'I' for Inactive)
REMARK    1  A    between atoms: N_2  and  S_1 
REMARK    2  A    between atoms: C_6  and  S_1 
REMARK    3  A    between atoms: C_3  and  N_2 
REMARK    4  A    between atoms: N_7  and  C_3 
REMARK    5  A    between atoms: C_9  and  N_7 
ROOT
ATOM      1  N   UNL d   1     -41.384-122.794 -52.245  0.00  0.00    -0.128 NA
ENDROOT
BRANCH   1   2
ATOM      2  S   UNL d   1     -41.520-122.629 -53.047  0.00  0.00     0.287 S 
ATOM      3  O   UNL d   1     -41.864-123.382 -53.154  0.00  0.00    -0.198 OA
ATOM      4  O   UNL d   1     -41.181-121.876 -52.960  0.00  0.00    -0.198 OA
BRANCH   2   5
ATOM      5  C   UNL d   1     -41.657-122.463 -53.854  0.00  0.00     0.105 A 
ATOM      6  C   UNL d   1     -42.276-121.951 -54.075  0.00  0.00     0.013 A 
ATOM      7  C   UNL d   1     -42.411-121.787 -54.871  0.00  0.00     0.001 A 
ATOM      8  C   UNL d   1     -41.935-122.129 -55.448  0.00  0.00     0.000 A 
ATOM      9  C   UNL d   1     -41.318-122.639 -55.233  0.00  0.00     0.001 A 
ATOM     10  C   UNL d   1     -41.182-122.803 -54.436  0.00  0.00     0.013 A 
ENDBRANCH   2   5
ENDBRANCH   1   2
BRANCH   1  11
ATOM     11  C   UNL d   1     -41.545-122.640 -51.439  0.00  0.00     0.232 C 
ATOM     12  S   UNL d   1     -41.149-122.026 -51.054  0.00  0.00    -0.036 SA
BRANCH  11  13
ATOM     13  N   UNL d   1     -42.098-123.102 -51.035  0.00  0.00    -0.217 NA
BRANCH  13  14
ATOM     14  C   UNL d   1     -42.051-123.177 -50.213  0.00  0.00     0.084 A 
ATOM     15  C   UNL d   1     -41.485-123.670 -49.877  0.00  0.00     0.019 A 
ATOM     16  C   UNL d   1     -41.437-123.745 -49.062  0.00  0.00     0.002 A 
ATOM     17  C   UNL d   1     -41.955-123.330 -48.576  0.00  0.00     0.000 A 
ATOM     18  C   UNL d   1     -42.524-122.835 -48.911  0.00  0.00     0.002 A 
ATOM     19  C   UNL d   1     -42.575-122.757 -49.731  0.00  0.00     0.019 A 
ENDBRANCH  13  14
ENDBRANCH  11  13
ENDBRANCH   1  11
TORSDOF 5
ENDMDL
