MODEL 1
REMARK VINA RESULT:      53.4      0.000      0.000
REMARK  5 active torsions:
REMARK  status: ('A' for Active; 'I' for Inactive)
REMARK    1  A    between atoms: C_7  and  C_1 
REMARK    2  A    between atoms: C_8  and  C_2 
REMARK    3  A    between atoms: O_22  and  C_8 
REMARK    4  A    between atoms: C_24  and  C_14 
REMARK    5  A    between atoms: C_27  and  O_22 
ROOT
ATOM      1  C   UNL d   1      13.830  13.760  -3.287  0.00  0.00     0.067 A 
ATOM      2  C   UNL d   1      13.587  12.977  -3.382  0.00  0.00     0.166 A 
ATOM      3  C   UNL d   1      14.220  13.989  -2.592  0.00  0.00     0.200 A 
ATOM      4  C   UNL d   1      14.364  13.438  -1.997  0.00  0.00     0.062 A 
ATOM      5  O   UNL d   1      13.734  12.424  -2.781  0.00  0.00    -0.301 OA
ATOM      6  C   UNL d   1      14.121  12.655  -2.092  0.00  0.00     0.106 A 
ATOM      7  C   UNL d   1      14.751  13.669  -1.309  0.00  0.00     0.008 A 
ATOM      8  C   UNL d   1      14.265  12.104  -1.498  0.00  0.00     0.067 A 
ATOM      9  C   UNL d   1      14.652  12.335  -0.809  0.00  0.00     0.198 A 
ATOM     10  C   UNL d   1      14.895  13.118  -0.714  0.00  0.00     0.039 A 
ATOM     11  O   UNL d   1      14.463  14.772  -2.497  0.00  0.00    -0.286 OA
ATOM     12  O   UNL d   1      14.801  11.780  -0.203  0.00  0.00    -0.286 OA
ENDROOT
BRANCH   1  13
ATOM     13  C   UNL d   1      13.686  14.311  -3.882  0.00  0.00     0.007 A 
ATOM     14  C   UNL d   1      14.313  14.615  -4.327  0.00  0.00     0.027 A 
ATOM     15  C   UNL d   1      14.169  15.165  -4.921  0.00  0.00     0.123 A 
ATOM     16  O   UNL d   1      14.799  15.465  -5.362  0.00  0.00    -0.301 OA
ATOM     17  C   UNL d   1      13.398  15.415  -5.073  0.00  0.00     0.123 A 
ATOM     18  C   UNL d   1      14.646  16.027  -5.968  0.00  0.00     0.149 A 
ATOM     19  C   UNL d   1      13.878  16.282  -6.126  0.00  0.00     0.149 A 
ATOM     20  O   UNL d   1      13.249  15.976  -5.678  0.00  0.00    -0.301 OA
ATOM     21  C   UNL d   1      12.769  15.112  -4.628  0.00  0.00     0.027 A 
ATOM     22  C   UNL d   1      12.915  14.561  -4.034  0.00  0.00     0.002 A 
ENDBRANCH   1  13
BRANCH   2  23
ATOM     23  C   UNL d   1      13.199  12.747  -4.075  0.00  0.00     0.323 C 
ATOM     24  O   UNL d   1      12.771  13.301  -4.511  0.00  0.00    -0.257 OA
BRANCH  23  25
ATOM     25  O   UNL d   1      13.239  11.964  -4.328  0.00  0.00    -0.270 OA
BRANCH  25  26
ATOM     26  C   UNL d   1      13.118  11.784  -5.122  0.00  0.00     0.126 C 
ATOM     27  C   UNL d   1      13.730  11.891  -5.664  0.00  0.00     0.029 C 
ENDBRANCH  25  26
ENDBRANCH  23  25
ENDBRANCH   2  23
BRANCH  10  28
ATOM     28  C   UNL d   1      15.284  13.348  -0.021  0.00  0.00     0.003 C 
ATOM     29  C   UNL d   1      15.772  14.013  -0.016  0.00  0.00     0.000 C 
ENDBRANCH  10  28
TORSDOF 5
ENDMDL
