MODEL 1
REMARK VINA RESULT:       5.4      0.000      0.000
REMARK  3 active torsions:
REMARK  status: ('A' for Active; 'I' for Inactive)
REMARK    1  A    between atoms: C_7  and  N_1 
REMARK    2  A    between atoms: C_11  and  C_4 
REMARK    3  A    between atoms: C_9  and  C_7 
ROOT
ATOM      1  N   UNL d   1     -41.529-122.545 -51.067  0.00  0.00    -0.252 N 
ATOM      2  C   UNL d   1     -41.435-123.393 -51.060  0.00  0.00     0.354 A 
ATOM      3  C   UNL d   1     -41.379-122.592 -52.497  0.00  0.00     0.035 A 
ATOM      4  C   UNL d   1     -41.500-122.154 -51.791  0.00  0.00     0.070 A 
ATOM      5  N   UNL d   1     -41.318-123.801 -51.771  0.00  0.00    -0.192 NA
ATOM      6  C   UNL d   1     -41.288-123.409 -52.495  0.00  0.00     0.087 A 
ATOM      7  C   UNL d   1     -41.356-122.169 -53.202  0.00  0.00     0.010 A 
ATOM      8  O   UNL d   1     -41.459-123.817 -50.355  0.00  0.00    -0.244 OA
ATOM      9  C   UNL d   1     -41.175-123.816 -53.167  0.00  0.00     0.020 A 
ATOM     10  C   UNL d   1     -41.238-122.568 -53.918  0.00  0.00     0.035 A 
ATOM     11  C   UNL d   1     -41.144-123.431 -53.895  0.00  0.00     0.008 A 
ATOM     12 BR   UNL d   1     -41.214-122.132 -54.644  0.00  0.00    -0.049 Br
ENDROOT
BRANCH   4  13
ATOM     13  C   UNL d   1     -41.583-121.374 -51.835  0.00  0.00     0.016 A 
ATOM     14  C   UNL d   1     -41.124-120.888 -51.359  0.00  0.00     0.001 A 
ATOM     15  C   UNL d   1     -41.201-120.063 -51.394  0.00  0.00     0.000 A 
ATOM     16  C   UNL d   1     -41.752-119.719 -51.920  0.00  0.00     0.000 A 
ATOM     17  C   UNL d   1     -42.217-120.201 -52.401  0.00  0.00     0.000 A 
ATOM     18  C   UNL d   1     -42.139-120.995 -52.363  0.00  0.00     0.001 A 
ENDBRANCH   4  13
BRANCH   1  19
ATOM     19  C   UNL d   1     -41.650-122.102 -50.368  0.00  0.00     0.155 C 
BRANCH  19  20
ATOM     20  C   UNL d   1     -42.101-122.429 -49.757  0.00  0.00     0.230 C 
ATOM     21  O   UNL d   1     -42.944-122.379 -49.796  0.00  0.00    -0.643 OA
ATOM     22  O   UNL d   1     -41.715-122.791 -49.132  0.00  0.00    -0.643 OA
ENDBRANCH  19  20
ENDBRANCH   1  19
TORSDOF 3
ENDMDL
MODEL 2
REMARK VINA RESULT:       6.2      2.415      3.731
REMARK  3 active torsions:
REMARK  status: ('A' for Active; 'I' for Inactive)
REMARK    1  A    between atoms: C_7  and  N_1 
REMARK    2  A    between atoms: C_11  and  C_4 
REMARK    3  A    between atoms: C_9  and  C_7 
ROOT
ATOM      1  N   UNL d   1     -42.224-123.034 -50.810  0.00  0.00    -0.252 N 
ATOM      2  C   UNL d   1     -41.493-123.474 -50.827  0.00  0.00     0.354 A 
ATOM      3  C   UNL d   1     -42.193-123.138 -49.376  0.00  0.00     0.035 A 
ATOM      4  C   UNL d   1     -42.566-122.872 -50.078  0.00  0.00     0.070 A 
ATOM      5  N   UNL d   1     -41.146-123.725 -50.118  0.00  0.00    -0.192 NA
ATOM      6  C   UNL d   1     -41.489-123.562 -49.387  0.00  0.00     0.087 A 
ATOM      7  C   UNL d   1     -42.563-122.958 -48.663  0.00  0.00     0.010 A 
ATOM      8  O   UNL d   1     -41.123-123.655 -51.540  0.00  0.00    -0.244 OA
ATOM      9  C   UNL d   1     -41.142-123.811 -48.718  0.00  0.00     0.020 A 
ATOM     10  C   UNL d   1     -42.223-123.205 -47.949  0.00  0.00     0.035 A 
ATOM     11  C   UNL d   1     -41.479-123.652 -47.982  0.00  0.00     0.008 A 
ATOM     12 BR   UNL d   1     -42.604-123.019 -47.215  0.00  0.00    -0.049 Br
ENDROOT
BRANCH   4  13
ATOM     13  C   UNL d   1     -43.238-122.469 -50.026  0.00  0.00     0.016 A 
ATOM     14  C   UNL d   1     -43.948-122.871 -49.937  0.00  0.00     0.001 A 
ATOM     15  C   UNL d   1     -44.666-122.459 -49.880  0.00  0.00     0.000 A 
ATOM     16  C   UNL d   1     -44.670-121.623 -49.913  0.00  0.00     0.000 A 
ATOM     17  C   UNL d   1     -43.960-121.213 -50.002  0.00  0.00     0.000 A 
ATOM     18  C   UNL d   1     -43.272-121.615 -50.057  0.00  0.00     0.001 A 
ENDBRANCH   4  13
BRANCH   1  19
ATOM     19  C   UNL d   1     -42.601-122.765 -51.506  0.00  0.00     0.155 C 
BRANCH  19  20
ATOM     20  C   UNL d   1     -42.148-122.639 -52.186  0.00  0.00     0.230 C 
ATOM     21  O   UNL d   1     -42.139-123.230 -52.791  0.00  0.00    -0.643 OA
ATOM     22  O   UNL d   1     -41.722-121.943 -52.253  0.00  0.00    -0.643 OA
ENDBRANCH  19  20
ENDBRANCH   1  19
TORSDOF 3
ENDMDL
MODEL 3
REMARK VINA RESULT:       6.9      2.097      2.982
REMARK  3 active torsions:
REMARK  status: ('A' for Active; 'I' for Inactive)
REMARK    1  A    between atoms: C_7  and  N_1 
REMARK    2  A    between atoms: C_11  and  C_4 
REMARK    3  A    between atoms: C_9  and  C_7 
ROOT
ATOM      1  N   UNL d   1     -41.425-122.559 -53.311  0.00  0.00    -0.252 N 
ATOM      2  C   UNL d   1     -41.269-123.398 -53.299  0.00  0.00     0.354 A 
ATOM      3  C   UNL d   1     -41.510-122.607 -51.876  0.00  0.00     0.035 A 
ATOM      4  C   UNL d   1     -41.544-122.172 -52.594  0.00  0.00     0.070 A 
ATOM      5  N   UNL d   1     -41.242-123.801 -52.577  0.00  0.00    -0.192 NA
ATOM      6  C   UNL d   1     -41.361-123.415 -51.859  0.00  0.00     0.087 A 
ATOM      7  C   UNL d   1     -41.634-122.188 -51.179  0.00  0.00     0.010 A 
ATOM      8  O   UNL d   1     -41.145-123.817 -53.997  0.00  0.00    -0.244 OA
ATOM      9  C   UNL d   1     -41.331-123.817 -51.177  0.00  0.00     0.020 A 
ATOM     10  C   UNL d   1     -41.608-122.584 -50.452  0.00  0.00     0.035 A 
ATOM     11  C   UNL d   1     -41.449-123.437 -50.455  0.00  0.00     0.008 A 
ATOM     12 BR   UNL d   1     -41.735-122.152 -49.733  0.00  0.00    -0.049 Br
ENDROOT
BRANCH   4  13
ATOM     13  C   UNL d   1     -41.689-121.401 -52.568  0.00  0.00     0.016 A 
ATOM     14  C   UNL d   1     -42.410-121.112 -52.834  0.00  0.00     0.001 A 
ATOM     15  C   UNL d   1     -42.577-120.300 -52.813  0.00  0.00     0.000 A 
ATOM     16  C   UNL d   1     -42.006-119.766 -52.517  0.00  0.00     0.000 A 
ATOM     17  C   UNL d   1     -41.279-120.049 -52.248  0.00  0.00     0.000 A 
ATOM     18  C   UNL d   1     -41.123-120.832 -52.271  0.00  0.00     0.001 A 
ENDBRANCH   4  13
BRANCH   1  19
ATOM     19  C   UNL d   1     -41.460-122.120 -54.022  0.00  0.00     0.155 C 
BRANCH  19  20
ATOM     20  C   UNL d   1     -41.682-122.503 -54.721  0.00  0.00     0.230 C 
ATOM     21  O   UNL d   1     -42.408-122.936 -54.741  0.00  0.00    -0.643 OA
ATOM     22  O   UNL d   1     -41.189-122.449 -55.373  0.00  0.00    -0.643 OA
ENDBRANCH  19  20
ENDBRANCH   1  19
TORSDOF 3
ENDMDL
MODEL 4
REMARK VINA RESULT:       7.2      0.981      2.550
REMARK  3 active torsions:
REMARK  status: ('A' for Active; 'I' for Inactive)
REMARK    1  A    between atoms: C_7  and  N_1 
REMARK    2  A    between atoms: C_11  and  C_4 
REMARK    3  A    between atoms: C_9  and  C_7 
ROOT
ATOM      1  N   UNL d   1     -41.851-122.613 -50.671  0.00  0.00    -0.252 N 
ATOM      2  C   UNL d   1     -41.795-122.066 -50.018  0.00  0.00     0.354 A 
ATOM      3  C   UNL d   1     -41.546-121.517 -51.550  0.00  0.00     0.035 A 
ATOM      4  C   UNL d   1     -41.724-122.328 -51.433  0.00  0.00     0.070 A 
ATOM      5  N   UNL d   1     -41.617-121.271 -50.162  0.00  0.00    -0.192 NA
ATOM      6  C   UNL d   1     -41.491-120.985 -50.925  0.00  0.00     0.087 A 
ATOM      7  C   UNL d   1     -41.425-121.267 -52.325  0.00  0.00     0.010 A 
ATOM      8  O   UNL d   1     -41.915-122.316 -49.243  0.00  0.00    -0.244 OA
ATOM      9  C   UNL d   1     -41.321-120.220 -51.044  0.00  0.00     0.020 A 
ATOM     10  C   UNL d   1     -41.247-120.473 -52.477  0.00  0.00     0.035 A 
ATOM     11  C   UNL d   1     -41.193-119.927 -51.804  0.00  0.00     0.008 A 
ATOM     12 BR   UNL d   1     -41.123-120.215 -53.276  0.00  0.00    -0.049 Br
ENDROOT
BRANCH   4  13
ATOM     13  C   UNL d   1     -41.768-122.804 -52.056  0.00  0.00     0.016 A 
ATOM     14  C   UNL d   1     -41.135-123.291 -52.243  0.00  0.00     0.001 A 
ATOM     15  C   UNL d   1     -41.168-123.799 -52.899  0.00  0.00     0.000 A 
ATOM     16  C   UNL d   1     -41.853-123.816 -53.377  0.00  0.00     0.000 A 
ATOM     17  C   UNL d   1     -42.493-123.329 -53.196  0.00  0.00     0.000 A 
ATOM     18  C   UNL d   1     -42.457-122.842 -52.564  0.00  0.00     0.001 A 
ENDBRANCH   4  13
BRANCH   1  19
ATOM     19  C   UNL d   1     -42.029-123.423 -50.562  0.00  0.00     0.155 C 
BRANCH  19  20
ATOM     20  C   UNL d   1     -42.445-123.657 -49.887  0.00  0.00     0.230 C 
ATOM     21  O   UNL d   1     -42.018-123.817 -49.175  0.00  0.00    -0.643 OA
ATOM     22  O   UNL d   1     -43.260-123.725 -49.930  0.00  0.00    -0.643 OA
ENDBRANCH  19  20
ENDBRANCH   1  19
TORSDOF 3
ENDMDL
