MODEL 1
REMARK VINA RESULT:      -8.3      0.000      0.000
REMARK  2 active torsions:
REMARK  status: ('A' for Active; 'I' for Inactive)
REMARK    1  A    between atoms: N_2  and  S_1 
REMARK    2  A    between atoms: C_8  and  S_1 
ROOT
ATOM      1  N   UNL d   1     -47.879  13.541  22.764  0.00  0.00    -0.231 N 
ATOM      2  C   UNL d   1     -47.212  14.011  22.695  0.00  0.00     0.092 A 
ATOM      3  C   UNL d   1     -47.641  12.815  23.077  0.00  0.00     0.075 A 
ATOM      4  C   UNL d   1     -46.561  13.583  22.961  0.00  0.00     0.021 A 
ATOM      5  C   UNL d   1     -46.824  12.841  23.199  0.00  0.00     0.018 A 
ATOM      6  C   UNL d   1     -48.065  12.136  23.265  0.00  0.00     0.018 A 
ATOM      7  C   UNL d   1     -46.434  12.188  23.508  0.00  0.00     0.002 A 
ATOM      8  C   UNL d   1     -47.674  11.478  23.576  0.00  0.00     0.002 A 
ATOM      9  C   UNL d   1     -46.856  11.503  23.698  0.00  0.00     0.000 A 
ENDROOT
BRANCH   1  10
ATOM     10  S   UNL d   1     -48.649  13.754  22.560  0.00  0.00     0.271 S 
ATOM     11  O   UNL d   1     -48.779  14.014  23.337  0.00  0.00    -0.200 OA
ATOM     12  O   UNL d   1     -48.516  13.493  21.788  0.00  0.00    -0.200 OA
BRANCH  10  13
ATOM     13  C   UNL d   1     -49.422  13.966  22.352  0.00  0.00     0.104 A 
ATOM     14  C   UNL d   1     -49.782  13.631  21.695  0.00  0.00     0.013 A 
ATOM     15  C   UNL d   1     -50.544  13.840  21.491  0.00  0.00     0.001 A 
ATOM     16  C   UNL d   1     -50.958  14.394  21.947  0.00  0.00     0.000 A 
ATOM     17  C   UNL d   1     -50.604  14.733  22.604  0.00  0.00     0.001 A 
ATOM     18  C   UNL d   1     -49.832  14.520  22.810  0.00  0.00     0.013 A 
ENDBRANCH  10  13
ENDBRANCH   1  10
TORSDOF 2
ENDMDL
MODEL 2
REMARK VINA RESULT:      -8.2      1.207      3.195
REMARK  2 active torsions:
REMARK  status: ('A' for Active; 'I' for Inactive)
REMARK    1  A    between atoms: N_2  and  S_1 
REMARK    2  A    between atoms: C_8  and  S_1 
ROOT
ATOM      1  N   UNL d   1     -49.119  13.323  22.155  0.00  0.00    -0.231 N 
ATOM      2  C   UNL d   1     -49.531  13.603  21.506  0.00  0.00     0.092 A 
ATOM      3  C   UNL d   1     -49.652  12.907  22.629  0.00  0.00     0.075 A 
ATOM      4  C   UNL d   1     -50.316  13.365  21.571  0.00  0.00     0.021 A 
ATOM      5  C   UNL d   1     -50.395  12.933  22.267  0.00  0.00     0.018 A 
ATOM      6  C   UNL d   1     -49.554  12.509  23.342  0.00  0.00     0.018 A 
ATOM      7  C   UNL d   1     -51.037  12.562  22.619  0.00  0.00     0.002 A 
ATOM      8  C   UNL d   1     -50.200  12.135  23.698  0.00  0.00     0.002 A 
ATOM      9  C   UNL d   1     -50.943  12.161  23.336  0.00  0.00     0.000 A 
ENDROOT
BRANCH   1  10
ATOM     10  S   UNL d   1     -48.316  13.434  22.309  0.00  0.00     0.271 S 
ATOM     11  O   UNL d   1     -48.500  14.108  22.756  0.00  0.00    -0.200 OA
ATOM     12  O   UNL d   1     -48.137  12.763  21.863  0.00  0.00    -0.200 OA
BRANCH  10  13
ATOM     13  C   UNL d   1     -47.510  13.544  22.463  0.00  0.00     0.104 A 
ATOM     14  C   UNL d   1     -47.234  14.267  22.736  0.00  0.00     0.013 A 
ATOM     15  C   UNL d   1     -46.439  14.374  22.887  0.00  0.00     0.001 A 
ATOM     16  C   UNL d   1     -45.906  13.752  22.764  0.00  0.00     0.000 A 
ATOM     17  C   UNL d   1     -46.176  13.028  22.492  0.00  0.00     0.001 A 
ATOM     18  C   UNL d   1     -46.981  12.920  22.339  0.00  0.00     0.013 A 
ENDBRANCH  10  13
ENDBRANCH   1  10
TORSDOF 2
ENDMDL
MODEL 3
REMARK VINA RESULT:      -8.1      0.814      3.474
REMARK  2 active torsions:
REMARK  status: ('A' for Active; 'I' for Inactive)
REMARK    1  A    between atoms: N_2  and  S_1 
REMARK    2  A    between atoms: C_8  and  S_1 
ROOT
ATOM      1  N   UNL d   1     -49.043  14.440  22.824  0.00  0.00    -0.231 N 
ATOM      2  C   UNL d   1     -49.312  15.082  23.254  0.00  0.00     0.092 A 
ATOM      3  C   UNL d   1     -49.660  14.191  22.335  0.00  0.00     0.075 A 
ATOM      4  C   UNL d   1     -50.092  15.235  23.037  0.00  0.00     0.021 A 
ATOM      5  C   UNL d   1     -50.310  14.684  22.467  0.00  0.00     0.018 A 
ATOM      6  C   UNL d   1     -49.710  13.580  21.788  0.00  0.00     0.018 A 
ATOM      7  C   UNL d   1     -51.008  14.563  22.052  0.00  0.00     0.002 A 
ATOM      8  C   UNL d   1     -50.413  13.457  21.369  0.00  0.00     0.002 A 
ATOM      9  C   UNL d   1     -51.063  13.950  21.501  0.00  0.00     0.000 A 
ENDROOT
BRANCH   1  10
ATOM     10  S   UNL d   1     -48.292  14.102  22.869  0.00  0.00     0.271 S 
ATOM     11  O   UNL d   1     -48.583  13.536  23.400  0.00  0.00    -0.200 OA
ATOM     12  O   UNL d   1     -48.006  14.668  22.340  0.00  0.00    -0.200 OA
BRANCH  10  13
ATOM     13  C   UNL d   1     -47.537  13.765  22.913  0.00  0.00     0.104 A 
ATOM     14  C   UNL d   1     -47.431  13.029  23.260  0.00  0.00     0.013 A 
ATOM     15  C   UNL d   1     -46.686  12.697  23.302  0.00  0.00     0.001 A 
ATOM     16  C   UNL d   1     -46.033  13.103  22.995  0.00  0.00     0.000 A 
ATOM     17  C   UNL d   1     -46.133  13.839  22.647  0.00  0.00     0.001 A 
ATOM     18  C   UNL d   1     -46.887  14.174  22.604  0.00  0.00     0.013 A 
ENDBRANCH  10  13
ENDBRANCH   1  10
TORSDOF 2
ENDMDL
MODEL 4
REMARK VINA RESULT:      -6.3      8.499      9.802
REMARK  2 active torsions:
REMARK  status: ('A' for Active; 'I' for Inactive)
REMARK    1  A    between atoms: N_2  and  S_1 
REMARK    2  A    between atoms: C_8  and  S_1 
ROOT
ATOM      1  N   UNL d   1     -39.893  14.446  18.069  0.00  0.00    -0.231 N 
ATOM      2  C   UNL d   1     -40.148  14.743  17.351  0.00  0.00     0.092 A 
ATOM      3  C   UNL d   1     -39.280  13.916  17.918  0.00  0.00     0.075 A 
ATOM      4  C   UNL d   1     -39.698  14.401  16.752  0.00  0.00     0.021 A 
ATOM      5  C   UNL d   1     -39.158  13.888  17.100  0.00  0.00     0.018 A 
ATOM      6  C   UNL d   1     -38.818  13.457  18.419  0.00  0.00     0.018 A 
ATOM      7  C   UNL d   1     -38.576  13.401  16.787  0.00  0.00     0.002 A 
ATOM      8  C   UNL d   1     -38.230  12.966  18.106  0.00  0.00     0.002 A 
ATOM      9  C   UNL d   1     -38.109  12.938  17.288  0.00  0.00     0.000 A 
ENDROOT
BRANCH   1  10
ATOM     10  S   UNL d   1     -40.194  14.641  18.812  0.00  0.00     0.271 S 
ATOM     11  O   UNL d   1     -40.745  14.024  18.747  0.00  0.00    -0.200 OA
ATOM     12  O   UNL d   1     -39.645  15.254  18.874  0.00  0.00    -0.200 OA
BRANCH  10  13
ATOM     13  C   UNL d   1     -40.495  14.839  19.558  0.00  0.00     0.104 A 
ATOM     14  C   UNL d   1     -40.885  14.277  20.010  0.00  0.00     0.013 A 
ATOM     15  C   UNL d   1     -41.181  14.473  20.746  0.00  0.00     0.001 A 
ATOM     16  C   UNL d   1     -41.088  15.242  21.039  0.00  0.00     0.000 A 
ATOM     17  C   UNL d   1     -40.698  15.807  20.592  0.00  0.00     0.001 A 
ATOM     18  C   UNL d   1     -40.399  15.608  19.848  0.00  0.00     0.013 A 
ENDBRANCH  10  13
ENDBRANCH   1  10
TORSDOF 2
ENDMDL
MODEL 5
REMARK VINA RESULT:      -6.0      8.694     10.151
REMARK  2 active torsions:
REMARK  status: ('A' for Active; 'I' for Inactive)
REMARK    1  A    between atoms: N_2  and  S_1 
REMARK    2  A    between atoms: C_8  and  S_1 
ROOT
ATOM      1  N   UNL d   1     -40.103  14.987  18.658  0.00  0.00    -0.231 N 
ATOM      2  C   UNL d   1     -40.587  15.597  18.408  0.00  0.00     0.092 A 
ATOM      3  C   UNL d   1     -40.176  14.930  19.478  0.00  0.00     0.075 A 
ATOM      4  C   UNL d   1     -40.962  15.922  19.066  0.00  0.00     0.021 A 
ATOM      5  C   UNL d   1     -40.708  15.510  19.731  0.00  0.00     0.018 A 
ATOM      6  C   UNL d   1     -39.825  14.426  20.025  0.00  0.00     0.018 A 
ATOM      7  C   UNL d   1     -40.888  15.583  20.530  0.00  0.00     0.002 A 
ATOM      8  C   UNL d   1     -40.005  14.498  20.829  0.00  0.00     0.002 A 
ATOM      9  C   UNL d   1     -40.537  15.078  21.082  0.00  0.00     0.000 A 
ENDROOT
BRANCH   1  10
ATOM     10  S   UNL d   1     -39.628  14.513  18.179  0.00  0.00     0.271 S 
ATOM     11  O   UNL d   1     -38.993  15.032  18.302  0.00  0.00    -0.200 OA
ATOM     12  O   UNL d   1     -40.263  13.999  18.058  0.00  0.00    -0.200 OA
BRANCH  10  13
ATOM     13  C   UNL d   1     -39.153  14.036  17.697  0.00  0.00     0.104 A 
ATOM     14  C   UNL d   1     -39.100  13.229  17.836  0.00  0.00     0.013 A 
ATOM     15  C   UNL d   1     -38.632  12.758  17.361  0.00  0.00     0.001 A 
ATOM     16  C   UNL d   1     -38.207  13.094  16.734  0.00  0.00     0.000 A 
ATOM     17  C   UNL d   1     -38.256  13.900  16.590  0.00  0.00     0.001 A 
ATOM     18  C   UNL d   1     -38.731  14.375  17.072  0.00  0.00     0.013 A 
ENDBRANCH  10  13
ENDBRANCH   1  10
TORSDOF 2
ENDMDL
