MODEL 1
REMARK VINA RESULT:      -7.2      0.000      0.000
REMARK  5 active torsions:
REMARK  status: ('A' for Active; 'I' for Inactive)
REMARK    1  A    between atoms: C_6  and  N_1 
REMARK    2  A    between atoms: C_8  and  C_3 
REMARK    3  A    between atoms: C_7  and  C_6 
REMARK    4  A    between atoms: C_9  and  C_7 
REMARK    5  A    between atoms: C_14  and  C_8 
ROOT
ATOM      1  N   UNL d   1     -47.403  12.822  23.347  0.00  0.00    -0.289 N 
ATOM      2  N   UNL d   1     -46.097  12.727  23.049  0.00  0.00    -0.227 NA
ATOM      3  C   UNL d   1     -46.752  12.309  23.341  0.00  0.00     0.148 A 
ATOM      4  C   UNL d   1     -47.151  13.556  23.058  0.00  0.00     0.083 A 
ATOM      5  C   UNL d   1     -46.348  13.500  22.875  0.00  0.00     0.099 A 
ATOM      6  C   UNL d   1     -47.547  14.276  22.936  0.00  0.00     0.019 A 
ATOM      7  C   UNL d   1     -45.942  14.151  22.573  0.00  0.00     0.021 A 
ATOM      8  C   UNL d   1     -47.139  14.923  22.636  0.00  0.00     0.002 A 
ATOM      9  C   UNL d   1     -46.337  14.861  22.454  0.00  0.00     0.002 A 
ENDROOT
BRANCH   1  10
ATOM     10  C   UNL d   1     -48.160  12.637  23.593  0.00  0.00     0.082 C 
BRANCH  10  11
ATOM     11  C   UNL d   1     -48.588  12.372  22.935  0.00  0.00     0.019 C 
BRANCH  11  12
ATOM     12  C   UNL d   1     -49.405  12.293  22.984  0.00  0.00     0.002 A 
ATOM     13  C   UNL d   1     -49.743  11.939  23.650  0.00  0.00     0.000 A 
ATOM     14  C   UNL d   1     -50.563  11.860  23.697  0.00  0.00     0.000 A 
ATOM     15  C   UNL d   1     -51.037  12.133  23.086  0.00  0.00     0.000 A 
ATOM     16  C   UNL d   1     -50.693  12.487  22.423  0.00  0.00     0.000 A 
ATOM     17  C   UNL d   1     -49.882  12.564  22.377  0.00  0.00     0.000 A 
ENDBRANCH  11  12
ENDBRANCH  10  11
ENDBRANCH   1  10
BRANCH   3  18
ATOM     18  C   UNL d   1     -46.752  11.525  23.582  0.00  0.00     0.037 C 
BRANCH  18  19
ATOM     19  C   UNL d   1     -46.036  11.113  23.643  0.00  0.00     0.003 C 
ATOM     20  C   UNL d   1     -46.042  10.298  23.698  0.00  0.00     0.000 C 
ENDBRANCH  18  19
ENDBRANCH   3  18
TORSDOF 5
ENDMDL
MODEL 2
REMARK VINA RESULT:      -7.2      1.701      3.620
REMARK  5 active torsions:
REMARK  status: ('A' for Active; 'I' for Inactive)
REMARK    1  A    between atoms: C_6  and  N_1 
REMARK    2  A    between atoms: C_8  and  C_3 
REMARK    3  A    between atoms: C_7  and  C_6 
REMARK    4  A    between atoms: C_9  and  C_7 
REMARK    5  A    between atoms: C_14  and  C_8 
ROOT
ATOM      1  N   UNL d   1     -49.194  13.707  22.933  0.00  0.00    -0.289 N 
ATOM      2  N   UNL d   1     -50.409  13.563  23.486  0.00  0.00    -0.227 NA
ATOM      3  C   UNL d   1     -49.759  13.151  23.173  0.00  0.00     0.148 A 
ATOM      4  C   UNL d   1     -49.494  14.462  23.097  0.00  0.00     0.083 A 
ATOM      5  C   UNL d   1     -50.241  14.376  23.437  0.00  0.00     0.099 A 
ATOM      6  C   UNL d   1     -49.185  15.225  22.982  0.00  0.00     0.019 A 
ATOM      7  C   UNL d   1     -50.677  15.038  23.661  0.00  0.00     0.021 A 
ATOM      8  C   UNL d   1     -49.623  15.883  23.206  0.00  0.00     0.002 A 
ATOM      9  C   UNL d   1     -50.369  15.790  23.545  0.00  0.00     0.002 A 
ENDROOT
BRANCH   1  10
ATOM     10  C   UNL d   1     -48.470  13.542  22.594  0.00  0.00     0.082 C 
BRANCH  10  11
ATOM     11  C   UNL d   1     -47.913  13.460  23.201  0.00  0.00     0.019 C 
BRANCH  11  12
ATOM     12  C   UNL d   1     -47.133  13.270  23.019  0.00  0.00     0.002 A 
ATOM     13  C   UNL d   1     -46.787  12.597  23.351  0.00  0.00     0.000 A 
ATOM     14  C   UNL d   1     -46.005  12.408  23.166  0.00  0.00     0.000 A 
ATOM     15  C   UNL d   1     -45.578  12.888  22.657  0.00  0.00     0.000 A 
ATOM     16  C   UNL d   1     -45.929  13.559  22.329  0.00  0.00     0.000 A 
ATOM     17  C   UNL d   1     -46.703  13.745  22.511  0.00  0.00     0.000 A 
ENDBRANCH  11  12
ENDBRANCH  10  11
ENDBRANCH   1  10
BRANCH   3  18
ATOM     18  C   UNL d   1     -49.692  12.336  23.114  0.00  0.00     0.037 C 
BRANCH  18  19
ATOM     19  C   UNL d   1     -50.317  11.852  23.360  0.00  0.00     0.003 C 
ATOM     20  C   UNL d   1     -50.159  11.113  23.670  0.00  0.00     0.000 C 
ENDBRANCH  18  19
ENDBRANCH   3  18
TORSDOF 5
ENDMDL
MODEL 3
REMARK VINA RESULT:      -7.1      1.681      2.356
REMARK  5 active torsions:
REMARK  status: ('A' for Active; 'I' for Inactive)
REMARK    1  A    between atoms: C_6  and  N_1 
REMARK    2  A    between atoms: C_8  and  C_3 
REMARK    3  A    between atoms: C_7  and  C_6 
REMARK    4  A    between atoms: C_9  and  C_7 
REMARK    5  A    between atoms: C_14  and  C_8 
ROOT
ATOM      1  N   UNL d   1     -48.124  13.458  23.223  0.00  0.00    -0.289 N 
ATOM      2  N   UNL d   1     -47.579  12.289  22.850  0.00  0.00    -0.227 NA
ATOM      3  C   UNL d   1     -48.263  12.644  23.160  0.00  0.00     0.148 A 
ATOM      4  C   UNL d   1     -47.356  13.607  22.952  0.00  0.00     0.083 A 
ATOM      5  C   UNL d   1     -47.019  12.890  22.723  0.00  0.00     0.099 A 
ATOM      6  C   UNL d   1     -46.912  14.306  22.883  0.00  0.00     0.019 A 
ATOM      7  C   UNL d   1     -46.249  12.865  22.427  0.00  0.00     0.021 A 
ATOM      8  C   UNL d   1     -46.145  14.278  22.588  0.00  0.00     0.002 A 
ATOM      9  C   UNL d   1     -45.814  13.558  22.360  0.00  0.00     0.002 A 
ENDROOT
BRANCH   1  10
ATOM     10  C   UNL d   1     -48.651  14.016  23.502  0.00  0.00     0.082 C 
BRANCH  10  11
ATOM     11  C   UNL d   1     -49.086  14.306  22.860  0.00  0.00     0.019 C 
BRANCH  11  12
ATOM     12  C   UNL d   1     -49.722  14.811  22.990  0.00  0.00     0.002 A 
ATOM     13  C   UNL d   1     -50.409  14.730  22.539  0.00  0.00     0.000 A 
ATOM     14  C   UNL d   1     -51.046  15.238  22.672  0.00  0.00     0.000 A 
ATOM     15  C   UNL d   1     -50.993  15.818  23.249  0.00  0.00     0.000 A 
ATOM     16  C   UNL d   1     -50.304  15.894  23.696  0.00  0.00     0.000 A 
ATOM     17  C   UNL d   1     -49.674  15.392  23.565  0.00  0.00     0.000 A 
ENDBRANCH  11  12
ENDBRANCH  10  11
ENDBRANCH   1  10
BRANCH   3  18
ATOM     18  C   UNL d   1     -48.953  12.253  23.367  0.00  0.00     0.037 C 
BRANCH  18  19
ATOM     19  C   UNL d   1     -48.990  11.427  23.317  0.00  0.00     0.003 C 
ATOM     20  C   UNL d   1     -49.604  11.026  23.679  0.00  0.00     0.000 C 
ENDBRANCH  18  19
ENDBRANCH   3  18
TORSDOF 5
ENDMDL
MODEL 4
REMARK VINA RESULT:      -6.9      0.512      2.445
REMARK  5 active torsions:
REMARK  status: ('A' for Active; 'I' for Inactive)
REMARK    1  A    between atoms: C_6  and  N_1 
REMARK    2  A    between atoms: C_8  and  C_3 
REMARK    3  A    between atoms: C_7  and  C_6 
REMARK    4  A    between atoms: C_9  and  C_7 
REMARK    5  A    between atoms: C_14  and  C_8 
ROOT
ATOM      1  N   UNL d   1     -47.505  12.662  23.259  0.00  0.00    -0.289 N 
ATOM      2  N   UNL d   1     -46.231  13.015  23.021  0.00  0.00    -0.227 NA
ATOM      3  C   UNL d   1     -47.014  13.290  23.034  0.00  0.00     0.148 A 
ATOM      4  C   UNL d   1     -47.026  11.998  23.386  0.00  0.00     0.083 A 
ATOM      5  C   UNL d   1     -46.242  12.213  23.240  0.00  0.00     0.099 A 
ATOM      6  C   UNL d   1     -47.197  11.218  23.617  0.00  0.00     0.019 A 
ATOM      7  C   UNL d   1     -45.635  11.661  23.323  0.00  0.00     0.021 A 
ATOM      8  C   UNL d   1     -46.591  10.671  23.698  0.00  0.00     0.002 A 
ATOM      9  C   UNL d   1     -45.810  10.892  23.551  0.00  0.00     0.002 A 
ENDROOT
BRANCH   1  10
ATOM     10  C   UNL d   1     -48.317  12.690  23.342  0.00  0.00     0.082 C 
BRANCH  10  11
ATOM     11  C   UNL d   1     -48.657  12.306  22.692  0.00  0.00     0.019 C 
BRANCH  11  12
ATOM     12  C   UNL d   1     -49.460  12.394  22.539  0.00  0.00     0.002 A 
ATOM     13  C   UNL d   1     -49.709  12.682  21.806  0.00  0.00     0.000 A 
ATOM     14  C   UNL d   1     -50.516  12.769  21.655  0.00  0.00     0.000 A 
ATOM     15  C   UNL d   1     -51.064  12.570  22.231  0.00  0.00     0.000 A 
ATOM     16  C   UNL d   1     -50.809  12.282  22.962  0.00  0.00     0.000 A 
ATOM     17  C   UNL d   1     -50.011  12.196  23.111  0.00  0.00     0.000 A 
ENDBRANCH  11  12
ENDBRANCH  10  11
ENDBRANCH   1  10
BRANCH   3  18
ATOM     18  C   UNL d   1     -47.257  14.053  22.854  0.00  0.00     0.037 C 
BRANCH  18  19
ATOM     19  C   UNL d   1     -46.701  14.613  22.603  0.00  0.00     0.003 C 
ATOM     20  C   UNL d   1     -46.955  15.343  22.336  0.00  0.00     0.000 C 
ENDBRANCH  18  19
ENDBRANCH   3  18
TORSDOF 5
ENDMDL
MODEL 5
REMARK VINA RESULT:      -6.8      1.473      4.255
REMARK  5 active torsions:
REMARK  status: ('A' for Active; 'I' for Inactive)
REMARK    1  A    between atoms: C_6  and  N_1 
REMARK    2  A    between atoms: C_8  and  C_3 
REMARK    3  A    between atoms: C_7  and  C_6 
REMARK    4  A    between atoms: C_9  and  C_7 
REMARK    5  A    between atoms: C_14  and  C_8 
ROOT
ATOM      1  N   UNL d   1     -49.002  13.331  23.405  0.00  0.00    -0.289 N 
ATOM      2  N   UNL d   1     -50.327  13.509  23.282  0.00  0.00    -0.227 NA
ATOM      3  C   UNL d   1     -49.593  13.897  23.274  0.00  0.00     0.148 A 
ATOM      4  C   UNL d   1     -49.370  12.594  23.494  0.00  0.00     0.083 A 
ATOM      5  C   UNL d   1     -50.184  12.701  23.419  0.00  0.00     0.099 A 
ATOM      6  C   UNL d   1     -49.071  11.832  23.635  0.00  0.00     0.019 A 
ATOM      7  C   UNL d   1     -50.698  12.060  23.482  0.00  0.00     0.021 A 
ATOM      8  C   UNL d   1     -49.585  11.194  23.698  0.00  0.00     0.002 A 
ATOM      9  C   UNL d   1     -50.399  11.308  23.621  0.00  0.00     0.002 A 
ENDROOT
BRANCH   1  10
ATOM     10  C   UNL d   1     -48.198  13.473  23.441  0.00  0.00     0.082 C 
BRANCH  10  11
ATOM     11  C   UNL d   1     -47.895  13.436  22.672  0.00  0.00     0.019 C 
BRANCH  11  12
ATOM     12  C   UNL d   1     -47.083  13.488  22.549  0.00  0.00     0.002 A 
ATOM     13  C   UNL d   1     -46.686  12.874  22.165  0.00  0.00     0.000 A 
ATOM     14  C   UNL d   1     -45.871  12.928  22.043  0.00  0.00     0.000 A 
ATOM     15  C   UNL d   1     -45.462  13.589  22.303  0.00  0.00     0.000 A 
ATOM     16  C   UNL d   1     -45.864  14.200  22.687  0.00  0.00     0.000 A 
ATOM     17  C   UNL d   1     -46.670  14.146  22.807  0.00  0.00     0.000 A 
ENDBRANCH  11  12
ENDBRANCH  10  11
ENDBRANCH   1  10
BRANCH   3  18
ATOM     18  C   UNL d   1     -49.476  14.700  23.157  0.00  0.00     0.037 C 
BRANCH  18  19
ATOM     19  C   UNL d   1     -50.126  15.213  23.146  0.00  0.00     0.003 C 
ATOM     20  C   UNL d   1     -50.089  15.921  23.552  0.00  0.00     0.000 C 
ENDBRANCH  18  19
ENDBRANCH   3  18
TORSDOF 5
ENDMDL
MODEL 6
REMARK VINA RESULT:      -6.5      1.182      3.362
REMARK  5 active torsions:
REMARK  status: ('A' for Active; 'I' for Inactive)
REMARK    1  A    between atoms: C_6  and  N_1 
REMARK    2  A    between atoms: C_8  and  C_3 
REMARK    3  A    between atoms: C_7  and  C_6 
REMARK    4  A    between atoms: C_9  and  C_7 
REMARK    5  A    between atoms: C_14  and  C_8 
ROOT
ATOM      1  N   UNL d   1     -48.563  13.334  22.737  0.00  0.00    -0.289 N 
ATOM      2  N   UNL d   1     -49.775  13.806  23.073  0.00  0.00    -0.227 NA
ATOM      3  C   UNL d   1     -49.322  13.115  22.988  0.00  0.00     0.148 A 
ATOM      4  C   UNL d   1     -48.546  14.159  22.667  0.00  0.00     0.083 A 
ATOM      5  C   UNL d   1     -49.290  14.451  22.873  0.00  0.00     0.099 A 
ATOM      6  C   UNL d   1     -47.949  14.691  22.441  0.00  0.00     0.019 A 
ATOM      7  C   UNL d   1     -49.440  15.262  22.856  0.00  0.00     0.021 A 
ATOM      8  C   UNL d   1     -48.101  15.498  22.425  0.00  0.00     0.002 A 
ATOM      9  C   UNL d   1     -48.847  15.783  22.633  0.00  0.00     0.002 A 
ENDROOT
BRANCH   1  10
ATOM     10  C   UNL d   1     -47.941  12.827  22.585  0.00  0.00     0.082 C 
BRANCH  10  11
ATOM     11  C   UNL d   1     -47.581  12.636  23.306  0.00  0.00     0.019 C 
BRANCH  11  12
ATOM     12  C   UNL d   1     -46.882  12.203  23.312  0.00  0.00     0.002 A 
ATOM     13  C   UNL d   1     -46.209  12.507  22.942  0.00  0.00     0.000 A 
ATOM     14  C   UNL d   1     -45.508  12.072  22.949  0.00  0.00     0.000 A 
ATOM     15  C   UNL d   1     -45.483  11.342  23.322  0.00  0.00     0.000 A 
ATOM     16  C   UNL d   1     -46.159  11.043  23.690  0.00  0.00     0.000 A 
ATOM     17  C   UNL d   1     -46.852  11.474  23.683  0.00  0.00     0.000 A 
ENDBRANCH  11  12
ENDBRANCH  10  11
ENDBRANCH   1  10
BRANCH   3  18
ATOM     18  C   UNL d   1     -49.583  12.350  23.128  0.00  0.00     0.037 C 
BRANCH  18  19
ATOM     19  C   UNL d   1     -50.378  12.215  23.316  0.00  0.00     0.003 C 
ATOM     20  C   UNL d   1     -50.595  11.516  23.680  0.00  0.00     0.000 C 
ENDBRANCH  18  19
ENDBRANCH   3  18
TORSDOF 5
ENDMDL
MODEL 7
REMARK VINA RESULT:      -6.5      1.255      4.108
REMARK  5 active torsions:
REMARK  status: ('A' for Active; 'I' for Inactive)
REMARK    1  A    between atoms: C_6  and  N_1 
REMARK    2  A    between atoms: C_8  and  C_3 
REMARK    3  A    between atoms: C_7  and  C_6 
REMARK    4  A    between atoms: C_9  and  C_7 
REMARK    5  A    between atoms: C_14  and  C_8 
ROOT
ATOM      1  N   UNL d   1     -49.017  13.167  22.902  0.00  0.00    -0.289 N 
ATOM      2  N   UNL d   1     -50.035  13.953  23.291  0.00  0.00    -0.227 NA
ATOM      3  C   UNL d   1     -49.261  13.954  22.990  0.00  0.00     0.148 A 
ATOM      4  C   UNL d   1     -49.640  12.679  23.147  0.00  0.00     0.083 A 
ATOM      5  C   UNL d   1     -50.267  13.160  23.387  0.00  0.00     0.099 A 
ATOM      6  C   UNL d   1     -49.724  11.853  23.186  0.00  0.00     0.019 A 
ATOM      7  C   UNL d   1     -50.968  12.826  23.662  0.00  0.00     0.021 A 
ATOM      8  C   UNL d   1     -50.424  11.523  23.460  0.00  0.00     0.002 A 
ATOM      9  C   UNL d   1     -51.046  12.010  23.698  0.00  0.00     0.002 A 
ENDROOT
BRANCH   1  10
ATOM     10  C   UNL d   1     -48.292  12.916  22.622  0.00  0.00     0.082 C 
BRANCH  10  11
ATOM     11  C   UNL d   1     -47.733  13.022  23.223  0.00  0.00     0.019 C 
BRANCH  11  12
ATOM     12  C   UNL d   1     -46.971  12.723  23.131  0.00  0.00     0.002 A 
ATOM     13  C   UNL d   1     -46.762  12.014  23.499  0.00  0.00     0.000 A 
ATOM     14  C   UNL d   1     -45.998  11.716  23.405  0.00  0.00     0.000 A 
ATOM     15  C   UNL d   1     -45.453  12.124  22.949  0.00  0.00     0.000 A 
ATOM     16  C   UNL d   1     -45.668  12.832  22.583  0.00  0.00     0.000 A 
ATOM     17  C   UNL d   1     -46.424  13.127  22.676  0.00  0.00     0.000 A 
ENDBRANCH  11  12
ENDBRANCH  10  11
ENDBRANCH   1  10
BRANCH   3  18
ATOM     18  C   UNL d   1     -48.817  14.620  22.813  0.00  0.00     0.037 C 
BRANCH  18  19
ATOM     19  C   UNL d   1     -49.195  15.347  22.689  0.00  0.00     0.003 C 
ATOM     20  C   UNL d   1     -48.830  15.922  22.238  0.00  0.00     0.000 C 
ENDBRANCH  18  19
ENDBRANCH   3  18
TORSDOF 5
ENDMDL
MODEL 8
REMARK VINA RESULT:      -5.9      8.676      9.816
REMARK  5 active torsions:
REMARK  status: ('A' for Active; 'I' for Inactive)
REMARK    1  A    between atoms: C_6  and  N_1 
REMARK    2  A    between atoms: C_8  and  C_3 
REMARK    3  A    between atoms: C_7  and  C_6 
REMARK    4  A    between atoms: C_9  and  C_7 
REMARK    5  A    between atoms: C_14  and  C_8 
ROOT
ATOM      1  N   UNL d   1     -39.948  14.458  18.239  0.00  0.00    -0.289 N 
ATOM      2  N   UNL d   1     -39.531  14.354  16.967  0.00  0.00    -0.227 NA
ATOM      3  C   UNL d   1     -39.405  14.080  17.741  0.00  0.00     0.148 A 
ATOM      4  C   UNL d   1     -40.410  14.965  17.774  0.00  0.00     0.083 A 
ATOM      5  C   UNL d   1     -40.155  14.902  16.992  0.00  0.00     0.099 A 
ATOM      6  C   UNL d   1     -41.035  15.481  17.958  0.00  0.00     0.019 A 
ATOM      7  C   UNL d   1     -40.515  15.346  16.398  0.00  0.00     0.021 A 
ATOM      8  C   UNL d   1     -41.392  15.922  17.364  0.00  0.00     0.002 A 
ATOM      9  C   UNL d   1     -41.132  15.854  16.584  0.00  0.00     0.002 A 
ENDROOT
BRANCH   1  10
ATOM     10  C   UNL d   1     -40.018  14.352  19.046  0.00  0.00     0.082 C 
BRANCH  10  11
ATOM     11  C   UNL d   1     -39.554  14.924  19.423  0.00  0.00     0.019 C 
BRANCH  11  12
ATOM     12  C   UNL d   1     -39.531  14.956  20.245  0.00  0.00     0.002 A 
ATOM     13  C   UNL d   1     -39.955  14.402  20.688  0.00  0.00     0.000 A 
ATOM     14  C   UNL d   1     -39.931  14.435  21.512  0.00  0.00     0.000 A 
ATOM     15  C   UNL d   1     -39.488  15.015  21.886  0.00  0.00     0.000 A 
ATOM     16  C   UNL d   1     -39.067  15.566  21.438  0.00  0.00     0.000 A 
ATOM     17  C   UNL d   1     -39.091  15.532  20.623  0.00  0.00     0.000 A 
ENDBRANCH  11  12
ENDBRANCH  10  11
ENDBRANCH   1  10
BRANCH   3  18
ATOM     18  C   UNL d   1     -38.840  13.531  17.969  0.00  0.00     0.037 C 
BRANCH  18  19
ATOM     19  C   UNL d   1     -38.463  13.066  17.397  0.00  0.00     0.003 C 
ATOM     20  C   UNL d   1     -37.990  12.442  17.631  0.00  0.00     0.000 C 
ENDBRANCH  18  19
ENDBRANCH   3  18
TORSDOF 5
ENDMDL
MODEL 9
REMARK VINA RESULT:      -5.3      7.565      9.814
REMARK  5 active torsions:
REMARK  status: ('A' for Active; 'I' for Inactive)
REMARK    1  A    between atoms: C_6  and  N_1 
REMARK    2  A    between atoms: C_8  and  C_3 
REMARK    3  A    between atoms: C_7  and  C_6 
REMARK    4  A    between atoms: C_9  and  C_7 
REMARK    5  A    between atoms: C_14  and  C_8 
ROOT
ATOM      1  N   UNL d   1     -39.375  14.631  20.298  0.00  0.00    -0.289 N 
ATOM      2  N   UNL d   1     -40.027  14.571  21.470  0.00  0.00    -0.227 NA
ATOM      3  C   UNL d   1     -40.044  14.898  20.707  0.00  0.00     0.148 A 
ATOM      4  C   UNL d   1     -38.945  14.139  20.807  0.00  0.00     0.083 A 
ATOM      5  C   UNL d   1     -39.344  14.101  21.528  0.00  0.00     0.099 A 
ATOM      6  C   UNL d   1     -38.236  13.716  20.712  0.00  0.00     0.019 A 
ATOM      7  C   UNL d   1     -39.045  13.648  22.149  0.00  0.00     0.021 A 
ATOM      8  C   UNL d   1     -37.940  13.266  21.332  0.00  0.00     0.002 A 
ATOM      9  C   UNL d   1     -38.344  13.232  22.050  0.00  0.00     0.002 A 
ENDROOT
BRANCH   1  10
ATOM     10  C   UNL d   1     -39.173  14.819  19.529  0.00  0.00     0.082 C 
BRANCH  10  11
ATOM     11  C   UNL d   1     -39.542  14.274  19.025  0.00  0.00     0.019 C 
BRANCH  11  12
ATOM     12  C   UNL d   1     -39.386  14.294  18.217  0.00  0.00     0.002 A 
ATOM     13  C   UNL d   1     -39.445  15.009  17.806  0.00  0.00     0.000 A 
ATOM     14  C   UNL d   1     -39.288  15.027  16.996  0.00  0.00     0.000 A 
ATOM     15  C   UNL d   1     -39.076  14.338  16.605  0.00  0.00     0.000 A 
ATOM     16  C   UNL d   1     -39.020  13.627  17.021  0.00  0.00     0.000 A 
ATOM     17  C   UNL d   1     -39.175  13.610  17.823  0.00  0.00     0.000 A 
ENDBRANCH  11  12
ENDBRANCH  10  11
ENDBRANCH   1  10
BRANCH   3  18
ATOM     18  C   UNL d   1     -40.623  15.398  20.412  0.00  0.00     0.037 C 
BRANCH  18  19
ATOM     19  C   UNL d   1     -41.134  15.789  20.934  0.00  0.00     0.003 C 
ATOM     20  C   UNL d   1     -41.911  15.922  20.716  0.00  0.00     0.000 C 
ENDBRANCH  18  19
ENDBRANCH   3  18
TORSDOF 5
ENDMDL
