MODEL 1
REMARK VINA RESULT:     -10.9      0.000      0.000
REMARK  1 active torsions:
REMARK  status: ('A' for Active; 'I' for Inactive)
REMARK    1  A    between atoms: C_10  and  C_4 
ROOT
ATOM      1  N   UNL d   1      53.843  33.801  54.572  0.00  0.00    -0.202 N 
ATOM      2  C   UNL d   1      53.249  33.550  54.057  0.00  0.00     0.166 A 
ATOM      3  N   UNL d   1      53.722  34.611  54.725  0.00  0.00    -0.163 NA
ATOM      4  C   UNL d   1      52.760  34.206  53.890  0.00  0.00     0.055 A 
ATOM      5  C   UNL d   1      54.415  33.263  54.835  0.00  0.00     0.143 A 
ATOM      6  C   UNL d   1      53.061  34.847  54.305  0.00  0.00     0.104 A 
ATOM      7  N   UNL d   1      53.225  32.768  53.805  0.00  0.00    -0.227 NA
ATOM      8  C   UNL d   1      54.389  32.476  54.581  0.00  0.00     0.050 A 
ATOM      9  C   UNL d   1      53.789  32.226  54.061  0.00  0.00     0.086 A 
ATOM     10 CL   UNL d   1      55.009  33.509  55.350  0.00  0.00    -0.061 Cl
ATOM     11  C   UNL d   1      52.745  35.609  54.298  0.00  0.00     0.023 C 
ATOM     12  C   UNL d   1      53.765  31.444  53.810  0.00  0.00     0.021 C 
ENDROOT
BRANCH   4  13
ATOM     13  C   UNL d   1      52.097  34.206  53.398  0.00  0.00     0.004 A 
ATOM     14  C   UNL d   1      52.178  34.391  52.598  0.00  0.00     0.001 A 
ATOM     15  C   UNL d   1      51.516  34.391  52.111  0.00  0.00     0.011 A 
ATOM     16  C   UNL d   1      50.772  34.207  52.415  0.00  0.00     0.058 A 
ATOM     17  C   UNL d   1      50.690  34.023  53.212  0.00  0.00     0.011 A 
ATOM     18 CL   UNL d   1      50.116  34.208  51.927  0.00  0.00    -0.082 Cl
ATOM     19  C   UNL d   1      51.350  34.021  53.709  0.00  0.00     0.001 A 
ENDBRANCH   4  13
TORSDOF 1
ENDMDL
MODEL 2
REMARK VINA RESULT:     -10.3      1.364      3.191
REMARK  1 active torsions:
REMARK  status: ('A' for Active; 'I' for Inactive)
REMARK    1  A    between atoms: C_10  and  C_4 
ROOT
ATOM      1  N   UNL d   1      53.304  34.464  54.313  0.00  0.00    -0.202 N 
ATOM      2  C   UNL d   1      53.126  33.740  53.960  0.00  0.00     0.166 A 
ATOM      3  N   UNL d   1      53.951  34.346  54.826  0.00  0.00    -0.163 NA
ATOM      4  C   UNL d   1      53.662  33.172  54.253  0.00  0.00     0.055 A 
ATOM      5  C   UNL d   1      52.858  35.136  54.125  0.00  0.00     0.143 A 
ATOM      6  C   UNL d   1      54.160  33.556  54.781  0.00  0.00     0.104 A 
ATOM      7  N   UNL d   1      52.507  33.685  53.422  0.00  0.00    -0.227 NA
ATOM      8  C   UNL d   1      52.235  35.079  53.583  0.00  0.00     0.050 A 
ATOM      9  C   UNL d   1      52.058  34.348  53.229  0.00  0.00     0.086 A 
ATOM     10 CL   UNL d   1      53.032  35.861  54.476  0.00  0.00    -0.061 Cl
ATOM     11  C   UNL d   1      54.775  33.200  55.201  0.00  0.00     0.023 C 
ATOM     12  C   UNL d   1      51.439  34.293  52.691  0.00  0.00     0.021 C 
ENDROOT
BRANCH   4  13
ATOM     13  C   UNL d   1      53.686  32.373  54.049  0.00  0.00     0.004 A 
ATOM     14  C   UNL d   1      53.305  31.815  54.523  0.00  0.00     0.001 A 
ATOM     15  C   UNL d   1      53.329  31.020  54.317  0.00  0.00     0.011 A 
ATOM     16  C   UNL d   1      53.732  30.775  53.640  0.00  0.00     0.058 A 
ATOM     17  C   UNL d   1      54.112  31.329  53.167  0.00  0.00     0.011 A 
ATOM     18 CL   UNL d   1      53.754  29.982  53.439  0.00  0.00    -0.082 Cl
ATOM     19  C   UNL d   1      54.092  32.131  53.367  0.00  0.00     0.001 A 
ENDBRANCH   4  13
TORSDOF 1
ENDMDL
MODEL 3
REMARK VINA RESULT:      -9.8      2.239      3.660
REMARK  1 active torsions:
REMARK  status: ('A' for Active; 'I' for Inactive)
REMARK    1  A    between atoms: C_10  and  C_4 
ROOT
ATOM      1  N   UNL d   1      52.783  30.883  53.093  0.00  0.00    -0.202 N 
ATOM      2  C   UNL d   1      53.335  31.146  53.646  0.00  0.00     0.166 A 
ATOM      3  N   UNL d   1      52.505  31.548  52.673  0.00  0.00    -0.163 NA
ATOM      4  C   UNL d   1      53.401  31.974  53.570  0.00  0.00     0.055 A 
ATOM      5  C   UNL d   1      52.602  30.076  53.041  0.00  0.00     0.143 A 
ATOM      6  C   UNL d   1      52.889  32.206  52.972  0.00  0.00     0.104 A 
ATOM      7  N   UNL d   1      53.707  30.609  54.145  0.00  0.00    -0.227 NA
ATOM      8  C   UNL d   1      52.977  29.536  53.544  0.00  0.00     0.050 A 
ATOM      9  C   UNL d   1      53.534  29.805  54.101  0.00  0.00     0.086 A 
ATOM     10 CL   UNL d   1      52.051  29.809  52.489  0.00  0.00    -0.061 Cl
ATOM     11  C   UNL d   1      52.778  32.982  52.714  0.00  0.00     0.023 C 
ATOM     12  C   UNL d   1      53.905  29.268  54.600  0.00  0.00     0.021 C 
ENDROOT
BRANCH   4  13
ATOM     13  C   UNL d   1      53.891  32.467  54.015  0.00  0.00     0.004 A 
ATOM     14  C   UNL d   1      54.617  32.712  53.708  0.00  0.00     0.001 A 
ATOM     15  C   UNL d   1      55.104  33.202  54.153  0.00  0.00     0.011 A 
ATOM     16  C   UNL d   1      54.872  33.452  54.904  0.00  0.00     0.058 A 
ATOM     17  C   UNL d   1      54.149  33.209  55.211  0.00  0.00     0.011 A 
ATOM     18 CL   UNL d   1      55.359  33.940  55.344  0.00  0.00    -0.082 Cl
ATOM     19  C   UNL d   1      53.654  32.716  54.770  0.00  0.00     0.001 A 
ENDBRANCH   4  13
TORSDOF 1
ENDMDL
MODEL 4
REMARK VINA RESULT:      -9.7      0.824      1.955
REMARK  1 active torsions:
REMARK  status: ('A' for Active; 'I' for Inactive)
REMARK    1  A    between atoms: C_10  and  C_4 
ROOT
ATOM      1  N   UNL d   1      53.501  33.153  54.197  0.00  0.00    -0.202 N 
ATOM      2  C   UNL d   1      52.896  33.661  53.961  0.00  0.00     0.166 A 
ATOM      3  N   UNL d   1      53.402  32.432  53.791  0.00  0.00    -0.163 NA
ATOM      4  C   UNL d   1      52.421  33.255  53.408  0.00  0.00     0.055 A 
ATOM      5  C   UNL d   1      54.063  33.410  54.749  0.00  0.00     0.143 A 
ATOM      6  C   UNL d   1      52.742  32.506  53.314  0.00  0.00     0.104 A 
ATOM      7  N   UNL d   1      52.849  34.420  54.273  0.00  0.00    -0.227 NA
ATOM      8  C   UNL d   1      54.016  34.174  55.062  0.00  0.00     0.050 A 
ATOM      9  C   UNL d   1      53.404  34.684  54.822  0.00  0.00     0.086 A 
ATOM     10 CL   UNL d   1      54.670  32.905  54.988  0.00  0.00    -0.061 Cl
ATOM     11  C   UNL d   1      52.445  31.919  52.815  0.00  0.00     0.023 C 
ATOM     12  C   UNL d   1      53.357  35.443  55.133  0.00  0.00     0.021 C 
ENDROOT
BRANCH   4  13
ATOM     13  C   UNL d   1      51.752  33.554  53.028  0.00  0.00     0.004 A 
ATOM     14  C   UNL d   1      51.006  33.455  53.367  0.00  0.00     0.001 A 
ATOM     15  C   UNL d   1      50.343  33.754  52.986  0.00  0.00     0.011 A 
ATOM     16  C   UNL d   1      50.415  34.152  52.268  0.00  0.00     0.058 A 
ATOM     17  C   UNL d   1      51.157  34.251  51.928  0.00  0.00     0.011 A 
ATOM     18 CL   UNL d   1      49.752  34.448  51.892  0.00  0.00    -0.082 Cl
ATOM     19  C   UNL d   1      51.830  33.954  52.304  0.00  0.00     0.001 A 
ENDBRANCH   4  13
TORSDOF 1
ENDMDL
MODEL 5
REMARK VINA RESULT:      -9.1      1.739      2.863
REMARK  1 active torsions:
REMARK  status: ('A' for Active; 'I' for Inactive)
REMARK    1  A    between atoms: C_10  and  C_4 
ROOT
ATOM      1  N   UNL d   1      52.910  34.115  53.897  0.00  0.00    -0.202 N 
ATOM      2  C   UNL d   1      53.138  33.325  53.959  0.00  0.00     0.166 A 
ATOM      3  N   UNL d   1      52.322  34.165  53.308  0.00  0.00    -0.163 NA
ATOM      4  C   UNL d   1      52.692  32.884  53.408  0.00  0.00     0.055 A 
ATOM      5  C   UNL d   1      53.264  34.686  54.382  0.00  0.00     0.143 A 
ATOM      6  C   UNL d   1      52.198  33.411  53.017  0.00  0.00     0.104 A 
ATOM      7  N   UNL d   1      53.715  33.104  54.500  0.00  0.00    -0.227 NA
ATOM      8  C   UNL d   1      53.845  34.462  54.926  0.00  0.00     0.050 A 
ATOM      9  C   UNL d   1      54.073  33.664  54.987  0.00  0.00     0.086 A 
ATOM     10 CL   UNL d   1      53.038  35.476  54.323  0.00  0.00    -0.061 Cl
ATOM     11  C   UNL d   1      51.660  33.209  52.425  0.00  0.00     0.023 C 
ATOM     12  C   UNL d   1      54.650  33.443  55.528  0.00  0.00     0.021 C 
ENDROOT
BRANCH   4  13
ATOM     13  C   UNL d   1      52.741  32.070  53.281  0.00  0.00     0.004 A 
ATOM     14  C   UNL d   1      52.145  31.573  53.562  0.00  0.00     0.001 A 
ATOM     15  C   UNL d   1      52.196  30.763  53.435  0.00  0.00     0.011 A 
ATOM     16  C   UNL d   1      52.838  30.443  53.029  0.00  0.00     0.058 A 
ATOM     17  C   UNL d   1      53.432  30.936  52.748  0.00  0.00     0.011 A 
ATOM     18 CL   UNL d   1      52.885  29.635  52.904  0.00  0.00    -0.082 Cl
ATOM     19  C   UNL d   1      53.389  31.752  52.872  0.00  0.00     0.001 A 
ENDBRANCH   4  13
TORSDOF 1
ENDMDL
MODEL 6
REMARK VINA RESULT:      -8.4      1.221      3.818
REMARK  1 active torsions:
REMARK  status: ('A' for Active; 'I' for Inactive)
REMARK    1  A    between atoms: C_10  and  C_4 
ROOT
ATOM      1  N   UNL d   1      52.080  32.519  53.243  0.00  0.00    -0.202 N 
ATOM      2  C   UNL d   1      52.598  33.057  53.594  0.00  0.00     0.166 A 
ATOM      3  N   UNL d   1      52.446  31.769  53.252  0.00  0.00    -0.163 NA
ATOM      4  C   UNL d   1      53.285  32.641  53.821  0.00  0.00     0.055 A 
ATOM      5  C   UNL d   1      51.345  32.776  52.962  0.00  0.00     0.143 A 
ATOM      6  C   UNL d   1      53.179  31.856  53.606  0.00  0.00     0.104 A 
ATOM      7  N   UNL d   1      52.385  33.847  53.665  0.00  0.00    -0.227 NA
ATOM      8  C   UNL d   1      51.132  33.573  53.033  0.00  0.00     0.050 A 
ATOM      9  C   UNL d   1      51.656  34.113  53.388  0.00  0.00     0.086 A 
ATOM     10 CL   UNL d   1      50.825  32.242  52.611  0.00  0.00    -0.061 Cl
ATOM     11  C   UNL d   1      53.725  31.251  53.727  0.00  0.00     0.023 C 
ATOM     12  C   UNL d   1      51.443  34.904  53.458  0.00  0.00     0.021 C 
ENDROOT
BRANCH   4  13
ATOM     13  C   UNL d   1      53.948  32.963  54.192  0.00  0.00     0.004 A 
ATOM     14  C   UNL d   1      53.968  33.030  55.015  0.00  0.00     0.001 A 
ATOM     15  C   UNL d   1      54.629  33.350  55.382  0.00  0.00     0.011 A 
ATOM     16  C   UNL d   1      55.273  33.606  54.935  0.00  0.00     0.058 A 
ATOM     17  C   UNL d   1      55.256  33.541  54.116  0.00  0.00     0.011 A 
ATOM     18 CL   UNL d   1      55.930  33.925  55.304  0.00  0.00    -0.082 Cl
ATOM     19  C   UNL d   1      54.594  33.219  53.739  0.00  0.00     0.001 A 
ENDBRANCH   4  13
TORSDOF 1
ENDMDL
MODEL 7
REMARK VINA RESULT:      -8.4      1.965      2.701
REMARK  1 active torsions:
REMARK  status: ('A' for Active; 'I' for Inactive)
REMARK    1  A    between atoms: C_10  and  C_4 
ROOT
ATOM      1  N   UNL d   1      53.685  31.900  53.544  0.00  0.00    -0.202 N 
ATOM      2  C   UNL d   1      53.220  32.573  53.654  0.00  0.00     0.166 A 
ATOM      3  N   UNL d   1      54.463  32.086  53.781  0.00  0.00    -0.163 NA
ATOM      4  C   UNL d   1      53.710  33.177  53.958  0.00  0.00     0.055 A 
ATOM      5  C   UNL d   1      53.344  31.207  53.245  0.00  0.00     0.143 A 
ATOM      6  C   UNL d   1      54.466  32.865  54.030  0.00  0.00     0.104 A 
ATOM      7  N   UNL d   1      52.420  32.556  53.466  0.00  0.00    -0.227 NA
ATOM      8  C   UNL d   1      52.538  31.192  53.057  0.00  0.00     0.050 A 
ATOM      9  C   UNL d   1      52.072  31.872  53.169  0.00  0.00     0.086 A 
ATOM     10 CL   UNL d   1      53.805  30.533  53.135  0.00  0.00    -0.061 Cl
ATOM     11  C   UNL d   1      55.125  33.275  54.311  0.00  0.00     0.023 C 
ATOM     12  C   UNL d   1      51.272  31.855  52.981  0.00  0.00     0.021 C 
ENDROOT
BRANCH   4  13
ATOM     13  C   UNL d   1      53.474  33.944  54.150  0.00  0.00     0.004 A 
ATOM     14  C   UNL d   1      53.322  34.145  54.936  0.00  0.00     0.001 A 
ATOM     15  C   UNL d   1      53.088  34.909  55.124  0.00  0.00     0.011 A 
ATOM     16  C   UNL d   1      53.004  35.478  54.533  0.00  0.00     0.058 A 
ATOM     17  C   UNL d   1      53.154  35.281  53.750  0.00  0.00     0.011 A 
ATOM     18 CL   UNL d   1      52.770  36.239  54.724  0.00  0.00    -0.082 Cl
ATOM     19  C   UNL d   1      53.390  34.514  53.552  0.00  0.00     0.001 A 
ENDBRANCH   4  13
TORSDOF 1
ENDMDL
