MODEL 1
REMARK VINA RESULT:      90.9      0.000      0.000
REMARK  3 active torsions:
REMARK  status: ('A' for Active; 'I' for Inactive)
REMARK    1  A    between atoms: C_5  and  C_1 
REMARK    2  A    between atoms: N_8  and  C_5 
REMARK    3  A    between atoms: C_10  and  C_5 
ROOT
ATOM      1  C   UNL d   1      60.507  48.606  51.094  0.00  0.00     0.085 C 
ENDROOT
BRANCH   1   2
ATOM      2  C   UNL d   1      60.760  47.857  50.835  0.00  0.00     0.059 A 
ATOM      3  C   UNL d   1      61.337  47.809  50.246  0.00  0.00     0.214 A 
ATOM      4  C   UNL d   1      61.585  47.066  49.993  0.00  0.00     0.121 A 
ATOM      5  O   UNL d   1      61.656  48.488  49.921  0.00  0.00    -0.285 OA
ATOM      6  N   UNL d   1      62.163  47.018  49.403  0.00  0.00    -0.241 NA
ATOM      7  C   UNL d   1      61.263  46.381  50.321  0.00  0.00     0.032 A 
ATOM      8  C   UNL d   1      62.412  46.273  49.148  0.00  0.00     0.099 A 
ATOM      9  C   UNL d   1      62.096  45.578  49.470  0.00  0.00     0.021 A 
ATOM     10  C   UNL d   1      61.514  45.639  50.064  0.00  0.00     0.004 A 
ATOM     11  C   UNL d   1      60.689  46.430  50.906  0.00  0.00     0.059 A 
ATOM     12  C   UNL d   1      60.435  47.175  51.166  0.00  0.00     0.016 A 
ATOM     13 CL   UNL d   1      60.369  45.748  51.232  0.00  0.00    -0.082 Cl
ENDBRANCH   1   2
BRANCH   1  14
ATOM     14  N   UNL d   1      60.876  48.971  51.725  0.00  0.00    -0.302 N 
ATOM     15  C   UNL d   1      60.512  48.988  52.471  0.00  0.00     0.080 A 
ATOM     16  C   UNL d   1      60.886  49.358  53.112  0.00  0.00     0.019 A 
ATOM     17  C   UNL d   1      61.620  49.708  52.998  0.00  0.00     0.003 A 
ATOM     18  C   UNL d   1      61.983  49.693  52.260  0.00  0.00     0.019 A 
ATOM     19  C   UNL d   1      61.615  49.328  51.629  0.00  0.00     0.080 A 
ENDBRANCH   1  14
BRANCH   1  20
ATOM     20  C   UNL d   1      59.878  48.974  50.704  0.00  0.00     0.098 A 
ATOM     21  N   UNL d   1      59.128  48.989  51.053  0.00  0.00    -0.243 NA
ATOM     22  C   UNL d   1      58.505  49.351  50.674  0.00  0.00     0.099 A 
ATOM     23  C   UNL d   1      58.619  49.707  49.934  0.00  0.00     0.021 A 
ATOM     24  C   UNL d   1      59.366  49.695  49.581  0.00  0.00     0.003 A 
ATOM     25  C   UNL d   1      59.992  49.329  49.967  0.00  0.00     0.021 A 
ENDBRANCH   1  20
TORSDOF 3
ENDMDL
MODEL 2
REMARK VINA RESULT:      91.2      0.334      2.251
REMARK  3 active torsions:
REMARK  status: ('A' for Active; 'I' for Inactive)
REMARK    1  A    between atoms: C_5  and  C_1 
REMARK    2  A    between atoms: N_8  and  C_5 
REMARK    3  A    between atoms: C_10  and  C_5 
ROOT
ATOM      1  C   UNL d   1      60.466  48.613  51.163  0.00  0.00     0.085 C 
ENDROOT
BRANCH   1   2
ATOM      2  C   UNL d   1      60.738  47.871  50.906  0.00  0.00     0.059 A 
ATOM      3  C   UNL d   1      61.296  47.837  50.298  0.00  0.00     0.214 A 
ATOM      4  C   UNL d   1      61.563  47.100  50.045  0.00  0.00     0.121 A 
ATOM      5  O   UNL d   1      61.578  48.522  49.954  0.00  0.00    -0.285 OA
ATOM      6  N   UNL d   1      62.122  47.066  49.437  0.00  0.00    -0.241 NA
ATOM      7  C   UNL d   1      61.278  46.408  50.393  0.00  0.00     0.032 A 
ATOM      8  C   UNL d   1      62.391  46.327  49.183  0.00  0.00     0.099 A 
ATOM      9  C   UNL d   1      62.112  45.625  49.524  0.00  0.00     0.021 A 
ATOM     10  C   UNL d   1      61.549  45.672  50.136  0.00  0.00     0.004 A 
ATOM     11  C   UNL d   1      60.723  46.443  50.997  0.00  0.00     0.059 A 
ATOM     12  C   UNL d   1      60.450  47.182  51.256  0.00  0.00     0.016 A 
ATOM     13 CL   UNL d   1      60.440  45.755  51.342  0.00  0.00    -0.082 Cl
ENDBRANCH   1   2
BRANCH   1  14
ATOM     14  N   UNL d   1      59.837  48.975  50.788  0.00  0.00    -0.302 N 
ATOM     15  C   UNL d   1      59.935  49.310  50.034  0.00  0.00     0.080 A 
ATOM     16  C   UNL d   1      59.297  49.678  49.653  0.00  0.00     0.019 A 
ATOM     17  C   UNL d   1      58.568  49.707  50.030  0.00  0.00     0.003 A 
ATOM     18  C   UNL d   1      58.468  49.377  50.778  0.00  0.00     0.019 A 
ATOM     19  C   UNL d   1      59.096  49.015  51.152  0.00  0.00     0.080 A 
ENDBRANCH   1  14
BRANCH   1  20
ATOM     20  C   UNL d   1      60.840  48.978  51.804  0.00  0.00     0.098 A 
ATOM     21  N   UNL d   1      61.646  49.157  51.763  0.00  0.00    -0.243 NA
ATOM     22  C   UNL d   1      62.020  49.516  52.391  0.00  0.00     0.099 A 
ATOM     23  C   UNL d   1      61.593  49.706  53.076  0.00  0.00     0.021 A 
ATOM     24  C   UNL d   1      60.787  49.529  53.121  0.00  0.00     0.003 A 
ATOM     25  C   UNL d   1      60.415  49.166  52.486  0.00  0.00     0.021 A 
ENDBRANCH   1  20
TORSDOF 3
ENDMDL
