MODEL 1
REMARK VINA RESULT:      -5.0      0.000      0.000
REMARK  1 active torsions:
REMARK  status: ('A' for Active; 'I' for Inactive)
REMARK    1  A    between atoms: C_10  and  C_7 
ROOT
ATOM      1  N   UNL d   1     -41.341-122.595 -51.637  0.00  0.00    -0.259 N 
ATOM      2  C   UNL d   1     -41.311-123.416 -51.813  0.00  0.00     0.202 A 
ATOM      3  C   UNL d   1     -41.226-122.525 -50.842  0.00  0.00     0.227 A 
ATOM      4  C   UNL d   1     -41.469-122.218 -52.309  0.00  0.00     0.091 A 
ATOM      5  S   UNL d   1     -41.422-123.516 -52.597  0.00  0.00    -0.047 SA
ATOM      6  N   UNL d   1     -41.177-123.817 -51.115  0.00  0.00    -0.121 NA
ATOM      7  C   UNL d   1     -41.521-122.764 -52.905  0.00  0.00     0.050 A 
ATOM      8  N   UNL d   1     -41.125-123.245 -50.505  0.00  0.00    -0.116 NA
ATOM      9  S   UNL d   1     -41.216-121.764 -50.428  0.00  0.00    -0.036 SA
ENDROOT
BRANCH   7  10
ATOM     10  C   UNL d   1     -41.652-122.540 -53.668  0.00  0.00     0.007 A 
ATOM     11  C   UNL d   1     -41.201-122.897 -54.263  0.00  0.00     0.001 A 
ATOM     12  C   UNL d   1     -41.307-122.693 -55.055  0.00  0.00     0.000 A 
ATOM     13  C   UNL d   1     -41.892-122.108 -55.227  0.00  0.00     0.000 A 
ATOM     14  C   UNL d   1     -42.343-121.750 -54.642  0.00  0.00     0.000 A 
ATOM     15  C   UNL d   1     -42.074-121.827 -56.047  0.00  0.00     0.000 C 
ATOM     16  C   UNL d   1     -42.226-121.965 -53.854  0.00  0.00     0.001 A 
ENDBRANCH   7  10
TORSDOF 1
ENDMDL
MODEL 2
REMARK VINA RESULT:      -4.7      1.720      3.622
REMARK  1 active torsions:
REMARK  status: ('A' for Active; 'I' for Inactive)
REMARK    1  A    between atoms: C_10  and  C_7 
ROOT
ATOM      1  N   UNL d   1     -41.735-122.584 -54.009  0.00  0.00    -0.259 N 
ATOM      2  C   UNL d   1     -41.327-123.312 -54.105  0.00  0.00     0.202 A 
ATOM      3  C   UNL d   1     -41.928-122.329 -54.749  0.00  0.00     0.227 A 
ATOM      4  C   UNL d   1     -41.770-122.436 -53.242  0.00  0.00     0.091 A 
ATOM      5  S   UNL d   1     -41.123-123.590 -53.385  0.00  0.00    -0.047 SA
ATOM      6  N   UNL d   1     -41.287-123.473 -54.904  0.00  0.00    -0.121 NA
ATOM      7  C   UNL d   1     -41.401-123.040 -52.848  0.00  0.00     0.050 A 
ATOM      8  N   UNL d   1     -41.670-122.845 -55.305  0.00  0.00    -0.116 NA
ATOM      9  S   UNL d   1     -42.357-121.592 -54.900  0.00  0.00    -0.036 SA
ENDROOT
BRANCH   7  10
ATOM     10  C   UNL d   1     -41.348-123.042 -52.043  0.00  0.00     0.007 A 
ATOM     11  C   UNL d   1     -41.469-123.759 -51.646  0.00  0.00     0.001 A 
ATOM     12  C   UNL d   1     -41.422-123.800 -50.823  0.00  0.00     0.000 A 
ATOM     13  C   UNL d   1     -41.248-123.083 -50.412  0.00  0.00     0.000 A 
ATOM     14  C   UNL d   1     -41.127-122.370 -50.799  0.00  0.00     0.000 A 
ATOM     15  C   UNL d   1     -41.178-123.033 -49.529  0.00  0.00     0.000 C 
ATOM     16  C   UNL d   1     -41.177-122.344 -51.622  0.00  0.00     0.001 A 
ENDBRANCH   7  10
TORSDOF 1
ENDMDL
MODEL 3
REMARK VINA RESULT:      -4.4      0.874      1.289
REMARK  1 active torsions:
REMARK  status: ('A' for Active; 'I' for Inactive)
REMARK    1  A    between atoms: C_10  and  C_7 
ROOT
ATOM      1  N   UNL d   1     -41.491-122.686 -51.558  0.00  0.00    -0.259 N 
ATOM      2  C   UNL d   1     -41.361-121.858 -51.510  0.00  0.00     0.202 A 
ATOM      3  C   UNL d   1     -41.402-122.978 -50.812  0.00  0.00     0.227 A 
ATOM      4  C   UNL d   1     -41.649-122.854 -52.305  0.00  0.00     0.091 A 
ATOM      5  S   UNL d   1     -41.444-121.541 -52.238  0.00  0.00    -0.047 SA
ATOM      6  N   UNL d   1     -41.196-121.675 -50.732  0.00  0.00    -0.121 NA
ATOM      7  C   UNL d   1     -41.624-122.167 -52.733  0.00  0.00     0.050 A 
ATOM      8  N   UNL d   1     -41.224-122.391 -50.296  0.00  0.00    -0.116 NA
ATOM      9  S   UNL d   1     -41.490-123.817 -50.615  0.00  0.00    -0.036 SA
ENDROOT
BRANCH   7  10
ATOM     10  C   UNL d   1     -41.765-122.164 -53.527  0.00  0.00     0.007 A 
ATOM     11  C   UNL d   1     -42.378-121.688 -53.813  0.00  0.00     0.001 A 
ATOM     12  C   UNL d   1     -42.551-121.659 -54.619  0.00  0.00     0.000 A 
ATOM     13  C   UNL d   1     -42.077-122.133 -55.132  0.00  0.00     0.000 A 
ATOM     14  C   UNL d   1     -41.467-122.608 -54.855  0.00  0.00     0.000 A 
ATOM     15  C   UNL d   1     -42.190-122.165 -56.010  0.00  0.00     0.000 C 
ATOM     16  C   UNL d   1     -41.305-122.626 -54.046  0.00  0.00     0.001 A 
ENDBRANCH   7  10
TORSDOF 1
ENDMDL
MODEL 4
REMARK VINA RESULT:      -4.3      2.261      3.451
REMARK  1 active torsions:
REMARK  status: ('A' for Active; 'I' for Inactive)
REMARK    1  A    between atoms: C_10  and  C_7 
ROOT
ATOM      1  N   UNL d   1     -41.993-123.434 -48.408  0.00  0.00    -0.259 N 
ATOM      2  C   UNL d   1     -42.788-123.577 -48.637  0.00  0.00     0.202 A 
ATOM      3  C   UNL d   1     -41.950-123.587 -47.617  0.00  0.00     0.227 A 
ATOM      4  C   UNL d   1     -41.604-123.210 -49.048  0.00  0.00     0.091 A 
ATOM      5  S   UNL d   1     -42.862-123.434 -49.419  0.00  0.00    -0.047 SA
ATOM      6  N   UNL d   1     -43.202-123.813 -47.973  0.00  0.00    -0.121 NA
ATOM      7  C   UNL d   1     -42.119-123.204 -49.673  0.00  0.00     0.050 A 
ATOM      8  N   UNL d   1     -42.662-123.816 -47.332  0.00  0.00    -0.116 NA
ATOM      9  S   UNL d   1     -41.220-123.507 -47.158  0.00  0.00    -0.036 SA
ENDROOT
BRANCH   7  10
ATOM     10  C   UNL d   1     -41.877-122.994 -50.413  0.00  0.00     0.007 A 
ATOM     11  C   UNL d   1     -41.542-123.578 -50.894  0.00  0.00     0.001 A 
ATOM     12  C   UNL d   1     -41.282-123.400 -51.657  0.00  0.00     0.000 A 
ATOM     13  C   UNL d   1     -41.374-122.602 -51.918  0.00  0.00     0.000 A 
ATOM     14  C   UNL d   1     -41.706-122.019 -51.446  0.00  0.00     0.000 A 
ATOM     15  C   UNL d   1     -41.125-122.321 -52.721  0.00  0.00     0.000 C 
ATOM     16  C   UNL d   1     -41.960-122.211 -50.686  0.00  0.00     0.001 A 
ENDBRANCH   7  10
TORSDOF 1
ENDMDL
