MODEL 1
REMARK VINA RESULT:      39.0      0.000      0.000
REMARK  5 active torsions:
REMARK  status: ('A' for Active; 'I' for Inactive)
REMARK    1  A    between atoms: N_9  and  C_2 
REMARK    2  A    between atoms: N_8  and  C_3 
REMARK    3  A    between atoms: N_10  and  C_6 
REMARK    4  A    between atoms: C_7  and  C_11 
REMARK    5  A    between atoms: C_13  and  N_10 
ROOT
ATOM      1  N   UNL d   1      13.775  13.303  -4.127  0.00  0.00     0.133 NA
ATOM      2  C   UNL d   1      13.796  13.564  -3.340  0.00  0.00     0.765 A 
ATOM      3  C   UNL d   1      13.528  12.534  -4.299  0.00  0.00     0.765 A 
ATOM      4  N   UNL d   1      13.569  13.055  -2.729  0.00  0.00     0.134 NA
ATOM      5  N   UNL d   1      13.301  12.025  -3.689  0.00  0.00     0.134 NA
ATOM      6  C   UNL d   1      13.321  12.283  -2.905  0.00  0.00     0.780 A 
ENDROOT
BRANCH   6   7
ATOM      7  N   UNL d   1      13.096  11.779  -2.295  0.00  0.00    -0.058 NA
BRANCH   7   8
ATOM      8  C   UNL d   1      13.492  11.801  -1.573  0.00  0.00     0.100 A 
ATOM      9  C   UNL d   1      14.324  11.830  -1.566  0.00  0.00     0.024 A 
ATOM     10  C   UNL d   1      14.724  11.852  -0.842  0.00  0.00     0.073 A 
ATOM     11  C   UNL d   1      14.295  11.844  -0.134  0.00  0.00     0.004 A 
ATOM     12  C   UNL d   1      13.470  11.815  -0.152  0.00  0.00     0.002 A 
ATOM     13  C   UNL d   1      13.069  11.794  -0.866  0.00  0.00     0.020 A 
BRANCH  10  14
ATOM     14  C   UNL d   1      15.541  11.880  -0.828  0.00  0.00     0.419 C 
ATOM     15  F   UNL d   1      15.932  12.004  -0.115  0.00  0.00    -0.166 F 
ATOM     16  F   UNL d   1      15.966  11.787  -1.519  0.00  0.00    -0.166 F 
ATOM     17  F   UNL d   1      15.312  11.995  -0.044  0.00  0.00    -0.166 F 
ENDBRANCH  10  14
ENDBRANCH   7   8
ENDBRANCH   6   7
BRANCH   3  18
ATOM     18  N   UNL d   1      13.508  12.273  -5.086  0.00  0.00    -0.137 N 
ATOM     19  C   UNL d   1      14.211  12.249  -5.524  0.00  0.00     0.098 A 
ATOM     20  C   UNL d   1      14.183  11.987  -6.306  0.00  0.00     0.021 A 
ATOM     21  C   UNL d   1      12.781  11.785  -6.198  0.00  0.00     0.021 A 
ATOM     22  C   UNL d   1      12.791  12.042  -5.420  0.00  0.00     0.098 A 
ENDBRANCH   3  18
BRANCH   2  23
ATOM     23  N   UNL d   1      14.044  14.336  -3.164  0.00  0.00    -0.137 N 
ATOM     24  C   UNL d   1      13.999  14.915  -3.742  0.00  0.00     0.098 A 
ATOM     25  C   UNL d   1      14.244  15.674  -3.566  0.00  0.00     0.021 A 
ATOM     26  C   UNL d   1      14.575  15.276  -2.242  0.00  0.00     0.021 A 
ATOM     27  C   UNL d   1      14.331  14.506  -2.410  0.00  0.00     0.098 A 
ENDBRANCH   2  23
TORSDOF 5
ENDMDL
