MODEL 1
REMARK VINA RESULT:      36.5      0.000      0.000
REMARK  3 active torsions:
REMARK  status: ('A' for Active; 'I' for Inactive)
REMARK    1  A    between atoms: C_2  and  S_1 
REMARK    2  A    between atoms: N_3  and  S_1 
REMARK    3  A    between atoms: C_10  and  N_3 
ROOT
ATOM      1  S   UNL d   1     -56.288 -99.440 -44.085  0.00  0.00     0.285 S 
ATOM      2  O   UNL d   1     -56.403 -99.816 -43.342  0.00  0.00    -0.198 OA
ATOM      3  O   UNL d   1     -56.192 -99.067 -44.817  0.00  0.00    -0.198 OA
ENDROOT
BRANCH   1   4
ATOM      4  C   UNL d   1     -57.105 -99.267 -44.126  0.00  0.00     0.107 A 
ATOM      5  C   UNL d   1     -57.565 -99.267 -43.438  0.00  0.00     0.040 A 
ATOM      6  C   UNL d   1     -58.356 -99.097 -43.498  0.00  0.00     0.123 A 
ATOM      7  O   UNL d   1     -58.829 -99.092 -42.827  0.00  0.00    -0.301 OA
ATOM      8  C   UNL d   1     -58.695 -98.926 -44.246  0.00  0.00     0.123 A 
ATOM      9  C   UNL d   1     -59.638 -98.916 -42.901  0.00  0.00     0.149 A 
ATOM     10  C   UNL d   1     -59.955 -98.756 -43.603  0.00  0.00     0.149 A 
ATOM     11  O   UNL d   1     -59.494 -98.755 -44.297  0.00  0.00    -0.301 OA
ATOM     12  C   UNL d   1     -58.230 -98.930 -44.908  0.00  0.00     0.028 A 
ATOM     13  C   UNL d   1     -57.423 -99.106 -44.828  0.00  0.00     0.015 A 
ENDBRANCH   1   4
BRANCH   1  14
ATOM     14  N   UNL d   1     -55.473 -99.602 -44.064  0.00  0.00    -0.158 NA
BRANCH  14  15
ATOM     15  C   UNL d   1     -55.216-100.392 -44.191  0.00  0.00     0.094 A 
ATOM     16  C   UNL d   1     -55.180-100.909 -43.541  0.00  0.00     0.020 A 
ATOM     17  C   UNL d   1     -54.925-101.693 -43.668  0.00  0.00     0.002 A 
ATOM     18  C   UNL d   1     -54.881-102.229 -43.022  0.00  0.00     0.000 C 
ATOM     19  C   UNL d   1     -54.714-101.944 -44.425  0.00  0.00     0.000 A 
ATOM     20  C   UNL d   1     -54.764-101.403 -45.044  0.00  0.00     0.002 A 
ATOM     21  C   UNL d   1     -55.010-100.643 -44.927  0.00  0.00     0.020 A 
ENDBRANCH  14  15
ENDBRANCH   1  14
TORSDOF 3
ENDMDL
MODEL 2
REMARK VINA RESULT:      37.8      1.247      4.238
REMARK  3 active torsions:
REMARK  status: ('A' for Active; 'I' for Inactive)
REMARK    1  A    between atoms: C_2  and  S_1 
REMARK    2  A    between atoms: N_3  and  S_1 
REMARK    3  A    between atoms: C_10  and  N_3 
ROOT
ATOM      1  S   UNL d   1     -56.422 -99.449 -44.438  0.00  0.00     0.285 S 
ATOM      2  O   UNL d   1     -55.891 -99.037 -43.932  0.00  0.00    -0.198 OA
ATOM      3  O   UNL d   1     -56.935 -99.867 -44.933  0.00  0.00    -0.198 OA
ENDROOT
BRANCH   1   4
ATOM      4  C   UNL d   1     -55.991-100.155 -44.317  0.00  0.00     0.107 A 
ATOM      5  C   UNL d   1     -55.993-100.748 -44.895  0.00  0.00     0.040 A 
ATOM      6  C   UNL d   1     -55.569-101.426 -44.760  0.00  0.00     0.123 A 
ATOM      7  O   UNL d   1     -55.558-102.025 -45.321  0.00  0.00    -0.301 OA
ATOM      8  C   UNL d   1     -55.139-101.518 -44.045  0.00  0.00     0.123 A 
ATOM      9  C   UNL d   1     -55.121-102.715 -45.171  0.00  0.00     0.149 A 
ATOM     10  C   UNL d   1     -54.717-102.801 -44.501  0.00  0.00     0.149 A 
ATOM     11  O   UNL d   1     -54.714-102.206 -43.918  0.00  0.00    -0.301 OA
ATOM     12  C   UNL d   1     -55.149-100.929 -43.491  0.00  0.00     0.028 A 
ATOM     13  C   UNL d   1     -55.588-100.242 -43.647  0.00  0.00     0.015 A 
ENDBRANCH   1   4
BRANCH   1  14
ATOM     14  N   UNL d   1     -56.863 -98.757 -44.570  0.00  0.00    -0.158 NA
BRANCH  14  15
ATOM     15  C   UNL d   1     -57.685 -98.765 -44.399  0.00  0.00     0.094 A 
ATOM     16  C   UNL d   1     -58.224 -98.771 -45.032  0.00  0.00     0.020 A 
ATOM     17  C   UNL d   1     -59.041 -98.779 -44.862  0.00  0.00     0.002 A 
ATOM     18  C   UNL d   1     -59.600 -98.785 -45.490  0.00  0.00     0.000 C 
ATOM     19  C   UNL d   1     -59.302 -98.780 -44.079  0.00  0.00     0.000 A 
ATOM     20  C   UNL d   1     -58.738 -98.774 -43.479  0.00  0.00     0.002 A 
ATOM     21  C   UNL d   1     -57.947 -98.766 -43.638  0.00  0.00     0.020 A 
ENDBRANCH  14  15
ENDBRANCH   1  14
TORSDOF 3
ENDMDL
