MODEL 1
REMARK VINA RESULT:      91.8      0.000      0.000
REMARK  7 active torsions:
REMARK  status: ('A' for Active; 'I' for Inactive)
REMARK    1  A    between atoms: N_4  and  S_1 
REMARK    2  A    between atoms: C_8  and  S_1 
REMARK    3  A    between atoms: N_2  and  C_3 
REMARK    4  A    between atoms: C_3  and  C_6 
REMARK    5  A    between atoms: C_7  and  C_3 
REMARK    6  A    between atoms: C_6  and  N_4 
REMARK    7  A    between atoms: C_17  and  N_5 
ROOT
ATOM      1  C   UNL d   1     -51.641  26.294  34.447  0.00  0.00     0.107 C 
ENDROOT
BRANCH   1   2
ATOM      2  N   UNL d   1     -51.587  26.282  35.270  0.00  0.00    -0.298 N 
ATOM      3  C   UNL d   1     -52.257  26.126  35.726  0.00  0.00     0.100 A 
ATOM      4  C   UNL d   1     -52.203  26.115  36.550  0.00  0.00     0.100 A 
ATOM      5  N   UNL d   1     -51.479  26.260  36.917  0.00  0.00    -0.301 N 
ATOM      6  C   UNL d   1     -50.813  26.415  36.459  0.00  0.00     0.100 A 
ATOM      7  C   UNL d   1     -50.863  26.427  35.637  0.00  0.00     0.100 A 
BRANCH   5   8
ATOM      8  C   UNL d   1     -51.426  26.248  37.734  0.00  0.00     0.064 A 
ATOM      9  C   UNL d   1     -51.808  25.664  38.165  0.00  0.00     0.018 A 
ATOM     10  C   UNL d   1     -51.757  25.651  38.986  0.00  0.00     0.002 A 
ATOM     11  C   UNL d   1     -51.318  26.228  39.378  0.00  0.00     0.000 A 
ATOM     12  C   UNL d   1     -50.932  26.817  38.947  0.00  0.00     0.002 A 
ATOM     13  C   UNL d   1     -50.987  26.826  38.126  0.00  0.00     0.018 A 
ENDBRANCH   5   8
ENDBRANCH   1   2
BRANCH   1  14
ATOM     14  C   UNL d   1     -51.806  25.607  34.018  0.00  0.00     0.132 C 
BRANCH  14  15
ATOM     15  N   UNL d   1     -51.281  24.955  34.074  0.00  0.00    -0.155 NA
BRANCH  15  16
ATOM     16  S   UNL d   1     -51.464  24.250  33.694  0.00  0.00     0.285 S 
ATOM     17  O   UNL d   1     -51.637  23.538  33.309  0.00  0.00    -0.198 OA
ATOM     18  O   UNL d   1     -52.273  24.402  33.791  0.00  0.00    -0.198 OA
BRANCH  16  19
ATOM     19  C   UNL d   1     -50.651  24.102  33.598  0.00  0.00     0.105 A 
ATOM     20  C   UNL d   1     -50.138  24.719  33.405  0.00  0.00     0.015 A 
ATOM     21  C   UNL d   1     -49.330  24.581  33.308  0.00  0.00     0.030 A 
ATOM     22  C   UNL d   1     -49.039  23.805  33.408  0.00  0.00     0.140 A 
ATOM     23  C   UNL d   1     -49.552  23.188  33.601  0.00  0.00     0.030 A 
ATOM     24  F   UNL d   1     -48.219  23.658  33.311  0.00  0.00    -0.204 F 
ATOM     25  C   UNL d   1     -50.358  23.337  33.695  0.00  0.00     0.015 A 
ENDBRANCH  16  19
ENDBRANCH  15  16
ENDBRANCH  14  15
ENDBRANCH   1  14
BRANCH   1  26
ATOM     26  C   UNL d   1     -51.527  27.015  34.033  0.00  0.00     0.118 A 
ATOM     27  O   UNL d   1     -50.793  27.387  34.039  0.00  0.00    -0.304 OA
ATOM     28  C   UNL d   1     -50.853  28.079  33.586  0.00  0.00     0.123 A 
ATOM     29  C   UNL d   1     -51.617  28.130  33.306  0.00  0.00     0.029 A 
ATOM     30  C   UNL d   1     -52.036  27.473  33.581  0.00  0.00     0.028 A 
ENDBRANCH   1  26
TORSDOF 7
ENDMDL
MODEL 2
REMARK VINA RESULT:      93.3      1.673      2.138
REMARK  7 active torsions:
REMARK  status: ('A' for Active; 'I' for Inactive)
REMARK    1  A    between atoms: N_4  and  S_1 
REMARK    2  A    between atoms: C_8  and  S_1 
REMARK    3  A    between atoms: N_2  and  C_3 
REMARK    4  A    between atoms: C_3  and  C_6 
REMARK    5  A    between atoms: C_7  and  C_3 
REMARK    6  A    between atoms: C_6  and  N_4 
REMARK    7  A    between atoms: C_17  and  N_5 
ROOT
ATOM      1  C   UNL d   1     -51.158  26.134  34.451  0.00  0.00     0.107 C 
ENDROOT
BRANCH   1   2
ATOM      2  N   UNL d   1     -51.267  26.145  35.269  0.00  0.00    -0.298 N 
ATOM      3  C   UNL d   1     -52.022  26.254  35.585  0.00  0.00     0.100 A 
ATOM      4  C   UNL d   1     -52.131  26.264  36.403  0.00  0.00     0.100 A 
ATOM      5  N   UNL d   1     -51.484  26.165  36.906  0.00  0.00    -0.301 N 
ATOM      6  C   UNL d   1     -50.733  26.056  36.588  0.00  0.00     0.100 A 
ATOM      7  C   UNL d   1     -50.621  26.046  35.772  0.00  0.00     0.100 A 
BRANCH   5   8
ATOM      8  C   UNL d   1     -51.593  26.176  37.717  0.00  0.00     0.064 A 
ATOM      9  C   UNL d   1     -51.324  26.809  38.162  0.00  0.00     0.018 A 
ATOM     10  C   UNL d   1     -51.432  26.822  38.978  0.00  0.00     0.002 A 
ATOM     11  C   UNL d   1     -51.815  26.192  39.350  0.00  0.00     0.000 A 
ATOM     12  C   UNL d   1     -52.087  25.553  38.903  0.00  0.00     0.002 A 
ATOM     13  C   UNL d   1     -51.976  25.546  38.089  0.00  0.00     0.018 A 
ENDBRANCH   5   8
ENDBRANCH   1   2
BRANCH   1  14
ATOM     14  C   UNL d   1     -51.148  25.424  34.029  0.00  0.00     0.132 C 
BRANCH  14  15
ATOM     15  N   UNL d   1     -51.754  24.860  34.164  0.00  0.00    -0.155 NA
BRANCH  15  16
ATOM     16  S   UNL d   1     -51.602  24.062  34.043  0.00  0.00     0.285 S 
ATOM     17  O   UNL d   1     -51.461  23.256  33.920  0.00  0.00    -0.198 OA
ATOM     18  O   UNL d   1     -50.793  24.191  34.170  0.00  0.00    -0.198 OA
BRANCH  16  19
ATOM     19  C   UNL d   1     -52.414  23.937  33.917  0.00  0.00     0.105 A 
ATOM     20  C   UNL d   1     -52.970  24.432  34.273  0.00  0.00     0.015 A 
ATOM     21  C   UNL d   1     -53.778  24.315  34.152  0.00  0.00     0.030 A 
ATOM     22  C   UNL d   1     -54.026  23.685  33.664  0.00  0.00     0.140 A 
ATOM     23  C   UNL d   1     -53.471  23.189  33.309  0.00  0.00     0.030 A 
ATOM     24  F   UNL d   1     -54.845  23.560  33.538  0.00  0.00    -0.204 F 
ATOM     25  C   UNL d   1     -52.665  23.315  33.435  0.00  0.00     0.015 A 
ENDBRANCH  16  19
ENDBRANCH  15  16
ENDBRANCH  14  15
ENDBRANCH   1  14
BRANCH   1  26
ATOM     26  C   UNL d   1     -51.056  26.857  34.037  0.00  0.00     0.118 A 
ATOM     27  O   UNL d   1     -50.328  27.240  34.041  0.00  0.00    -0.304 OA
ATOM     28  C   UNL d   1     -50.399  27.931  33.588  0.00  0.00     0.123 A 
ATOM     29  C   UNL d   1     -51.164  27.970  33.309  0.00  0.00     0.029 A 
ATOM     30  C   UNL d   1     -51.573  27.306  33.586  0.00  0.00     0.028 A 
ENDBRANCH   1  26
TORSDOF 7
ENDMDL
