MODEL 1
REMARK VINA RESULT:      -1.2      0.000      0.000
REMARK  7 active torsions:
REMARK  status: ('A' for Active; 'I' for Inactive)
REMARK    1  A    between atoms: C_14  and  N_3 
REMARK    2  A    between atoms: C_10  and  C_6 
REMARK    3  A    between atoms: C_15  and  C_14 
REMARK    4  A    between atoms: C_20  and  C_15 
REMARK    5  A    between atoms: N_16  and  C_20 
REMARK    6  A    between atoms: C_23  and  N_16 
REMARK    7  A    between atoms: C_24  and  N_16 
ROOT
ATOM      1  C   UNL d   1      30.399  16.924 -24.106  0.00  0.00     0.083 A 
ATOM      2  C   UNL d   1      29.986  17.562 -24.398  0.00  0.00     0.161 A 
ATOM      3  N   UNL d   1      31.260  17.763 -24.653  0.00  0.00    -0.272 N 
ATOM      4  C   UNL d   1      30.517  18.081 -24.736  0.00  0.00     0.288 A 
ATOM      5  C   UNL d   1      30.003  16.313 -23.735  0.00  0.00     0.201 A 
ATOM      6  C   UNL d   1      31.189  17.050 -24.265  0.00  0.00     0.074 A 
ATOM      7  O   UNL d   1      29.168  17.589 -24.318  0.00  0.00    -0.302 OA
ATOM      8  C   UNL d   1      29.182  16.344 -23.656  0.00  0.00     0.062 A 
ATOM      9  C   UNL d   1      28.770  16.982 -23.948  0.00  0.00     0.103 A 
ATOM     10  O   UNL d   1      30.331  18.799 -25.097  0.00  0.00    -0.264 OA
ATOM     11  O   UNL d   1      30.428  15.657 -23.435  0.00  0.00    -0.286 OA
ATOM     12  C   UNL d   1      28.787  15.732 -23.285  0.00  0.00     0.005 A 
ATOM     13  C   UNL d   1      27.959  17.012 -23.871  0.00  0.00     0.025 A 
ATOM     14  C   UNL d   1      27.974  15.767 -23.209  0.00  0.00     0.000 A 
ATOM     15  C   UNL d   1      27.561  16.405 -23.501  0.00  0.00     0.002 A 
ENDROOT
BRANCH   3  16
ATOM     16  C   UNL d   1      31.969  18.101 -24.915  0.00  0.00     0.085 C 
BRANCH  16  17
ATOM     17  C   UNL d   1      32.143  18.901 -24.740  0.00  0.00     0.038 C 
BRANCH  17  18
ATOM     18  C   UNL d   1      32.885  19.109 -24.435  0.00  0.00     0.082 C 
BRANCH  18  19
ATOM     19  N   UNL d   1      33.037  19.894 -24.209  0.00  0.00    -0.302 N 
BRANCH  19  20
ATOM     20  C   UNL d   1      33.241  20.067 -23.422  0.00  0.00     0.080 C 
ATOM     21  C   UNL d   1      32.668  20.006 -22.820  0.00  0.00     0.021 C 
ENDBRANCH  19  20
BRANCH  19  22
ATOM     22  C   UNL d   1      32.985  20.507 -24.771  0.00  0.00     0.080 C 
ATOM     23  C   UNL d   1      33.236  21.277 -24.576  0.00  0.00     0.021 C 
ENDBRANCH  19  22
ENDBRANCH  18  19
ENDBRANCH  17  18
ENDBRANCH  16  17
ENDBRANCH   3  16
BRANCH   6  24
ATOM     24  C   UNL d   1      31.811  16.535 -24.063  0.00  0.00     0.036 A 
ATOM     25  C   UNL d   1      32.138  16.559 -23.298  0.00  0.00     0.100 A 
ATOM     26  N   UNL d   1      32.757  16.047 -23.095  0.00  0.00    -0.242 NA
ATOM     27  C   UNL d   1      33.055  15.505 -23.658  0.00  0.00     0.099 A 
ATOM     28  C   UNL d   1      32.725  15.484 -24.423  0.00  0.00     0.021 A 
ATOM     29  C   UNL d   1      32.105  15.997 -24.626  0.00  0.00     0.005 A 
ENDBRANCH   6  24
TORSDOF 7
ENDMDL
MODEL 2
REMARK VINA RESULT:       0.6      3.168      6.379
REMARK  7 active torsions:
REMARK  status: ('A' for Active; 'I' for Inactive)
REMARK    1  A    between atoms: C_14  and  N_3 
REMARK    2  A    between atoms: C_10  and  C_6 
REMARK    3  A    between atoms: C_15  and  C_14 
REMARK    4  A    between atoms: C_20  and  C_15 
REMARK    5  A    between atoms: N_16  and  C_20 
REMARK    6  A    between atoms: C_23  and  N_16 
REMARK    7  A    between atoms: C_24  and  N_16 
ROOT
ATOM      1  C   UNL d   1      32.901  22.180 -21.659  0.00  0.00     0.083 A 
ATOM      2  C   UNL d   1      33.031  21.500 -21.231  0.00  0.00     0.161 A 
ATOM      3  N   UNL d   1      33.019  21.173 -22.504  0.00  0.00    -0.272 N 
ATOM      4  C   UNL d   1      33.105  20.878 -21.752  0.00  0.00     0.288 A 
ATOM      5  C   UNL d   1      32.806  22.896 -21.275  0.00  0.00     0.201 A 
ATOM      6  C   UNL d   1      32.894  21.976 -22.448  0.00  0.00     0.074 A 
ATOM      7  O   UNL d   1      33.067  21.536 -20.410  0.00  0.00    -0.302 OA
ATOM      8  C   UNL d   1      32.842  22.928 -20.452  0.00  0.00     0.062 A 
ATOM      9  C   UNL d   1      32.973  22.248 -20.024  0.00  0.00     0.103 A 
ATOM     10  O   UNL d   1      33.241  20.089 -21.550  0.00  0.00    -0.264 OA
ATOM     11  O   UNL d   1      32.672  23.595 -21.715  0.00  0.00    -0.286 OA
ATOM     12  C   UNL d   1      32.747  23.643 -20.068  0.00  0.00     0.005 A 
ATOM     13  C   UNL d   1      33.009  22.279 -19.210  0.00  0.00     0.025 A 
ATOM     14  C   UNL d   1      32.784  23.671 -19.252  0.00  0.00     0.000 A 
ATOM     15  C   UNL d   1      32.914  22.990 -18.825  0.00  0.00     0.002 A 
ENDROOT
BRANCH   3  16
ATOM     16  C   UNL d   1      33.054  20.738 -23.208  0.00  0.00     0.085 C 
BRANCH  16  17
ATOM     17  C   UNL d   1      32.807  19.937 -23.220  0.00  0.00     0.038 C 
BRANCH  17  18
ATOM     18  C   UNL d   1      33.007  19.450 -23.858  0.00  0.00     0.082 C 
BRANCH  18  19
ATOM     19  N   UNL d   1      32.607  18.731 -23.974  0.00  0.00    -0.302 N 
BRANCH  19  20
ATOM     20  C   UNL d   1      32.588  18.164 -23.367  0.00  0.00     0.080 C 
ATOM     21  C   UNL d   1      32.341  17.385 -23.531  0.00  0.00     0.021 C 
ENDBRANCH  19  20
BRANCH  19  22
ATOM     22  C   UNL d   1      32.225  18.579 -24.699  0.00  0.00     0.080 C 
ATOM     23  C   UNL d   1      31.667  19.119 -25.001  0.00  0.00     0.021 C 
ENDBRANCH  19  22
ENDBRANCH  18  19
ENDBRANCH  17  18
ENDBRANCH  16  17
ENDBRANCH   3  16
BRANCH   6  24
ATOM     24  C   UNL d   1      32.778  22.502 -23.083  0.00  0.00     0.036 A 
ATOM     25  C   UNL d   1      33.236  22.427 -23.774  0.00  0.00     0.100 A 
ATOM     26  N   UNL d   1      33.121  22.949 -24.407  0.00  0.00    -0.242 NA
ATOM     27  C   UNL d   1      32.546  23.553 -24.353  0.00  0.00     0.099 A 
ATOM     28  C   UNL d   1      32.089  23.625 -23.660  0.00  0.00     0.021 A 
ATOM     29  C   UNL d   1      32.204  23.102 -23.027  0.00  0.00     0.005 A 
ENDBRANCH   6  24
TORSDOF 7
ENDMDL
