MODEL 1
REMARK VINA RESULT:      72.8      0.000      0.000
REMARK  9 active torsions:
REMARK  status: ('A' for Active; 'I' for Inactive)
REMARK    1  A    between atoms: C_22  and  N_1 
REMARK    2  A    between atoms: S_10  and  C_2 
REMARK    3  A    between atoms: N_8  and  C_9 
REMARK    4  A    between atoms: C_24  and  S_10 
REMARK    5  A    between atoms: C_11  and  C_24 
REMARK       I    between atoms: N_15  and  C_11 
REMARK    6  A    between atoms: C_13  and  C_25 
REMARK    7  A    between atoms: C_25  and  N_15 
REMARK    8  A    between atoms: C_30  and  C_22 
REMARK    9  A    between atoms: C_31  and  C_30 
ROOT
ATOM      1  N   UNL d   1     -55.313-101.528 -41.314  0.00  0.00    -0.253 N 
ATOM      2  C   UNL d   1     -55.013-102.256 -41.560  0.00  0.00     0.182 A 
ATOM      3  C   UNL d   1     -55.439-100.924 -41.870  0.00  0.00     0.268 A 
ATOM      4  C   UNL d   1     -55.265-101.051 -42.665  0.00  0.00     0.076 A 
ATOM      5  N   UNL d   1     -54.839-102.380 -42.363  0.00  0.00    -0.222 NA
ATOM      6  C   UNL d   1     -54.965-101.779 -42.912  0.00  0.00     0.088 A 
ATOM      7  C   UNL d   1     -55.390-100.450 -43.213  0.00  0.00     0.024 A 
ATOM      8  C   UNL d   1     -55.216-100.576 -44.008  0.00  0.00     0.065 A 
ATOM      9  O   UNL d   1     -55.738-100.196 -41.624  0.00  0.00    -0.267 OA
ATOM     10  C   UNL d   1     -54.790-101.906 -43.706  0.00  0.00     0.021 A 
ATOM     11  C   UNL d   1     -54.916-101.304 -44.255  0.00  0.00     0.019 A 
ENDROOT
BRANCH   2  12
ATOM     12  S   UNL d   1     -54.886-102.862 -41.010  0.00  0.00    -0.044 SA
BRANCH  12  13
ATOM     13  C   UNL d   1     -54.714-102.677 -40.215  0.00  0.00     0.101 C 
BRANCH  13  14
ATOM     14  C   UNL d   1     -55.319-102.689 -39.650  0.00  0.00     0.286 C 
ATOM     15  N   UNL d   1     -55.130-102.630 -38.844  0.00  0.00    -0.204 NA
ATOM     16  O   UNL d   1     -56.104-102.760 -39.894  0.00  0.00    -0.265 OA
BRANCH  15  17
ATOM     17  C   UNL d   1     -55.741-102.643 -38.277  0.00  0.00     0.127 C 
BRANCH  17  18
ATOM     18  C   UNL d   1     -55.548-102.668 -37.469  0.00  0.00     0.119 A 
ATOM     19  O   UNL d   1     -55.982-102.877 -36.806  0.00  0.00    -0.304 OA
ATOM     20  C   UNL d   1     -55.497-102.793 -36.143  0.00  0.00     0.123 A 
ATOM     21  C   UNL d   1     -54.759-102.531 -36.392  0.00  0.00     0.029 A 
ATOM     22  C   UNL d   1     -54.792-102.453 -37.217  0.00  0.00     0.028 A 
ENDBRANCH  17  18
ENDBRANCH  15  17
ENDBRANCH  13  14
ENDBRANCH  12  13
ENDBRANCH   2  12
BRANCH   1  23
ATOM     23  C   UNL d   1     -55.487-101.403 -40.516  0.00  0.00     0.085 C 
BRANCH  23  24
ATOM     24  C   UNL d   1     -55.468-100.638 -40.206  0.00  0.00     0.019 C 
BRANCH  24  25
ATOM     25  C   UNL d   1     -54.743-100.238 -40.137  0.00  0.00     0.002 C 
ATOM     26  C   UNL d   1     -54.726 -99.459 -39.833  0.00  0.00     0.000 C 
ENDBRANCH  24  25
ENDBRANCH  23  24
ENDBRANCH   1  23
BRANCH   8  27
ATOM     27  N   UNL d   1     -55.342 -99.976 -44.556  0.00  0.00    -0.300 N 
ATOM     28  C   UNL d   1     -56.100 -99.639 -44.640  0.00  0.00     0.107 A 
ATOM     29  C   UNL d   1     -56.226 -99.038 -45.189  0.00  0.00     0.142 A 
ATOM     30  O   UNL d   1     -55.598 -98.762 -45.663  0.00  0.00    -0.300 OA
ATOM     31  C   UNL d   1     -54.839 -99.099 -45.579  0.00  0.00     0.142 A 
ATOM     32  C   UNL d   1     -54.717 -99.705 -45.025  0.00  0.00     0.107 A 
ENDBRANCH   8  27
TORSDOF 9
ENDMDL
