MODEL 1
REMARK VINA RESULT:      27.6      0.000      0.000
REMARK  4 active torsions:
REMARK  status: ('A' for Active; 'I' for Inactive)
REMARK    1  A    between atoms: C_3  and  C_1 
REMARK    2  A    between atoms: C_8  and  C_3 
REMARK    3  A    between atoms: C_9  and  C_3 
REMARK    4  A    between atoms: N_5  and  C_9 
ROOT
ATOM      1  C   UNL d   1      44.336 -15.487  36.841  0.00  0.00     0.023 A 
ATOM      2  C   UNL d   1      44.499 -16.278  36.550  0.00  0.00     0.082 A 
ATOM      3  N   UNL d   1      45.293 -16.322  36.382  0.00  0.00    -0.246 NA
ATOM      4  C   UNL d   1      45.040 -15.081  36.838  0.00  0.00     0.019 A 
ATOM      5  C   UNL d   1      45.636 -15.588  36.556  0.00  0.00     0.081 A 
ATOM      6  C   UNL d   1      44.378 -17.020  36.330  0.00  0.00     0.021 C 
ATOM      7  C   UNL d   1      45.223 -14.306  37.056  0.00  0.00     0.002 A 
ATOM      8  C   UNL d   1      46.416 -15.309  36.497  0.00  0.00     0.019 A 
ATOM      9  C   UNL d   1      46.001 -14.048  36.990  0.00  0.00     0.000 A 
ATOM     10  C   UNL d   1      46.597 -14.538  36.714  0.00  0.00     0.002 A 
ENDROOT
BRANCH   1  11
ATOM     11  C   UNL d   1      43.592 -15.214  37.074  0.00  0.00     0.048 C 
BRANCH  11  12
ATOM     12  C   UNL d   1      42.904 -15.533  36.786  0.00  0.00     0.102 A 
ATOM     13  O   UNL d   1      42.782 -16.343  36.606  0.00  0.00    -0.305 OA
ATOM     14  C   UNL d   1      42.014 -16.435  36.330  0.00  0.00     0.123 A 
ATOM     15  C   UNL d   1      41.647 -15.661  36.339  0.00  0.00     0.029 A 
ATOM     16  C   UNL d   1      42.203 -15.129  36.618  0.00  0.00     0.027 A 
ENDBRANCH  11  12
BRANCH  11  17
ATOM     17  C   UNL d   1      43.558 -14.587  37.626  0.00  0.00     0.150 C 
BRANCH  17  18
ATOM     18  N   UNL d   1      42.924 -14.554  38.159  0.00  0.00    -0.112 N 
ATOM     19  O   UNL d   1      42.845 -15.102  38.749  0.00  0.00    -0.532 OA
ATOM     20  O   UNL d   1      42.349 -13.932  38.080  0.00  0.00    -0.532 OA
ENDBRANCH  17  18
ENDBRANCH  11  17
ENDBRANCH   1  11
TORSDOF 4
ENDMDL
MODEL 2
REMARK VINA RESULT:      28.0      1.363      3.458
REMARK  4 active torsions:
REMARK  status: ('A' for Active; 'I' for Inactive)
REMARK    1  A    between atoms: C_3  and  C_1 
REMARK    2  A    between atoms: C_8  and  C_3 
REMARK    3  A    between atoms: C_9  and  C_3 
REMARK    4  A    between atoms: N_5  and  C_9 
ROOT
ATOM      1  C   UNL d   1      43.974 -15.452  37.118  0.00  0.00     0.023 A 
ATOM      2  C   UNL d   1      43.796 -14.662  37.402  0.00  0.00     0.082 A 
ATOM      3  N   UNL d   1      42.999 -14.538  37.310  0.00  0.00    -0.246 NA
ATOM      4  C   UNL d   1      43.274 -15.778  36.863  0.00  0.00     0.019 A 
ATOM      5  C   UNL d   1      42.666 -15.222  36.979  0.00  0.00     0.081 A 
ATOM      6  C   UNL d   1      43.906 -13.949  37.706  0.00  0.00     0.021 C 
ATOM      7  C   UNL d   1      43.104 -16.518  36.538  0.00  0.00     0.002 A 
ATOM      8  C   UNL d   1      41.888 -15.415  36.764  0.00  0.00     0.019 A 
ATOM      9  C   UNL d   1      42.327 -16.691  36.331  0.00  0.00     0.000 A 
ATOM     10  C   UNL d   1      41.720 -16.151  36.440  0.00  0.00     0.002 A 
ENDROOT
BRANCH   1  11
ATOM     11  C   UNL d   1      44.726 -15.795  37.113  0.00  0.00     0.048 C 
BRANCH  11  12
ATOM     12  C   UNL d   1      45.393 -15.372  36.932  0.00  0.00     0.102 A 
ATOM     13  O   UNL d   1      45.655 -14.683  37.331  0.00  0.00    -0.305 OA
ATOM     14  C   UNL d   1      46.350 -14.425  36.977  0.00  0.00     0.123 A 
ATOM     15  C   UNL d   1      46.527 -14.970  36.340  0.00  0.00     0.029 A 
ATOM     16  C   UNL d   1      45.935 -15.536  36.330  0.00  0.00     0.027 A 
ENDBRANCH  11  12
BRANCH  11  17
ATOM     17  C   UNL d   1      44.789 -16.607  37.304  0.00  0.00     0.150 C 
BRANCH  17  18
ATOM     18  N   UNL d   1      45.034 -16.823  38.067  0.00  0.00    -0.112 N 
ATOM     19  O   UNL d   1      44.496 -16.944  38.660  0.00  0.00    -0.532 OA
ATOM     20  O   UNL d   1      45.865 -16.918  38.224  0.00  0.00    -0.532 OA
ENDBRANCH  17  18
ENDBRANCH  11  17
ENDBRANCH   1  11
TORSDOF 4
ENDMDL
MODEL 3
REMARK VINA RESULT:      28.2      6.958      7.496
REMARK  4 active torsions:
REMARK  status: ('A' for Active; 'I' for Inactive)
REMARK    1  A    between atoms: C_3  and  C_1 
REMARK    2  A    between atoms: C_8  and  C_3 
REMARK    3  A    between atoms: C_9  and  C_3 
REMARK    4  A    between atoms: N_5  and  C_9 
ROOT
ATOM      1  C   UNL d   1      46.333 -19.009  42.658  0.00  0.00     0.023 A 
ATOM      2  C   UNL d   1      46.516 -19.729  42.227  0.00  0.00     0.082 A 
ATOM      3  N   UNL d   1      46.647 -20.318  42.771  0.00  0.00    -0.246 NA
ATOM      4  C   UNL d   1      46.360 -19.191  43.450  0.00  0.00     0.019 A 
ATOM      5  C   UNL d   1      46.553 -19.996  43.529  0.00  0.00     0.081 A 
ATOM      6  C   UNL d   1      46.645 -20.211  41.624  0.00  0.00     0.021 C 
ATOM      7  C   UNL d   1      46.234 -18.726  44.120  0.00  0.00     0.002 A 
ATOM      8  C   UNL d   1      46.618 -20.329  44.288  0.00  0.00     0.019 A 
ATOM      9  C   UNL d   1      46.302 -19.073  44.863  0.00  0.00     0.000 A 
ATOM     10  C   UNL d   1      46.491 -19.866  44.954  0.00  0.00     0.002 A 
ENDROOT
BRANCH   1  11
ATOM     11  C   UNL d   1      46.164 -18.280  42.309  0.00  0.00     0.048 C 
BRANCH  11  12
ATOM     12  C   UNL d   1      46.060 -17.605  42.747  0.00  0.00     0.102 A 
ATOM     13  O   UNL d   1      45.462 -17.486  43.323  0.00  0.00    -0.305 OA
ATOM     14  C   UNL d   1      45.549 -16.732  43.637  0.00  0.00     0.123 A 
ATOM     15  C   UNL d   1      46.221 -16.370  43.245  0.00  0.00     0.029 A 
ATOM     16  C   UNL d   1      46.515 -16.916  42.710  0.00  0.00     0.027 A 
ENDBRANCH  11  12
BRANCH  11  17
ATOM     17  C   UNL d   1      46.100 -18.247  41.476  0.00  0.00     0.150 C 
BRANCH  17  18
ATOM     18  N   UNL d   1      45.362 -18.080  41.136  0.00  0.00    -0.112 N 
ATOM     19  O   UNL d   1      44.675 -18.212  41.543  0.00  0.00    -0.532 OA
ATOM     20  O   UNL d   1      45.331 -17.766  40.346  0.00  0.00    -0.532 OA
ENDBRANCH  17  18
ENDBRANCH  11  17
ENDBRANCH   1  11
TORSDOF 4
ENDMDL
MODEL 4
REMARK VINA RESULT:      28.2      6.902      7.800
REMARK  4 active torsions:
REMARK  status: ('A' for Active; 'I' for Inactive)
REMARK    1  A    between atoms: C_3  and  C_1 
REMARK    2  A    between atoms: C_8  and  C_3 
REMARK    3  A    between atoms: C_9  and  C_3 
REMARK    4  A    between atoms: N_5  and  C_9 
ROOT
ATOM      1  C   UNL d   1      44.704 -14.133  44.305  0.00  0.00     0.023 A 
ATOM      2  C   UNL d   1      43.911 -14.330  44.569  0.00  0.00     0.082 A 
ATOM      3  N   UNL d   1      43.393 -13.830  44.193  0.00  0.00    -0.246 NA
ATOM      4  C   UNL d   1      44.635 -13.519  43.777  0.00  0.00     0.019 A 
ATOM      5  C   UNL d   1      43.829 -13.325  43.701  0.00  0.00     0.081 A 
ATOM      6  C   UNL d   1      43.334 -14.693  44.954  0.00  0.00     0.021 C 
ATOM      7  C   UNL d   1      45.204 -13.104  43.347  0.00  0.00     0.002 A 
ATOM      8  C   UNL d   1      43.603 -12.711  43.190  0.00  0.00     0.019 A 
ATOM      9  C   UNL d   1      44.961 -12.498  42.846  0.00  0.00     0.000 A 
ATOM     10  C   UNL d   1      44.170 -12.298  42.763  0.00  0.00     0.002 A 
ENDROOT
BRANCH   1  11
ATOM     11  C   UNL d   1      45.393 -14.513  44.557  0.00  0.00     0.048 C 
BRANCH  11  12
ATOM     12  C   UNL d   1      45.523 -15.303  44.430  0.00  0.00     0.102 A 
ATOM     13  O   UNL d   1      45.320 -15.723  43.733  0.00  0.00    -0.305 OA
ATOM     14  C   UNL d   1      45.544 -16.508  43.827  0.00  0.00     0.123 A 
ATOM     15  C   UNL d   1      45.897 -16.579  44.605  0.00  0.00     0.029 A 
ATOM     16  C   UNL d   1      45.874 -15.838  44.953  0.00  0.00     0.027 A 
ENDBRANCH  11  12
BRANCH  11  17
ATOM     17  C   UNL d   1      45.971 -14.057  44.955  0.00  0.00     0.150 C 
BRANCH  17  18
ATOM     18  N   UNL d   1      46.421 -13.512  44.522  0.00  0.00    -0.112 N 
ATOM     19  O   UNL d   1      46.647 -12.805  44.848  0.00  0.00    -0.532 OA
ATOM     20  O   UNL d   1      46.647 -13.701  43.725  0.00  0.00    -0.532 OA
ENDBRANCH  17  18
ENDBRANCH  11  17
ENDBRANCH   1  11
TORSDOF 4
ENDMDL
MODEL 5
REMARK VINA RESULT:      28.9      1.137      2.027
REMARK  4 active torsions:
REMARK  status: ('A' for Active; 'I' for Inactive)
REMARK    1  A    between atoms: C_3  and  C_1 
REMARK    2  A    between atoms: C_8  and  C_3 
REMARK    3  A    between atoms: C_9  and  C_3 
REMARK    4  A    between atoms: N_5  and  C_9 
ROOT
ATOM      1  C   UNL d   1      44.351 -14.891  37.208  0.00  0.00     0.023 A 
ATOM      2  C   UNL d   1      44.123 -14.340  37.825  0.00  0.00     0.082 A 
ATOM      3  N   UNL d   1      44.755 -13.850  37.968  0.00  0.00    -0.246 NA
ATOM      4  C   UNL d   1      45.117 -14.713  37.000  0.00  0.00     0.019 A 
ATOM      5  C   UNL d   1      45.375 -14.072  37.463  0.00  0.00     0.081 A 
ATOM      6  C   UNL d   1      43.683 -13.984  38.366  0.00  0.00     0.021 C 
ATOM      7  C   UNL d   1      45.622 -15.053  36.442  0.00  0.00     0.002 A 
ATOM      8  C   UNL d   1      46.144 -13.777  37.362  0.00  0.00     0.019 A 
ATOM      9  C   UNL d   1      46.381 -14.746  36.356  0.00  0.00     0.000 A 
ATOM     10  C   UNL d   1      46.646 -14.116  36.807  0.00  0.00     0.002 A 
ENDROOT
BRANCH   1  11
ATOM     11  C   UNL d   1      43.865 -15.483  36.900  0.00  0.00     0.048 C 
BRANCH  11  12
ATOM     12  C   UNL d   1      44.045 -16.270  36.968  0.00  0.00     0.102 A 
ATOM     13  O   UNL d   1      44.042 -16.710  37.683  0.00  0.00    -0.305 OA
ATOM     14  C   UNL d   1      44.256 -17.484  37.513  0.00  0.00     0.123 A 
ATOM     15  C   UNL d   1      44.397 -17.529  36.669  0.00  0.00     0.029 A 
ATOM     16  C   UNL d   1      44.263 -16.783  36.359  0.00  0.00     0.027 A 
ENDBRANCH  11  12
BRANCH  11  17
ATOM     17  C   UNL d   1      43.164 -15.252  36.505  0.00  0.00     0.150 C 
BRANCH  17  18
ATOM     18  N   UNL d   1      42.432 -15.485  36.817  0.00  0.00    -0.112 N 
ATOM     19  O   UNL d   1      42.218 -15.289  37.573  0.00  0.00    -0.532 OA
ATOM     20  O   UNL d   1      41.900 -15.937  36.331  0.00  0.00    -0.532 OA
ENDBRANCH  17  18
ENDBRANCH  11  17
ENDBRANCH   1  11
TORSDOF 4
ENDMDL
MODEL 6
REMARK VINA RESULT:      30.1      7.035      7.935
REMARK  4 active torsions:
REMARK  status: ('A' for Active; 'I' for Inactive)
REMARK    1  A    between atoms: C_3  and  C_1 
REMARK    2  A    between atoms: C_8  and  C_3 
REMARK    3  A    between atoms: C_9  and  C_3 
REMARK    4  A    between atoms: N_5  and  C_9 
ROOT
ATOM      1  C   UNL d   1      45.695 -14.928  44.123  0.00  0.00     0.023 A 
ATOM      2  C   UNL d   1      46.076 -14.816  43.363  0.00  0.00     0.082 A 
ATOM      3  N   UNL d   1      46.323 -15.543  43.098  0.00  0.00    -0.246 NA
ATOM      4  C   UNL d   1      45.726 -15.723  44.291  0.00  0.00     0.019 A 
ATOM      5  C   UNL d   1      46.112 -16.110  43.664  0.00  0.00     0.081 A 
ATOM      6  C   UNL d   1      46.354 -14.453  42.727  0.00  0.00     0.021 C 
ATOM      7  C   UNL d   1      45.452 -16.154  44.939  0.00  0.00     0.002 A 
ATOM      8  C   UNL d   1      46.220 -16.933  43.695  0.00  0.00     0.019 A 
ATOM      9  C   UNL d   1      45.567 -16.969  44.952  0.00  0.00     0.000 A 
ATOM     10  C   UNL d   1      45.946 -17.362  44.341  0.00  0.00     0.002 A 
ENDROOT
BRANCH   1  11
ATOM     11  C   UNL d   1      45.365 -14.325  44.581  0.00  0.00     0.048 C 
BRANCH  11  12
ATOM     12  C   UNL d   1      45.728 -13.606  44.676  0.00  0.00     0.102 A 
ATOM     13  O   UNL d   1      45.378 -12.860  44.522  0.00  0.00    -0.305 OA
ATOM     14  C   UNL d   1      45.929 -12.274  44.688  0.00  0.00     0.123 A 
ATOM     15  C   UNL d   1      46.644 -12.667  44.953  0.00  0.00     0.029 A 
ATOM     16  C   UNL d   1      46.500 -13.472  44.938  0.00  0.00     0.027 A 
ENDBRANCH  11  12
BRANCH  11  17
ATOM     17  C   UNL d   1      44.631 -14.470  44.954  0.00  0.00     0.150 C 
BRANCH  17  18
ATOM     18  N   UNL d   1      43.934 -14.214  44.584  0.00  0.00    -0.112 N 
ATOM     19  O   UNL d   1      43.257 -14.658  44.615  0.00  0.00    -0.532 OA
ATOM     20  O   UNL d   1      43.934 -13.474  44.166  0.00  0.00    -0.532 OA
ENDBRANCH  17  18
ENDBRANCH  11  17
ENDBRANCH   1  11
TORSDOF 4
ENDMDL
