MODEL 1
REMARK VINA RESULT:      12.2      0.000      0.000
REMARK  1 active torsions:
REMARK  status: ('A' for Active; 'I' for Inactive)
REMARK       I    between atoms: N_2  and  C_1 
REMARK    1  A    between atoms: C_5  and  N_2 
ROOT
ATOM      1  C   UNL d   1      58.409  49.704  50.788  0.00  0.00     0.100 A 
ATOM      2  C   UNL d   1      60.046  49.701  50.585  0.00  0.00     0.000 A 
ATOM      3  C   UNL d   1      58.908  49.701  51.448  0.00  0.00     0.020 A 
ATOM      4  C   UNL d   1      58.728  49.706  50.028  0.00  0.00     0.020 A 
ATOM      5  C   UNL d   1      59.727  49.699  51.345  0.00  0.00     0.002 A 
ATOM      6  C   UNL d   1      59.547  49.705  49.926  0.00  0.00     0.002 A 
ATOM      7  C   UNL d   1      60.868  49.699  50.480  0.00  0.00     0.000 C 
ENDROOT
BRANCH   1   8
ATOM      8  N   UNL d   1      57.588  49.706  50.887  0.00  0.00    -0.056 NA
ATOM      9  C   UNL d   1      57.094  49.695  50.232  0.00  0.00     0.787 C 
ATOM     10  N   UNL d   1      56.267  49.697  50.324  0.00  0.00     0.064 N 
ATOM     11  N   UNL d   1      57.422  49.683  49.473  0.00  0.00     0.064 N 
ENDBRANCH   1   8
TORSDOF 1
ENDMDL
