MODEL 1
REMARK VINA RESULT:      -1.6      0.000      0.000
REMARK  5 active torsions:
REMARK  status: ('A' for Active; 'I' for Inactive)
REMARK    1  A    between atoms: N_8  and  S_1 
REMARK    2  A    between atoms: C_18  and  S_1 
REMARK    3  A    between atoms: C_13  and  C_3 
REMARK    4  A    between atoms: C_5  and  C_11 
REMARK    5  A    between atoms: C_17  and  N_8 
ROOT
ATOM      1  N   UNL d   1      33.110  20.265 -21.620  0.00  0.00    -0.246 NA
ATOM      2  C   UNL d   1      32.838  21.645 -22.491  0.00  0.00     0.003 A 
ATOM      3  C   UNL d   1      32.969  21.686 -21.676  0.00  0.00     0.018 A 
ATOM      4  C   UNL d   1      32.979  20.220 -22.434  0.00  0.00     0.081 A 
ATOM      5  C   UNL d   1      32.843  20.909 -22.868  0.00  0.00     0.019 A 
ATOM      6  C   UNL d   1      33.105  20.998 -21.241  0.00  0.00     0.081 A 
ATOM      7  C   UNL d   1      32.964  22.422 -21.299  0.00  0.00     0.002 A 
ATOM      8  C   UNL d   1      33.236  21.042 -20.428  0.00  0.00     0.019 A 
ATOM      9  C   UNL d   1      33.096  22.464 -20.484  0.00  0.00     0.000 A 
ATOM     10  C   UNL d   1      33.232  21.776 -20.049  0.00  0.00     0.002 A 
ATOM     11  C   UNL d   1      33.086  23.169 -20.154  0.00  0.00     0.000 C 
ENDROOT
BRANCH   4  12
ATOM     12  C   UNL d   1      32.983  19.487 -22.812  0.00  0.00     0.018 A 
ATOM     13  C   UNL d   1      32.764  19.430 -23.604  0.00  0.00     0.003 A 
ATOM     14  C   UNL d   1      32.769  18.697 -23.982  0.00  0.00     0.020 A 
ATOM     15  C   UNL d   1      32.994  18.021 -23.566  0.00  0.00     0.094 A 
ATOM     16  C   UNL d   1      33.213  18.077 -22.774  0.00  0.00     0.020 A 
ATOM     17  C   UNL d   1      33.208  18.811 -22.396  0.00  0.00     0.003 A 
BRANCH  15  18
ATOM     18  N   UNL d   1      32.999  17.288 -23.944  0.00  0.00    -0.158 NA
BRANCH  18  19
ATOM     19  S   UNL d   1      32.344  16.788 -23.886  0.00  0.00     0.286 S 
ATOM     20  O   UNL d   1      31.731  16.321 -23.832  0.00  0.00    -0.198 OA
ATOM     21  O   UNL d   1      31.959  17.225 -24.473  0.00  0.00    -0.198 OA
BRANCH  19  22
ATOM     22  C   UNL d   1      32.729  16.353 -23.301  0.00  0.00     0.117 C 
ATOM     23  C   UNL d   1      32.400  15.597 -23.338  0.00  0.00     0.014 C 
ENDBRANCH  19  22
ENDBRANCH  18  19
ENDBRANCH  15  18
ENDBRANCH   4  12
BRANCH   2  24
ATOM     24  C   UNL d   1      32.704  22.323 -22.919  0.00  0.00     0.000 A 
ATOM     25  C   UNL d   1      32.032  22.777 -22.771  0.00  0.00     0.000 A 
ATOM     26  C   UNL d   1      31.896  23.467 -23.207  0.00  0.00     0.000 A 
ATOM     27  C   UNL d   1      32.432  23.701 -23.789  0.00  0.00     0.000 A 
ATOM     28  C   UNL d   1      33.105  23.245 -23.936  0.00  0.00     0.000 A 
ATOM     29  C   UNL d   1      33.241  22.555 -23.501  0.00  0.00     0.000 A 
ENDBRANCH   2  24
TORSDOF 5
ENDMDL
MODEL 2
REMARK VINA RESULT:       0.3      2.512      5.306
REMARK  5 active torsions:
REMARK  status: ('A' for Active; 'I' for Inactive)
REMARK    1  A    between atoms: N_8  and  S_1 
REMARK    2  A    between atoms: C_18  and  S_1 
REMARK    3  A    between atoms: C_13  and  C_3 
REMARK    4  A    between atoms: C_5  and  C_11 
REMARK    5  A    between atoms: C_17  and  N_8 
ROOT
ATOM      1  N   UNL d   1      32.917  18.237 -23.188  0.00  0.00    -0.246 NA
ATOM      2  C   UNL d   1      31.415  18.072 -23.861  0.00  0.00     0.003 A 
ATOM      3  C   UNL d   1      31.954  17.446 -23.887  0.00  0.00     0.018 A 
ATOM      4  C   UNL d   1      32.380  18.864 -23.161  0.00  0.00     0.081 A 
ATOM      5  C   UNL d   1      31.631  18.782 -23.497  0.00  0.00     0.019 A 
ATOM      6  C   UNL d   1      32.703  17.528 -23.552  0.00  0.00     0.081 A 
ATOM      7  C   UNL d   1      31.737  16.736 -24.252  0.00  0.00     0.002 A 
ATOM      8  C   UNL d   1      33.239  16.902 -23.579  0.00  0.00     0.019 A 
ATOM      9  C   UNL d   1      32.276  16.109 -24.278  0.00  0.00     0.000 A 
ATOM     10  C   UNL d   1      33.025  16.192 -23.942  0.00  0.00     0.002 A 
ATOM     11  C   UNL d   1      32.046  15.453 -24.627  0.00  0.00     0.000 C 
ENDROOT
BRANCH   4  12
ATOM     12  C   UNL d   1      32.594  19.573 -22.798  0.00  0.00     0.018 A 
ATOM     13  C   UNL d   1      32.789  19.585 -21.997  0.00  0.00     0.003 A 
ATOM     14  C   UNL d   1      33.003  20.294 -21.634  0.00  0.00     0.020 A 
ATOM     15  C   UNL d   1      33.022  20.992 -22.073  0.00  0.00     0.094 A 
ATOM     16  C   UNL d   1      32.828  20.981 -22.874  0.00  0.00     0.020 A 
ATOM     17  C   UNL d   1      32.614  20.271 -23.237  0.00  0.00     0.003 A 
BRANCH  15  18
ATOM     18  N   UNL d   1      33.236  21.701 -21.710  0.00  0.00    -0.158 NA
BRANCH  18  19
ATOM     19  S   UNL d   1      32.718  22.343 -21.720  0.00  0.00     0.286 S 
ATOM     20  O   UNL d   1      32.232  22.945 -21.729  0.00  0.00    -0.198 OA
ATOM     21  O   UNL d   1      32.776  22.378 -22.544  0.00  0.00    -0.198 OA
BRANCH  19  22
ATOM     22  C   UNL d   1      32.659  22.308 -20.897  0.00  0.00     0.117 C 
ATOM     23  C   UNL d   1      33.161  22.899 -20.617  0.00  0.00     0.014 C 
ENDBRANCH  19  22
ENDBRANCH  18  19
ENDBRANCH  15  18
ENDBRANCH   4  12
BRANCH   2  24
ATOM     24  C   UNL d   1      30.676  17.990 -24.193  0.00  0.00     0.000 A 
ATOM     25  C   UNL d   1      30.418  18.529 -24.760  0.00  0.00     0.000 A 
ATOM     26  C   UNL d   1      29.667  18.446 -25.097  0.00  0.00     0.000 A 
ATOM     27  C   UNL d   1      29.176  17.825 -24.865  0.00  0.00     0.000 A 
ATOM     28  C   UNL d   1      29.436  17.286 -24.296  0.00  0.00     0.000 A 
ATOM     29  C   UNL d   1      30.187  17.369 -23.959  0.00  0.00     0.000 A 
ENDBRANCH   2  24
TORSDOF 5
ENDMDL
MODEL 3
REMARK VINA RESULT:       0.5      3.103      5.080
REMARK  5 active torsions:
REMARK  status: ('A' for Active; 'I' for Inactive)
REMARK    1  A    between atoms: N_8  and  S_1 
REMARK    2  A    between atoms: C_18  and  S_1 
REMARK    3  A    between atoms: C_13  and  C_3 
REMARK    4  A    between atoms: C_5  and  C_11 
REMARK    5  A    between atoms: C_17  and  N_8 
ROOT
ATOM      1  N   UNL d   1      33.192  20.838 -21.454  0.00  0.00    -0.246 NA
ATOM      2  C   UNL d   1      33.163  21.644 -22.898  0.00  0.00     0.003 A 
ATOM      3  C   UNL d   1      33.165  20.817 -22.882  0.00  0.00     0.018 A 
ATOM      4  C   UNL d   1      33.190  21.664 -21.466  0.00  0.00     0.081 A 
ATOM      5  C   UNL d   1      33.176  22.065 -22.187  0.00  0.00     0.019 A 
ATOM      6  C   UNL d   1      33.180  20.416 -22.162  0.00  0.00     0.081 A 
ATOM      7  C   UNL d   1      33.153  20.396 -23.593  0.00  0.00     0.002 A 
ATOM      8  C   UNL d   1      33.182  19.591 -22.149  0.00  0.00     0.019 A 
ATOM      9  C   UNL d   1      33.155  19.569 -23.578  0.00  0.00     0.000 A 
ATOM     10  C   UNL d   1      33.169  19.168 -22.858  0.00  0.00     0.002 A 
ATOM     11  C   UNL d   1      33.142  19.197 -24.262  0.00  0.00     0.000 C 
ENDROOT
BRANCH   4  12
ATOM     12  C   UNL d   1      33.203  22.086 -20.758  0.00  0.00     0.018 A 
ATOM     13  C   UNL d   1      33.214  21.685 -20.038  0.00  0.00     0.003 A 
ATOM     14  C   UNL d   1      33.227  22.107 -19.330  0.00  0.00     0.020 A 
ATOM     15  C   UNL d   1      33.228  22.933 -19.343  0.00  0.00     0.094 A 
ATOM     16  C   UNL d   1      33.217  23.334 -20.062  0.00  0.00     0.020 A 
ATOM     17  C   UNL d   1      33.204  22.911 -20.771  0.00  0.00     0.003 A 
BRANCH  15  18
ATOM     18  N   UNL d   1      33.241  23.356 -18.634  0.00  0.00    -0.158 NA
BRANCH  18  19
ATOM     19  S   UNL d   1      32.592  23.329 -18.126  0.00  0.00     0.286 S 
ATOM     20  O   UNL d   1      31.983  23.304 -17.649  0.00  0.00    -0.198 OA
ATOM     21  O   UNL d   1      32.084  23.443 -18.768  0.00  0.00    -0.198 OA
BRANCH  19  22
ATOM     22  C   UNL d   1      33.098  23.216 -17.485  0.00  0.00     0.117 C 
ATOM     23  C   UNL d   1      32.771  23.653 -16.867  0.00  0.00     0.014 C 
ENDBRANCH  19  22
ENDBRANCH  18  19
ENDBRANCH  15  18
ENDBRANCH   4  12
BRANCH   2  24
ATOM     24  C   UNL d   1      33.149  22.040 -23.609  0.00  0.00     0.000 A 
ATOM     25  C   UNL d   1      33.239  22.859 -23.625  0.00  0.00     0.000 A 
ATOM     26  C   UNL d   1      33.225  23.261 -24.347  0.00  0.00     0.000 A 
ATOM     27  C   UNL d   1      33.120  22.844 -25.051  0.00  0.00     0.000 A 
ATOM     28  C   UNL d   1      33.029  22.023 -25.033  0.00  0.00     0.000 A 
ATOM     29  C   UNL d   1      33.044  21.621 -24.311  0.00  0.00     0.000 A 
ENDBRANCH   2  24
TORSDOF 5
ENDMDL
