MODEL 1
REMARK VINA RESULT:      40.8      0.000      0.000
REMARK  5 active torsions:
REMARK  status: ('A' for Active; 'I' for Inactive)
REMARK    1  A    between atoms: C_2  and  C_1 
REMARK    2  A    between atoms: S_3  and  C_4 
REMARK    3  A    between atoms: C_7  and  S_3 
REMARK    4  A    between atoms: C_5  and  C_7 
REMARK    5  A    between atoms: C_6  and  C_5 
ROOT
ATOM      1  S   UNL d   1     -56.956 -99.324 -45.060  0.00  0.00    -0.083 SA
ENDROOT
BRANCH   1   2
ATOM      2  C   UNL d   1     -56.198 -99.468 -44.717  0.00  0.00     0.035 A 
ATOM      3  C   UNL d   1     -55.872-100.225 -44.681  0.00  0.00     0.070 A 
ATOM      4  C   UNL d   1     -55.142-100.342 -44.347  0.00  0.00     0.007 A 
ATOM      5  C   UNL d   1     -54.712 -99.715 -44.039  0.00  0.00     0.000 A 
ATOM      6  C   UNL d   1     -55.036 -98.939 -44.070  0.00  0.00     0.001 A 
ATOM      7  C   UNL d   1     -55.786 -98.844 -44.418  0.00  0.00     0.007 A 
BRANCH   3   8
ATOM      8  C   UNL d   1     -56.289-100.861 -44.984  0.00  0.00     0.211 C 
ATOM      9  O   UNL d   1     -56.697-101.367 -44.452  0.00  0.00    -0.644 OA
ATOM     10  O   UNL d   1     -56.309-101.005 -45.799  0.00  0.00    -0.644 OA
ENDBRANCH   3   8
ENDBRANCH   1   2
BRANCH   1  11
ATOM     11  C   UNL d   1     -57.450 -98.807 -44.691  0.00  0.00     0.077 C 
BRANCH  11  12
ATOM     12  C   UNL d   1     -58.274 -98.932 -44.706  0.00  0.00     0.202 C 
ATOM     13  O   UNL d   1     -58.653 -99.030 -45.427  0.00  0.00    -0.286 OA
BRANCH  12  14
ATOM     14  C   UNL d   1     -58.668 -98.950 -43.986  0.00  0.00     0.040 A 
ATOM     15  C   UNL d   1     -59.476 -99.175 -43.992  0.00  0.00     0.003 A 
ATOM     16  C   UNL d   1     -59.886 -99.198 -43.278  0.00  0.00     0.000 A 
ATOM     17  C   UNL d   1     -59.514 -99.009 -42.601  0.00  0.00     0.000 A 
ATOM     18  C   UNL d   1     -58.708 -98.785 -42.598  0.00  0.00     0.000 A 
ATOM     19  C   UNL d   1     -59.933 -99.032 -41.866  0.00  0.00     0.000 C 
ATOM     20  C   UNL d   1     -58.301 -98.764 -43.327  0.00  0.00     0.003 A 
ENDBRANCH  12  14
ENDBRANCH  11  12
ENDBRANCH   1  11
TORSDOF 5
ENDMDL
MODEL 2
REMARK VINA RESULT:      42.9      3.088      4.334
REMARK  5 active torsions:
REMARK  status: ('A' for Active; 'I' for Inactive)
REMARK    1  A    between atoms: C_2  and  C_1 
REMARK    2  A    between atoms: S_3  and  C_4 
REMARK    3  A    between atoms: C_7  and  S_3 
REMARK    4  A    between atoms: C_5  and  C_7 
REMARK    5  A    between atoms: C_6  and  C_5 
ROOT
ATOM      1  S   UNL d   1     -54.815-100.312 -43.016  0.00  0.00    -0.083 SA
ENDROOT
BRANCH   1   2
ATOM      2  C   UNL d   1     -54.955-100.617 -43.791  0.00  0.00     0.035 A 
ATOM      3  C   UNL d   1     -55.328-100.169 -44.376  0.00  0.00     0.070 A 
ATOM      4  C   UNL d   1     -55.454-100.481 -45.114  0.00  0.00     0.007 A 
ATOM      5  C   UNL d   1     -55.214-101.244 -45.297  0.00  0.00     0.000 A 
ATOM      6  C   UNL d   1     -54.833-101.709 -44.708  0.00  0.00     0.001 A 
ATOM      7  C   UNL d   1     -54.716-101.368 -43.959  0.00  0.00     0.007 A 
BRANCH   3   8
ATOM      8  C   UNL d   1     -55.573 -99.406 -44.208  0.00  0.00     0.211 C 
ATOM      9  O   UNL d   1     -54.997 -98.795 -44.181  0.00  0.00    -0.644 OA
ATOM     10  O   UNL d   1     -56.371 -99.238 -44.067  0.00  0.00    -0.644 OA
ENDBRANCH   3   8
ENDBRANCH   1   2
BRANCH   1  11
ATOM     11  C   UNL d   1     -54.761-100.833 -42.405  0.00  0.00     0.077 C 
BRANCH  11  12
ATOM     12  C   UNL d   1     -54.770-100.558 -41.618  0.00  0.00     0.202 C 
ATOM     13  O   UNL d   1     -54.742 -99.751 -41.474  0.00  0.00    -0.286 OA
BRANCH  12  14
ATOM     14  C   UNL d   1     -54.807-101.120 -41.021  0.00  0.00     0.040 A 
ATOM     15  C   UNL d   1     -54.952-101.914 -41.246  0.00  0.00     0.003 A 
ATOM     16  C   UNL d   1     -54.992-102.491 -40.658  0.00  0.00     0.000 A 
ATOM     17  C   UNL d   1     -54.895-102.288 -39.897  0.00  0.00     0.000 A 
ATOM     18  C   UNL d   1     -54.750-101.495 -39.674  0.00  0.00     0.000 A 
ATOM     19  C   UNL d   1     -54.935-102.879 -39.291  0.00  0.00     0.000 C 
ATOM     20  C   UNL d   1     -54.711-100.917 -40.277  0.00  0.00     0.003 A 
ENDBRANCH  12  14
ENDBRANCH  11  12
ENDBRANCH   1  11
TORSDOF 5
ENDMDL
