MODEL 1
REMARK VINA RESULT:      -8.6      0.000      0.000
REMARK  4 active torsions:
REMARK  status: ('A' for Active; 'I' for Inactive)
REMARK    1  A    between atoms: N_4  and  C_8 
REMARK    2  A    between atoms: C_15  and  C_5 
REMARK    3  A    between atoms: O_17  and  C_15 
REMARK    4  A    between atoms: C_16  and  O_17 
ROOT
ATOM      1  C   UNL d   1      54.412  32.298  53.642  0.00  0.00     0.144 C 
ENDROOT
BRANCH   1   2
ATOM      2  C   UNL d   1      54.050  33.000  53.863  0.00  0.00     0.142 A 
ATOM      3  N   UNL d   1      54.066  33.336  54.614  0.00  0.00    -0.057 NA
ATOM      4  C   UNL d   1      53.636  34.027  54.584  0.00  0.00     0.735 A 
ATOM      5  N   UNL d   1      53.351  34.124  53.817  0.00  0.00    -0.136 N 
ATOM      6  N   UNL d   1      53.459  34.595  55.156  0.00  0.00    -0.059 NA
ATOM      7  C   UNL d   1      53.612  33.485  53.384  0.00  0.00     0.120 A 
ATOM      8  C   UNL d   1      52.888  34.778  53.601  0.00  0.00     0.100 A 
ATOM      9  C   UNL d   1      52.710  35.356  54.193  0.00  0.00     0.041 A 
ATOM     10  C   UNL d   1      53.002  35.253  54.969  0.00  0.00     0.119 A 
ENDBRANCH   1   2
BRANCH   1  11
ATOM     11  O   UNL d   1      53.967  31.591  53.586  0.00  0.00    -0.303 OA
BRANCH  11  12
ATOM     12  C   UNL d   1      53.529  30.889  53.529  0.00  0.00     0.102 A 
ATOM     13  C   UNL d   1      53.618  30.290  54.098  0.00  0.00     0.048 A 
ATOM     14  C   UNL d   1      53.187  29.592  54.046  0.00  0.00     0.129 A 
ATOM     15  C   UNL d   1      52.653  29.481  53.415  0.00  0.00     0.024 A 
ATOM     16  C   UNL d   1      52.563  30.077  52.847  0.00  0.00     0.004 A 
ATOM     17  C   UNL d   1      52.999  30.772  52.908  0.00  0.00     0.025 A 
BRANCH  14  18
ATOM     18  N   UNL d   1      53.286  29.006  54.619  0.00  0.00    -0.114 N 
ATOM     19  O   UNL d   1      52.986  29.126  55.382  0.00  0.00    -0.532 OA
ATOM     20  O   UNL d   1      53.677  28.310  54.444  0.00  0.00    -0.532 OA
ENDBRANCH  14  18
ENDBRANCH  11  12
ENDBRANCH   1  11
TORSDOF 4
ENDMDL
MODEL 2
REMARK VINA RESULT:      -7.9      1.820      4.657
REMARK  4 active torsions:
REMARK  status: ('A' for Active; 'I' for Inactive)
REMARK    1  A    between atoms: N_4  and  C_8 
REMARK    2  A    between atoms: C_15  and  C_5 
REMARK    3  A    between atoms: O_17  and  C_15 
REMARK    4  A    between atoms: C_16  and  O_17 
ROOT
ATOM      1  C   UNL d   1      53.752  32.370  52.871  0.00  0.00     0.144 C 
ENDROOT
BRANCH   1   2
ATOM      2  C   UNL d   1      53.526  31.620  53.116  0.00  0.00     0.142 A 
ATOM      3  N   UNL d   1      52.964  31.142  52.754  0.00  0.00    -0.057 NA
ATOM      4  C   UNL d   1      52.917  30.450  53.180  0.00  0.00     0.735 A 
ATOM      5  N   UNL d   1      53.449  30.494  53.808  0.00  0.00    -0.136 N 
ATOM      6  N   UNL d   1      52.457  29.772  53.086  0.00  0.00    -0.059 NA
ATOM      7  C   UNL d   1      53.817  31.218  53.757  0.00  0.00     0.120 A 
ATOM      8  C   UNL d   1      53.536  29.872  54.352  0.00  0.00     0.100 A 
ATOM      9  C   UNL d   1      53.061  29.180  54.248  0.00  0.00     0.041 A 
ATOM     10  C   UNL d   1      52.524  29.141  53.610  0.00  0.00     0.119 A 
ENDBRANCH   1   2
BRANCH   1  11
ATOM     11  O   UNL d   1      53.306  33.041  53.098  0.00  0.00    -0.303 OA
BRANCH  11  12
ATOM     12  C   UNL d   1      52.866  33.708  53.320  0.00  0.00     0.102 A 
ATOM     13  C   UNL d   1      53.142  34.215  53.919  0.00  0.00     0.048 A 
ATOM     14  C   UNL d   1      52.710  34.877  54.142  0.00  0.00     0.129 A 
ATOM     15  C   UNL d   1      51.986  35.046  53.765  0.00  0.00     0.024 A 
ATOM     16  C   UNL d   1      51.709  34.543  53.169  0.00  0.00     0.004 A 
ATOM     17  C   UNL d   1      52.149  33.882  52.952  0.00  0.00     0.025 A 
BRANCH  14  18
ATOM     18  N   UNL d   1      52.998  35.371  54.739  0.00  0.00    -0.114 N 
ATOM     19  O   UNL d   1      52.972  36.192  54.637  0.00  0.00    -0.532 OA
ATOM     20  O   UNL d   1      53.308  35.059  55.428  0.00  0.00    -0.532 OA
ENDBRANCH  14  18
ENDBRANCH  11  12
ENDBRANCH   1  11
TORSDOF 4
ENDMDL
MODEL 3
REMARK VINA RESULT:      -7.4      2.064      4.647
REMARK  4 active torsions:
REMARK  status: ('A' for Active; 'I' for Inactive)
REMARK    1  A    between atoms: N_4  and  C_8 
REMARK    2  A    between atoms: C_15  and  C_5 
REMARK    3  A    between atoms: O_17  and  C_15 
REMARK    4  A    between atoms: C_16  and  O_17 
ROOT
ATOM      1  C   UNL d   1      53.971  32.497  53.261  0.00  0.00     0.144 C 
ENDROOT
BRANCH   1   2
ATOM      2  C   UNL d   1      53.708  31.728  53.371  0.00  0.00     0.142 A 
ATOM      3  N   UNL d   1      53.264  31.288  52.836  0.00  0.00    -0.057 NA
ATOM      4  C   UNL d   1      53.128  30.558  53.170  0.00  0.00     0.735 A 
ATOM      5  N   UNL d   1      53.486  30.540  53.913  0.00  0.00    -0.136 N 
ATOM      6  N   UNL d   1      52.722  29.893  52.902  0.00  0.00    -0.059 NA
ATOM      7  C   UNL d   1      53.839  31.265  54.023  0.00  0.00     0.120 A 
ATOM      8  C   UNL d   1      53.449  29.869  54.400  0.00  0.00     0.100 A 
ATOM      9  C   UNL d   1      53.031  29.191  54.117  0.00  0.00     0.041 A 
ATOM     10  C   UNL d   1      52.670  29.215  53.365  0.00  0.00     0.119 A 
ENDBRANCH   1   2
BRANCH   1  11
ATOM     11  O   UNL d   1      53.437  33.139  53.317  0.00  0.00    -0.303 OA
BRANCH  11  12
ATOM     12  C   UNL d   1      52.910  33.777  53.371  0.00  0.00     0.102 A 
ATOM     13  C   UNL d   1      52.191  33.767  52.954  0.00  0.00     0.048 A 
ATOM     14  C   UNL d   1      51.666  34.397  53.004  0.00  0.00     0.129 A 
ATOM     15  C   UNL d   1      51.853  35.056  53.479  0.00  0.00     0.024 A 
ATOM     16  C   UNL d   1      52.568  35.068  53.896  0.00  0.00     0.004 A 
ATOM     17  C   UNL d   1      53.088  34.433  53.839  0.00  0.00     0.025 A 
BRANCH  14  18
ATOM     18  N   UNL d   1      50.955  34.372  52.582  0.00  0.00    -0.114 N 
ATOM     19  O   UNL d   1      50.973  34.321  51.756  0.00  0.00    -0.532 OA
ATOM     20  O   UNL d   1      50.237  34.396  52.971  0.00  0.00    -0.532 OA
ENDBRANCH  14  18
ENDBRANCH  11  12
ENDBRANCH   1  11
TORSDOF 4
ENDMDL
MODEL 4
REMARK VINA RESULT:      -7.1      2.333      3.003
REMARK  4 active torsions:
REMARK  status: ('A' for Active; 'I' for Inactive)
REMARK    1  A    between atoms: N_4  and  C_8 
REMARK    2  A    between atoms: C_15  and  C_5 
REMARK    3  A    between atoms: O_17  and  C_15 
REMARK    4  A    between atoms: C_16  and  O_17 
ROOT
ATOM      1  C   UNL d   1      52.639  33.998  52.706  0.00  0.00     0.144 C 
ENDROOT
BRANCH   1   2
ATOM      2  C   UNL d   1      51.840  34.167  52.619  0.00  0.00     0.142 A 
ATOM      3  N   UNL d   1      51.398  34.072  51.932  0.00  0.00    -0.057 NA
ATOM      4  C   UNL d   1      50.636  34.307  52.095  0.00  0.00     0.735 A 
ATOM      5  N   UNL d   1      50.600  34.549  52.883  0.00  0.00    -0.136 N 
ATOM      6  N   UNL d   1      49.954  34.337  51.632  0.00  0.00    -0.059 NA
ATOM      7  C   UNL d   1      51.347  34.458  53.193  0.00  0.00     0.120 A 
ATOM      8  C   UNL d   1      49.895  34.822  53.225  0.00  0.00     0.100 A 
ATOM      9  C   UNL d   1      49.200  34.849  52.743  0.00  0.00     0.041 A 
ATOM     10  C   UNL d   1      49.242  34.603  51.946  0.00  0.00     0.119 A 
ENDBRANCH   1   2
BRANCH   1  11
ATOM     11  O   UNL d   1      52.883  33.262  53.022  0.00  0.00    -0.303 OA
BRANCH  11  12
ATOM     12  C   UNL d   1      53.127  32.533  53.333  0.00  0.00     0.102 A 
ATOM     13  C   UNL d   1      52.870  31.822  52.988  0.00  0.00     0.048 A 
ATOM     14  C   UNL d   1      53.110  31.096  53.291  0.00  0.00     0.129 A 
ATOM     15  C   UNL d   1      53.617  31.070  53.953  0.00  0.00     0.024 A 
ATOM     16  C   UNL d   1      53.874  31.778  54.297  0.00  0.00     0.004 A 
ATOM     17  C   UNL d   1      53.629  32.499  53.987  0.00  0.00     0.025 A 
BRANCH  14  18
ATOM     18  N   UNL d   1      52.846  30.398  52.937  0.00  0.00    -0.114 N 
ATOM     19  O   UNL d   1      52.511  29.804  53.407  0.00  0.00    -0.532 OA
ATOM     20  O   UNL d   1      52.911  30.286  52.130  0.00  0.00    -0.532 OA
ENDBRANCH  14  18
ENDBRANCH  11  12
ENDBRANCH   1  11
TORSDOF 4
ENDMDL
MODEL 5
REMARK VINA RESULT:      -6.6      2.430      3.462
REMARK  4 active torsions:
REMARK  status: ('A' for Active; 'I' for Inactive)
REMARK    1  A    between atoms: N_4  and  C_8 
REMARK    2  A    between atoms: C_15  and  C_5 
REMARK    3  A    between atoms: O_17  and  C_15 
REMARK    4  A    between atoms: C_16  and  O_17 
ROOT
ATOM      1  C   UNL d   1      52.525  34.301  52.467  0.00  0.00     0.144 C 
ENDROOT
BRANCH   1   2
ATOM      2  C   UNL d   1      51.710  34.406  52.476  0.00  0.00     0.142 A 
ATOM      3  N   UNL d   1      51.273  34.738  53.087  0.00  0.00    -0.057 NA
ATOM      4  C   UNL d   1      50.491  34.732  52.862  0.00  0.00     0.735 A 
ATOM      5  N   UNL d   1      50.438  34.397  52.111  0.00  0.00    -0.136 N 
ATOM      6  N   UNL d   1      49.803  34.989  53.239  0.00  0.00    -0.059 NA
ATOM      7  C   UNL d   1      51.195  34.201  51.885  0.00  0.00     0.120 A 
ATOM      8  C   UNL d   1      49.710  34.310  51.720  0.00  0.00     0.100 A 
ATOM      9  C   UNL d   1      49.010  34.576  52.114  0.00  0.00     0.041 A 
ATOM     10  C   UNL d   1      49.069  34.914  52.875  0.00  0.00     0.119 A 
ENDBRANCH   1   2
BRANCH   1  11
ATOM     11  O   UNL d   1      52.878  33.695  52.925  0.00  0.00    -0.303 OA
BRANCH  11  12
ATOM     12  C   UNL d   1      53.227  33.098  53.382  0.00  0.00     0.102 A 
ATOM     13  C   UNL d   1      53.656  33.289  54.068  0.00  0.00     0.048 A 
ATOM     14  C   UNL d   1      54.004  32.701  54.525  0.00  0.00     0.129 A 
ATOM     15  C   UNL d   1      53.927  31.902  54.300  0.00  0.00     0.024 A 
ATOM     16  C   UNL d   1      53.500  31.710  53.617  0.00  0.00     0.004 A 
ATOM     17  C   UNL d   1      53.156  32.305  53.166  0.00  0.00     0.025 A 
BRANCH  14  18
ATOM     18  N   UNL d   1      54.427  32.908  55.204  0.00  0.00    -0.114 N 
ATOM     19  O   UNL d   1      55.074  33.420  55.141  0.00  0.00    -0.532 OA
ATOM     20  O   UNL d   1      54.214  32.612  55.936  0.00  0.00    -0.532 OA
ENDBRANCH  14  18
ENDBRANCH  11  12
ENDBRANCH   1  11
TORSDOF 4
ENDMDL
MODEL 6
REMARK VINA RESULT:      -6.5      2.853      4.919
REMARK  4 active torsions:
REMARK  status: ('A' for Active; 'I' for Inactive)
REMARK    1  A    between atoms: N_4  and  C_8 
REMARK    2  A    between atoms: C_15  and  C_5 
REMARK    3  A    between atoms: O_17  and  C_15 
REMARK    4  A    between atoms: C_16  and  O_17 
ROOT
ATOM      1  C   UNL d   1      52.837  33.358  52.757  0.00  0.00     0.144 C 
ENDROOT
BRANCH   1   2
ATOM      2  C   UNL d   1      52.928  32.564  52.946  0.00  0.00     0.142 A 
ATOM      3  N   UNL d   1      52.583  31.931  52.550  0.00  0.00    -0.057 NA
ATOM      4  C   UNL d   1      52.822  31.248  52.922  0.00  0.00     0.735 A 
ATOM      5  N   UNL d   1      53.316  31.451  53.550  0.00  0.00    -0.136 N 
ATOM      6  N   UNL d   1      52.659  30.452  52.778  0.00  0.00    -0.059 NA
ATOM      7  C   UNL d   1      53.372  32.263  53.553  0.00  0.00     0.120 A 
ATOM      8  C   UNL d   1      53.655  30.877  54.044  0.00  0.00     0.100 A 
ATOM      9  C   UNL d   1      53.483  30.063  53.890  0.00  0.00     0.041 A 
ATOM     10  C   UNL d   1      52.982  29.863  53.252  0.00  0.00     0.119 A 
ENDBRANCH   1   2
BRANCH   1  11
ATOM     11  O   UNL d   1      52.077  33.709  52.765  0.00  0.00    -0.303 OA
BRANCH  11  12
ATOM     12  C   UNL d   1      51.326  34.060  52.776  0.00  0.00     0.102 A 
ATOM     13  C   UNL d   1      50.852  34.061  52.093  0.00  0.00     0.048 A 
ATOM     14  C   UNL d   1      50.106  34.407  52.098  0.00  0.00     0.129 A 
ATOM     15  C   UNL d   1      49.819  34.762  52.796  0.00  0.00     0.024 A 
ATOM     16  C   UNL d   1      50.290  34.761  53.478  0.00  0.00     0.004 A 
ATOM     17  C   UNL d   1      51.034  34.413  53.462  0.00  0.00     0.025 A 
BRANCH  14  18
ATOM     18  N   UNL d   1      49.647  34.400  51.412  0.00  0.00    -0.114 N 
ATOM     19  O   UNL d   1      50.019  34.411  50.672  0.00  0.00    -0.532 OA
ATOM     20  O   UNL d   1      48.831  34.383  51.454  0.00  0.00    -0.532 OA
ENDBRANCH  14  18
ENDBRANCH  11  12
ENDBRANCH   1  11
TORSDOF 4
ENDMDL
MODEL 7
REMARK VINA RESULT:      -5.8      2.751      4.256
REMARK  4 active torsions:
REMARK  status: ('A' for Active; 'I' for Inactive)
REMARK    1  A    between atoms: N_4  and  C_8 
REMARK    2  A    between atoms: C_15  and  C_5 
REMARK    3  A    between atoms: O_17  and  C_15 
REMARK    4  A    between atoms: C_16  and  O_17 
ROOT
ATOM      1  C   UNL d   1      52.259  32.687  53.687  0.00  0.00     0.144 C 
ENDROOT
BRANCH   1   2
ATOM      2  C   UNL d   1      52.967  32.965  53.996  0.00  0.00     0.142 A 
ATOM      3  N   UNL d   1      53.050  33.437  54.665  0.00  0.00    -0.057 NA
ATOM      4  C   UNL d   1      53.844  33.580  54.769  0.00  0.00     0.735 A 
ATOM      5  N   UNL d   1      54.259  33.199  54.167  0.00  0.00    -0.136 N 
ATOM      6  N   UNL d   1      54.261  34.011  55.336  0.00  0.00    -0.059 NA
ATOM      7  C   UNL d   1      53.708  32.826  53.699  0.00  0.00     0.120 A 
ATOM      8  C   UNL d   1      55.087  33.237  54.114  0.00  0.00     0.100 A 
ATOM      9  C   UNL d   1      55.506  33.681  54.700  0.00  0.00     0.041 A 
ATOM     10  C   UNL d   1      55.081  34.064  55.307  0.00  0.00     0.119 A 
ENDBRANCH   1   2
BRANCH   1  11
ATOM     11  O   UNL d   1      51.778  33.186  53.218  0.00  0.00    -0.303 OA
BRANCH  11  12
ATOM     12  C   UNL d   1      51.301  33.677  52.751  0.00  0.00     0.102 A 
ATOM     13  C   UNL d   1      50.648  34.070  53.084  0.00  0.00     0.048 A 
ATOM     14  C   UNL d   1      50.171  34.558  52.625  0.00  0.00     0.129 A 
ATOM     15  C   UNL d   1      50.342  34.662  51.816  0.00  0.00     0.024 A 
ATOM     16  C   UNL d   1      50.991  34.272  51.482  0.00  0.00     0.004 A 
ATOM     17  C   UNL d   1      51.462  33.786  51.949  0.00  0.00     0.025 A 
BRANCH  14  18
ATOM     18  N   UNL d   1      49.526  34.942  52.971  0.00  0.00    -0.114 N 
ATOM     19  O   UNL d   1      48.774  34.860  52.634  0.00  0.00    -0.532 OA
ATOM     20  O   UNL d   1      49.621  35.401  53.640  0.00  0.00    -0.532 OA
ENDBRANCH  14  18
ENDBRANCH  11  12
ENDBRANCH   1  11
TORSDOF 4
ENDMDL
MODEL 8
REMARK VINA RESULT:      -5.7      3.621      4.801
REMARK  4 active torsions:
REMARK  status: ('A' for Active; 'I' for Inactive)
REMARK    1  A    between atoms: N_4  and  C_8 
REMARK    2  A    between atoms: C_15  and  C_5 
REMARK    3  A    between atoms: O_17  and  C_15 
REMARK    4  A    between atoms: C_16  and  O_17 
ROOT
ATOM      1  C   UNL d   1      49.895  34.198  52.022  0.00  0.00     0.144 C 
ENDROOT
BRANCH   1   2
ATOM      2  C   UNL d   1      49.357  34.752  52.302  0.00  0.00     0.142 A 
ATOM      3  N   UNL d   1      49.340  35.069  53.060  0.00  0.00    -0.057 NA
ATOM      4  C   UNL d   1      48.719  35.594  53.095  0.00  0.00     0.735 A 
ATOM      5  N   UNL d   1      48.347  35.607  52.359  0.00  0.00    -0.136 N 
ATOM      6  N   UNL d   1      48.431  36.074  53.701  0.00  0.00    -0.059 NA
ATOM      7  C   UNL d   1      48.750  35.085  51.881  0.00  0.00     0.120 A 
ATOM      8  C   UNL d   1      47.689  36.090  52.209  0.00  0.00     0.100 A 
ATOM      9  C   UNL d   1      47.400  36.578  52.837  0.00  0.00     0.041 A 
ATOM     10  C   UNL d   1      47.780  36.561  53.580  0.00  0.00     0.119 A 
ENDBRANCH   1   2
BRANCH   1  11
ATOM     11  O   UNL d   1      50.659  34.145  52.358  0.00  0.00    -0.303 OA
BRANCH  11  12
ATOM     12  C   UNL d   1      51.417  34.088  52.691  0.00  0.00     0.102 A 
ATOM     13  C   UNL d   1      51.769  33.344  52.811  0.00  0.00     0.048 A 
ATOM     14  C   UNL d   1      52.519  33.281  53.141  0.00  0.00     0.129 A 
ATOM     15  C   UNL d   1      52.935  33.971  53.359  0.00  0.00     0.024 A 
ATOM     16  C   UNL d   1      52.586  34.712  53.239  0.00  0.00     0.004 A 
ATOM     17  C   UNL d   1      51.835  34.765  52.909  0.00  0.00     0.025 A 
BRANCH  14  18
ATOM     18  N   UNL d   1      52.855  32.535  53.254  0.00  0.00    -0.114 N 
ATOM     19  O   UNL d   1      52.876  31.997  52.625  0.00  0.00    -0.532 OA
ATOM     20  O   UNL d   1      53.166  32.322  53.979  0.00  0.00    -0.532 OA
ENDBRANCH  14  18
ENDBRANCH  11  12
ENDBRANCH   1  11
TORSDOF 4
ENDMDL
