MODEL 1
REMARK VINA RESULT:      -9.6      0.000      0.000
REMARK  6 active torsions:
REMARK  status: ('A' for Active; 'I' for Inactive)
REMARK    1  A    between atoms: N_3  and  S_1 
REMARK    2  A    between atoms: C_5  and  S_1 
REMARK    3  A    between atoms: S_2  and  N_4 
REMARK    4  A    between atoms: C_6  and  S_2 
REMARK    5  A    between atoms: O_25  and  C_15 
REMARK    6  A    between atoms: O_26  and  C_16 
ROOT
ATOM      1  N   UNL d   1      51.664  33.727  53.327  0.00  0.00    -0.228 N 
ATOM      2  N   UNL d   1      50.247  34.405  52.819  0.00  0.00    -0.226 N 
ATOM      3  C   UNL d   1      51.668  34.450  52.919  0.00  0.00     0.093 A 
ATOM      4  C   UNL d   1      50.967  34.787  52.667  0.00  0.00     0.110 A 
ATOM      5  C   UNL d   1      50.950  33.347  53.479  0.00  0.00     0.111 A 
ATOM      6  C   UNL d   1      50.236  33.686  53.224  0.00  0.00     0.111 A 
ATOM      7  C   UNL d   1      52.388  34.832  52.766  0.00  0.00     0.021 C 
ENDROOT
BRANCH   1   8
ATOM      8  S   UNL d   1      52.370  33.396  53.576  0.00  0.00     0.273 S 
ATOM      9  O   UNL d   1      52.602  33.452  54.360  0.00  0.00    -0.200 OA
ATOM     10  O   UNL d   1      52.855  33.002  53.031  0.00  0.00    -0.200 OA
BRANCH   8  11
ATOM     11  C   UNL d   1      53.085  33.055  53.802  0.00  0.00     0.126 A 
ATOM     12  C   UNL d   1      53.278  32.298  53.533  0.00  0.00     0.106 A 
ATOM     13  C   UNL d   1      53.984  31.949  53.750  0.00  0.00     0.025 A 
ATOM     14  C   UNL d   1      54.522  32.357  54.250  0.00  0.00     0.002 A 
ATOM     15  C   UNL d   1      54.326  33.116  54.518  0.00  0.00     0.001 A 
ATOM     16  C   UNL d   1      53.611  33.461  54.294  0.00  0.00     0.015 A 
ATOM     17  C   UNL d   1      54.844  33.522  55.006  0.00  0.00     0.000 C 
BRANCH  12  18
ATOM     18  O   UNL d   1      52.760  31.892  53.045  0.00  0.00    -0.327 OA
ATOM     19  C   UNL d   1      52.899  31.096  52.878  0.00  0.00     0.181 C 
ENDBRANCH  12  18
ENDBRANCH   8  11
ENDBRANCH   1   8
BRANCH   2  20
ATOM     20  S   UNL d   1      49.540  34.746  52.564  0.00  0.00     0.273 S 
ATOM     21  O   UNL d   1      49.113  35.239  53.070  0.00  0.00    -0.200 OA
ATOM     22  O   UNL d   1      49.259  34.595  51.805  0.00  0.00    -0.200 OA
BRANCH  20  23
ATOM     23  C   UNL d   1      48.830  35.099  52.335  0.00  0.00     0.126 A 
ATOM     24  C   UNL d   1      48.476  35.658  52.826  0.00  0.00     0.106 A 
ATOM     25  C   UNL d   1      47.773  36.006  52.596  0.00  0.00     0.025 A 
ATOM     26  C   UNL d   1      47.422  35.801  51.881  0.00  0.00     0.002 A 
ATOM     27  C   UNL d   1      47.781  35.241  51.393  0.00  0.00     0.001 A 
ATOM     28  C   UNL d   1      48.490  34.890  51.626  0.00  0.00     0.015 A 
ATOM     29  C   UNL d   1      47.432  35.030  50.672  0.00  0.00     0.000 C 
BRANCH  24  30
ATOM     30  O   UNL d   1      48.823  35.864  53.537  0.00  0.00    -0.327 OA
ATOM     31  C   UNL d   1      48.454  36.398  54.039  0.00  0.00     0.181 C 
ENDBRANCH  24  30
ENDBRANCH  20  23
ENDBRANCH   2  20
TORSDOF 6
ENDMDL
MODEL 2
REMARK VINA RESULT:      -8.4      0.356      5.609
REMARK  6 active torsions:
REMARK  status: ('A' for Active; 'I' for Inactive)
REMARK    1  A    between atoms: N_3  and  S_1 
REMARK    2  A    between atoms: C_5  and  S_1 
REMARK    3  A    between atoms: S_2  and  N_4 
REMARK    4  A    between atoms: C_6  and  S_2 
REMARK    5  A    between atoms: O_25  and  C_15 
REMARK    6  A    between atoms: O_26  and  C_16 
ROOT
ATOM      1  N   UNL d   1      50.185  34.327  52.717  0.00  0.00    -0.228 N 
ATOM      2  N   UNL d   1      51.601  33.612  53.173  0.00  0.00    -0.226 N 
ATOM      3  C   UNL d   1      50.855  34.377  52.230  0.00  0.00     0.093 A 
ATOM      4  C   UNL d   1      51.557  34.023  52.455  0.00  0.00     0.110 A 
ATOM      5  C   UNL d   1      50.227  33.919  53.431  0.00  0.00     0.111 A 
ATOM      6  C   UNL d   1      50.938  33.558  53.662  0.00  0.00     0.111 A 
ATOM      7  C   UNL d   1      50.812  34.788  51.511  0.00  0.00     0.021 C 
ENDROOT
BRANCH   1   8
ATOM      8  S   UNL d   1      49.486  34.684  52.485  0.00  0.00     0.273 S 
ATOM      9  O   UNL d   1      49.078  34.411  51.828  0.00  0.00    -0.200 OA
ATOM     10  O   UNL d   1      49.189  35.327  52.917  0.00  0.00    -0.200 OA
BRANCH   8  11
ATOM     11  C   UNL d   1      48.785  35.060  52.271  0.00  0.00     0.126 A 
ATOM     12  C   UNL d   1      48.474  35.649  52.760  0.00  0.00     0.106 A 
ATOM     13  C   UNL d   1      47.779  36.029  52.559  0.00  0.00     0.025 A 
ATOM     14  C   UNL d   1      47.374  35.826  51.852  0.00  0.00     0.002 A 
ATOM     15  C   UNL d   1      47.688  35.235  51.364  0.00  0.00     0.001 A 
ATOM     16  C   UNL d   1      48.390  34.856  51.574  0.00  0.00     0.015 A 
ATOM     17  C   UNL d   1      47.301  35.029  50.673  0.00  0.00     0.000 C 
BRANCH  12  18
ATOM     18  O   UNL d   1      48.861  35.855  53.452  0.00  0.00    -0.327 OA
ATOM     19  C   UNL d   1      48.513  36.398  53.967  0.00  0.00     0.181 C 
ENDBRANCH  12  18
ENDBRANCH   8  11
ENDBRANCH   1   8
BRANCH   2  20
ATOM     20  S   UNL d   1      52.310  33.254  53.399  0.00  0.00     0.273 S 
ATOM     21  O   UNL d   1      52.711  32.760  52.873  0.00  0.00    -0.200 OA
ATOM     22  O   UNL d   1      52.620  33.389  54.150  0.00  0.00    -0.200 OA
BRANCH  20  23
ATOM     23  C   UNL d   1      53.020  32.885  53.600  0.00  0.00     0.126 A 
ATOM     24  C   UNL d   1      53.135  32.091  53.409  0.00  0.00     0.106 A 
ATOM     25  C   UNL d   1      53.839  31.729  53.609  0.00  0.00     0.025 A 
ATOM     26  C   UNL d   1      54.430  32.151  53.997  0.00  0.00     0.002 A 
ATOM     27  C   UNL d   1      54.310  32.944  54.185  0.00  0.00     0.001 A 
ATOM     28  C   UNL d   1      53.598  33.310  53.983  0.00  0.00     0.015 A 
ATOM     29  C   UNL d   1      54.899  33.376  54.576  0.00  0.00     0.000 C 
BRANCH  24  30
ATOM     30  O   UNL d   1      52.550  31.669  53.023  0.00  0.00    -0.327 OA
ATOM     31  C   UNL d   1      52.618  30.857  52.932  0.00  0.00     0.181 C 
ENDBRANCH  24  30
ENDBRANCH  20  23
ENDBRANCH   2  20
TORSDOF 6
ENDMDL
MODEL 3
REMARK VINA RESULT:      -8.0      0.591      5.502
REMARK  6 active torsions:
REMARK  status: ('A' for Active; 'I' for Inactive)
REMARK    1  A    between atoms: N_3  and  S_1 
REMARK    2  A    between atoms: C_5  and  S_1 
REMARK    3  A    between atoms: S_2  and  N_4 
REMARK    4  A    between atoms: C_6  and  S_2 
REMARK    5  A    between atoms: O_25  and  C_15 
REMARK    6  A    between atoms: O_26  and  C_16 
ROOT
ATOM      1  N   UNL d   1      50.060  34.272  52.601  0.00  0.00    -0.228 N 
ATOM      2  N   UNL d   1      51.450  33.466  52.984  0.00  0.00    -0.226 N 
ATOM      3  C   UNL d   1      50.708  34.282  52.082  0.00  0.00     0.093 A 
ATOM      4  C   UNL d   1      51.396  33.883  52.270  0.00  0.00     0.110 A 
ATOM      5  C   UNL d   1      50.112  33.858  53.311  0.00  0.00     0.111 A 
ATOM      6  C   UNL d   1      50.810  33.452  53.505  0.00  0.00     0.111 A 
ATOM      7  C   UNL d   1      50.654  34.700  51.367  0.00  0.00     0.021 C 
ENDROOT
BRANCH   1   8
ATOM      8  S   UNL d   1      49.375  34.674  52.406  0.00  0.00     0.273 S 
ATOM      9  O   UNL d   1      48.905  34.416  51.785  0.00  0.00    -0.200 OA
ATOM     10  O   UNL d   1      49.154  35.346  52.837  0.00  0.00    -0.200 OA
BRANCH   8  11
ATOM     11  C   UNL d   1      48.690  35.095  52.228  0.00  0.00     0.126 A 
ATOM     12  C   UNL d   1      48.423  35.677  52.750  0.00  0.00     0.106 A 
ATOM     13  C   UNL d   1      47.745  36.102  52.585  0.00  0.00     0.025 A 
ATOM     14  C   UNL d   1      47.311  35.951  51.881  0.00  0.00     0.002 A 
ATOM     15  C   UNL d   1      47.580  35.367  51.360  0.00  0.00     0.001 A 
ATOM     16  C   UNL d   1      48.266  34.942  51.534  0.00  0.00     0.015 A 
ATOM     17  C   UNL d   1      47.165  35.211  50.672  0.00  0.00     0.000 C 
BRANCH  12  18
ATOM     18  O   UNL d   1      48.839  35.832  53.438  0.00  0.00    -0.327 OA
ATOM     19  C   UNL d   1      48.531  36.366  53.988  0.00  0.00     0.181 C 
ENDBRANCH  12  18
ENDBRANCH   8  11
ENDBRANCH   1   8
BRANCH   2  20
ATOM     20  S   UNL d   1      52.145  33.064  53.174  0.00  0.00     0.273 S 
ATOM     21  O   UNL d   1      52.455  33.112  53.937  0.00  0.00    -0.200 OA
ATOM     22  O   UNL d   1      52.531  32.614  52.602  0.00  0.00    -0.200 OA
BRANCH  20  23
ATOM     23  C   UNL d   1      52.838  32.672  53.390  0.00  0.00     0.126 A 
ATOM     24  C   UNL d   1      53.432  33.083  53.787  0.00  0.00     0.106 A 
ATOM     25  C   UNL d   1      54.117  32.692  54.000  0.00  0.00     0.025 A 
ATOM     26  C   UNL d   1      54.214  31.894  53.820  0.00  0.00     0.002 A 
ATOM     27  C   UNL d   1      53.617  31.488  53.423  0.00  0.00     0.001 A 
ATOM     28  C   UNL d   1      52.925  31.883  53.208  0.00  0.00     0.015 A 
ATOM     29  C   UNL d   1      53.707  30.685  53.239  0.00  0.00     0.000 C 
BRANCH  24  30
ATOM     30  O   UNL d   1      53.338  33.875  53.966  0.00  0.00    -0.327 OA
ATOM     31  C   UNL d   1      53.927  34.281  54.370  0.00  0.00     0.181 C 
ENDBRANCH  24  30
ENDBRANCH  20  23
ENDBRANCH   2  20
TORSDOF 6
ENDMDL
