MODEL 1
REMARK VINA RESULT:      52.4      0.000      0.000
REMARK  5 active torsions:
REMARK  status: ('A' for Active; 'I' for Inactive)
REMARK    1  A    between atoms: O_8  and  C_2 
REMARK    2  A    between atoms: C_10  and  C_3 
REMARK    3  A    between atoms: C_14  and  O_8 
REMARK    4  A    between atoms: N_9  and  C_10 
REMARK    5  A    between atoms: O_23  and  C_17 
ROOT
ATOM      1  C   UNL d   1      13.475  13.972  -3.677  0.00  0.00     0.108 A 
ATOM      2  C   UNL d   1      13.793  12.551  -2.869  0.00  0.00     0.164 A 
ATOM      3  C   UNL d   1      13.314  14.672  -4.085  0.00  0.00     0.079 A 
ATOM      4  C   UNL d   1      13.307  13.235  -4.035  0.00  0.00     0.064 A 
ATOM      5  C   UNL d   1      13.463  12.531  -3.637  0.00  0.00     0.222 A 
ATOM      6  O   UNL d   1      13.800  13.997  -2.918  0.00  0.00    -0.303 OA
ATOM      7  C   UNL d   1      13.960  13.284  -2.511  0.00  0.00     0.150 A 
ATOM      8  C   UNL d   1      12.978  13.219  -4.802  0.00  0.00     0.009 A 
ATOM      9  C   UNL d   1      12.992  14.657  -4.838  0.00  0.00     0.199 A 
ATOM     10  O   UNL d   1      13.299  11.803  -3.988  0.00  0.00    -0.284 OA
ATOM     11  C   UNL d   1      12.822  13.923  -5.201  0.00  0.00     0.042 A 
ATOM     12  O   UNL d   1      12.832  15.349  -5.242  0.00  0.00    -0.286 OA
ENDROOT
BRANCH   2  13
ATOM     13  O   UNL d   1      13.950  11.848  -2.469  0.00  0.00    -0.300 OA
BRANCH  13  14
ATOM     14  C   UNL d   1      13.938  11.835  -1.653  0.00  0.00     0.122 A 
ATOM     15  C   UNL d   1      14.640  11.859  -1.234  0.00  0.00     0.117 A 
ATOM     16  C   UNL d   1      14.629  11.846  -0.413  0.00  0.00     0.026 A 
ATOM     17  C   UNL d   1      13.906  11.811  -0.015  0.00  0.00     0.002 A 
ATOM     18  C   UNL d   1      13.205  11.787  -0.434  0.00  0.00     0.002 A 
ATOM     19  C   UNL d   1      13.216  11.800  -1.259  0.00  0.00     0.027 A 
BRANCH  15  20
ATOM     20  O   UNL d   1      15.354  11.894  -1.641  0.00  0.00    -0.326 OA
ATOM     21  C   UNL d   1      16.028  12.191  -1.269  0.00  0.00     0.181 C 
ENDBRANCH  15  20
ENDBRANCH  13  14
ENDBRANCH   2  13
BRANCH   3  22
ATOM     22  C   UNL d   1      13.481  15.392  -3.729  0.00  0.00     0.086 C 
BRANCH  22  23
ATOM     23  N   UNL d   1      14.163  15.809  -3.941  0.00  0.00    -0.300 N 
ATOM     24  C   UNL d   1      14.560  16.258  -3.374  0.00  0.00     0.100 A 
ATOM     25  C   UNL d   1      15.239  16.673  -3.584  0.00  0.00     0.100 A 
ATOM     26  N   UNL d   1      15.521  16.641  -4.360  0.00  0.00    -0.299 N 
ATOM     27  C   UNL d   1      15.121  16.191  -4.925  0.00  0.00     0.100 A 
ATOM     28  C   UNL d   1      16.200  17.057  -4.571  0.00  0.00     0.100 C 
ATOM     29  C   UNL d   1      14.435  15.770  -4.718  0.00  0.00     0.100 A 
ENDBRANCH  22  23
ENDBRANCH   3  22
TORSDOF 5
ENDMDL
