MODEL 1
REMARK VINA RESULT:      33.0      0.000      0.000
REMARK  3 active torsions:
REMARK  status: ('A' for Active; 'I' for Inactive)
REMARK    1  A    between atoms: N_6  and  C_1 
REMARK    2  A    between atoms: C_7  and  C_2 
REMARK    3  A    between atoms: C_9  and  C_5 
ROOT
ATOM      1  C   UNL d   1      58.089  49.500  50.596  0.00  0.00     0.189 A 
ATOM      2  C   UNL d   1      57.992  49.657  51.427  0.00  0.00     0.144 A 
ATOM      3  O   UNL d   1      58.927  49.459  50.466  0.00  0.00    -0.271 OA
ATOM      4  N   UNL d   1      58.727  49.707  51.772  0.00  0.00    -0.217 NA
ATOM      5  C   UNL d   1      59.284  49.592  51.217  0.00  0.00     0.184 A 
ENDROOT
BRANCH   5   6
ATOM      6  C   UNL d   1      60.077  49.610  51.394  0.00  0.00     0.041 A 
ATOM      7  C   UNL d   1      60.647  49.557  50.796  0.00  0.00     0.004 A 
ATOM      8  C   UNL d   1      61.444  49.578  51.003  0.00  0.00     0.011 A 
ATOM      9  C   UNL d   1      61.678  49.647  51.768  0.00  0.00     0.058 A 
ATOM     10  C   UNL d   1      61.103  49.700  52.366  0.00  0.00     0.011 A 
ATOM     11 CL   UNL d   1      62.449  49.680  52.116  0.00  0.00    -0.082 Cl
ATOM     12  C   UNL d   1      60.296  49.680  52.164  0.00  0.00     0.004 A 
ENDBRANCH   5   6
BRANCH   1  13
ATOM     13  N   UNL d   1      57.402  49.455  50.282  0.00  0.00    -0.284 N 
ATOM     14  C   UNL d   1      56.566  49.359  50.360  0.00  0.00     0.082 A 
ATOM     15  C   UNL d   1      56.092  49.369  49.685  0.00  0.00     0.019 A 
ATOM     16  C   UNL d   1      56.430  49.473  48.927  0.00  0.00     0.003 A 
ATOM     17  C   UNL d   1      57.243  49.567  48.844  0.00  0.00     0.019 A 
ATOM     18  C   UNL d   1      57.740  49.559  49.524  0.00  0.00     0.082 A 
ENDBRANCH   1  13
BRANCH   2  19
ATOM     19  C   UNL d   1      57.304  49.703  51.604  0.00  0.00     0.145 C 
ATOM     20  N   UNL d   1      56.676  49.689  52.463  0.00  0.00    -0.145 N 
ENDBRANCH   2  19
TORSDOF 3
ENDMDL
