MODEL 1
REMARK VINA RESULT:      -0.6      0.000      0.000
REMARK  7 active torsions:
REMARK  status: ('A' for Active; 'I' for Inactive)
REMARK    1  A    between atoms: C_8  and  N_2 
REMARK    2  A    between atoms: C_13  and  C_8 
REMARK    3  A    between atoms: O_17  and  C_13 
REMARK    4  A    between atoms: O_18  and  C_15 
REMARK    5  A    between atoms: C_21  and  O_17 
REMARK    6  A    between atoms: C_23  and  C_21 
REMARK    7  A    between atoms: C_24  and  C_23 
ROOT
ATOM      1  C   UNL d   1      58.420  -1.890  29.531  0.00  0.00     0.166 A 
ATOM      2  N   UNL d   1      58.152  -1.178  29.833  0.00  0.00    -0.285 N 
ATOM      3  C   UNL d   1      59.183  -1.768  29.233  0.00  0.00     0.117 A 
ATOM      4  C   UNL d   1      59.383  -0.979  29.354  0.00  0.00     0.039 A 
ATOM      5  C   UNL d   1      58.745  -0.610  29.726  0.00  0.00     0.067 A 
ATOM      6  N   UNL d   1      58.074  -2.631  29.486  0.00  0.00    -0.225 NA
ATOM      7  N   UNL d   1      59.604  -2.395  28.887  0.00  0.00    -0.241 NA
ATOM      8  C   UNL d   1      58.489  -3.265  29.141  0.00  0.00     0.101 A 
ATOM      9  C   UNL d   1      59.252  -3.144  28.843  0.00  0.00     0.099 A 
ATOM     10  C   UNL d   1      58.785   0.192  29.919  0.00  0.00     0.020 A 
ATOM     11  C   UNL d   1      60.061  -0.547  29.174  0.00  0.00     0.027 A 
ATOM     12  C   UNL d   1      60.101   0.254  29.367  0.00  0.00     0.094 A 
ATOM     13  C   UNL d   1      59.465   0.623  29.739  0.00  0.00     0.026 A 
ATOM     14  C   UNL d   1      59.662  -3.768  28.502  0.00  0.00     0.021 A 
ATOM     15  C   UNL d   1      58.139  -4.006  29.098  0.00  0.00     0.021 A 
ATOM     16  C   UNL d   1      59.310  -4.513  28.459  0.00  0.00     0.002 A 
ATOM     17  C   UNL d   1      58.547  -4.638  28.756  0.00  0.00     0.002 A 
ENDROOT
BRANCH   2  18
ATOM     18  C   UNL d   1      57.420  -1.046  30.184  0.00  0.00     0.151 C 
BRANCH  18  19
ATOM     19  C   UNL d   1      57.352  -1.090  31.005  0.00  0.00     0.318 C 
ATOM     20  O   UNL d   1      57.913  -1.491  31.451  0.00  0.00    -0.257 OA
BRANCH  19  21
ATOM     21  O   UNL d   1      56.715  -0.729  31.379  0.00  0.00    -0.270 OA
BRANCH  21  22
ATOM     22  C   UNL d   1      56.650  -0.762  32.198  0.00  0.00     0.126 C 
BRANCH  22  23
ATOM     23  C   UNL d   1      55.935  -0.565  32.555  0.00  0.00     0.027 C 
BRANCH  23  24
ATOM     24  C   UNL d   1      55.832  -0.689  33.365  0.00  0.00     0.002 C 
ATOM     25  C   UNL d   1      55.237  -0.293  33.773  0.00  0.00     0.000 C 
ENDBRANCH  23  24
ENDBRANCH  22  23
ENDBRANCH  21  22
ENDBRANCH  19  21
ENDBRANCH  18  19
ENDBRANCH   2  18
BRANCH  12  26
ATOM     26  O   UNL d   1      60.779   0.682  29.186  0.00  0.00    -0.328 OA
ATOM     27  C   UNL d   1      61.133   0.601  28.455  0.00  0.00     0.181 C 
ENDBRANCH  12  26
TORSDOF 7
ENDMDL
MODEL 2
REMARK VINA RESULT:       1.3      1.777      4.397
REMARK  7 active torsions:
REMARK  status: ('A' for Active; 'I' for Inactive)
REMARK    1  A    between atoms: C_8  and  N_2 
REMARK    2  A    between atoms: C_13  and  C_8 
REMARK    3  A    between atoms: O_17  and  C_13 
REMARK    4  A    between atoms: O_18  and  C_15 
REMARK    5  A    between atoms: C_21  and  O_17 
REMARK    6  A    between atoms: C_23  and  C_21 
REMARK    7  A    between atoms: C_24  and  C_23 
ROOT
ATOM      1  C   UNL d   1      57.633   0.362  31.386  0.00  0.00     0.166 A 
ATOM      2  N   UNL d   1      58.083   0.386  30.703  0.00  0.00    -0.285 N 
ATOM      3  C   UNL d   1      58.147   0.420  32.032  0.00  0.00     0.117 A 
ATOM      4  C   UNL d   1      58.916   0.481  31.743  0.00  0.00     0.039 A 
ATOM      5  C   UNL d   1      58.879   0.460  30.919  0.00  0.00     0.067 A 
ATOM      6  N   UNL d   1      56.825   0.295  31.508  0.00  0.00    -0.225 NA
ATOM      7  N   UNL d   1      57.851   0.412  32.808  0.00  0.00    -0.241 NA
ATOM      8  C   UNL d   1      56.520   0.285  32.283  0.00  0.00     0.101 A 
ATOM      9  C   UNL d   1      57.035   0.344  32.929  0.00  0.00     0.099 A 
ATOM     10  C   UNL d   1      59.571   0.510  30.472  0.00  0.00     0.020 A 
ATOM     11  C   UNL d   1      59.644   0.552  32.122  0.00  0.00     0.027 A 
ATOM     12  C   UNL d   1      60.336   0.602  31.675  0.00  0.00     0.094 A 
ATOM     13  C   UNL d   1      60.300   0.581  30.851  0.00  0.00     0.026 A 
ATOM     14  C   UNL d   1      56.734   0.334  33.693  0.00  0.00     0.021 A 
ATOM     15  C   UNL d   1      55.711   0.218  32.400  0.00  0.00     0.021 A 
ATOM     16  C   UNL d   1      55.921   0.266  33.812  0.00  0.00     0.002 A 
ATOM     17  C   UNL d   1      55.403   0.208  33.168  0.00  0.00     0.002 A 
ENDROOT
BRANCH   2  18
ATOM     18  C   UNL d   1      57.797   0.344  29.933  0.00  0.00     0.151 C 
BRANCH  18  19
ATOM     19  C   UNL d   1      58.127  -0.200  29.409  0.00  0.00     0.318 C 
ATOM     20  O   UNL d   1      58.417   0.042  28.680  0.00  0.00    -0.257 OA
BRANCH  19  21
ATOM     21  O   UNL d   1      58.165  -0.995  29.621  0.00  0.00    -0.270 OA
BRANCH  21  22
ATOM     22  C   UNL d   1      58.362  -1.558  29.056  0.00  0.00     0.126 C 
BRANCH  22  23
ATOM     23  C   UNL d   1      58.312  -2.357  29.247  0.00  0.00     0.027 C 
BRANCH  23  24
ATOM     24  C   UNL d   1      58.897  -2.879  28.990  0.00  0.00     0.002 C 
ATOM     25  C   UNL d   1      58.728  -3.680  28.900  0.00  0.00     0.000 C 
ENDBRANCH  23  24
ENDBRANCH  22  23
ENDBRANCH  21  22
ENDBRANCH  19  21
ENDBRANCH  18  19
ENDBRANCH   2  18
BRANCH  12  26
ATOM     26  O   UNL d   1      61.061   0.673  32.055  0.00  0.00    -0.328 OA
ATOM     27  C   UNL d   1      61.112   0.581  32.864  0.00  0.00     0.181 C 
ENDBRANCH  12  26
TORSDOF 7
ENDMDL
MODEL 3
REMARK VINA RESULT:       1.7      2.225      5.102
REMARK  7 active torsions:
REMARK  status: ('A' for Active; 'I' for Inactive)
REMARK    1  A    between atoms: C_8  and  N_2 
REMARK    2  A    between atoms: C_13  and  C_8 
REMARK    3  A    between atoms: O_17  and  C_13 
REMARK    4  A    between atoms: O_18  and  C_15 
REMARK    5  A    between atoms: C_21  and  O_17 
REMARK    6  A    between atoms: C_23  and  C_21 
REMARK    7  A    between atoms: C_24  and  C_23 
ROOT
ATOM      1  C   UNL d   1      58.244   0.574  31.958  0.00  0.00     0.166 A 
ATOM      2  N   UNL d   1      57.516   0.543  31.585  0.00  0.00    -0.285 N 
ATOM      3  C   UNL d   1      58.112   0.592  32.774  0.00  0.00     0.117 A 
ATOM      4  C   UNL d   1      57.299   0.573  32.903  0.00  0.00     0.039 A 
ATOM      5  C   UNL d   1      56.927   0.543  32.166  0.00  0.00     0.067 A 
ATOM      6  N   UNL d   1      59.010   0.587  31.664  0.00  0.00    -0.225 NA
ATOM      7  N   UNL d   1      58.751   0.624  33.303  0.00  0.00    -0.241 NA
ATOM      8  C   UNL d   1      59.656   0.619  32.189  0.00  0.00     0.101 A 
ATOM      9  C   UNL d   1      59.524   0.637  33.005  0.00  0.00     0.099 A 
ATOM     10  C   UNL d   1      56.103   0.519  32.120  0.00  0.00     0.020 A 
ATOM     11  C   UNL d   1      56.848   0.579  33.592  0.00  0.00     0.027 A 
ATOM     12  C   UNL d   1      56.025   0.555  33.546  0.00  0.00     0.094 A 
ATOM     13  C   UNL d   1      55.652   0.525  32.810  0.00  0.00     0.026 A 
ATOM     14  C   UNL d   1      60.161   0.669  33.522  0.00  0.00     0.021 A 
ATOM     15  C   UNL d   1      60.421   0.632  31.890  0.00  0.00     0.021 A 
ATOM     16  C   UNL d   1      60.929   0.682  33.224  0.00  0.00     0.002 A 
ATOM     17  C   UNL d   1      61.066   0.663  32.407  0.00  0.00     0.002 A 
ENDROOT
BRANCH   2  18
ATOM     18  C   UNL d   1      57.388   0.518  30.773  0.00  0.00     0.151 C 
BRANCH  18  19
ATOM     19  C   UNL d   1      57.487  -0.195  30.371  0.00  0.00     0.318 C 
ATOM     20  O   UNL d   1      57.253  -0.904  30.713  0.00  0.00    -0.257 OA
BRANCH  19  21
ATOM     21  O   UNL d   1      57.823  -0.195  29.620  0.00  0.00    -0.270 OA
BRANCH  21  22
ATOM     22  C   UNL d   1      58.118  -0.894  29.304  0.00  0.00     0.126 C 
BRANCH  22  23
ATOM     23  C   UNL d   1      58.603  -0.865  28.640  0.00  0.00     0.027 C 
BRANCH  23  24
ATOM     24  C   UNL d   1      59.275  -1.343  28.600  0.00  0.00     0.002 C 
ATOM     25  C   UNL d   1      59.201  -2.151  28.459  0.00  0.00     0.000 C 
ENDBRANCH  23  24
ENDBRANCH  22  23
ENDBRANCH  21  22
ENDBRANCH  19  21
ENDBRANCH  18  19
ENDBRANCH   2  18
BRANCH  12  26
ATOM     26  O   UNL d   1      55.578   0.561  34.235  0.00  0.00    -0.328 OA
ATOM     27  C   UNL d   1      54.793   0.339  34.217  0.00  0.00     0.181 C 
ENDBRANCH  12  26
TORSDOF 7
ENDMDL
