MODEL 1
REMARK VINA RESULT:       0.6      0.000      0.000
REMARK  5 active torsions:
REMARK  status: ('A' for Active; 'I' for Inactive)
REMARK    1  A    between atoms: C_3  and  C_1 
REMARK    2  A    between atoms: C_9  and  N_2 
REMARK    3  A    between atoms: C_7  and  C_3 
REMARK    4  A    between atoms: C_8  and  C_3 
REMARK    5  A    between atoms: C_20  and  C_6 
ROOT
ATOM      1  C   UNL d   1     -41.578-122.104 -52.239  0.00  0.00     0.103 A 
ATOM      2  N   UNL d   1     -41.756-122.256 -51.448  0.00  0.00    -0.269 N 
ATOM      3  S   UNL d   1     -41.318-121.319 -52.306  0.00  0.00    -0.064 SA
ATOM      4  C   UNL d   1     -41.606-121.567 -51.020  0.00  0.00     0.271 A 
ATOM      5  C   UNL d   1     -41.336-120.987 -51.543  0.00  0.00     0.087 A 
ATOM      6  O   UNL d   1     -41.708-121.467 -50.202  0.00  0.00    -0.266 OA
ENDROOT
BRANCH   2   7
ATOM      7  C   UNL d   1     -41.992-122.647 -50.761  0.00  0.00     0.068 A 
ATOM      8  C   UNL d   1     -41.421-122.963 -50.259  0.00  0.00     0.020 A 
ATOM      9  C   UNL d   1     -41.656-123.354 -49.572  0.00  0.00     0.031 A 
ATOM     10  C   UNL d   1     -42.458-123.422 -49.400  0.00  0.00     0.140 A 
ATOM     11  C   UNL d   1     -43.022-123.104 -49.905  0.00  0.00     0.031 A 
ATOM     12  F   UNL d   1     -42.696-123.816 -48.707  0.00  0.00    -0.204 F 
ATOM     13  C   UNL d   1     -42.790-122.714 -50.591  0.00  0.00     0.020 A 
ENDBRANCH   2   7
BRANCH   1  14
ATOM     14  C   UNL d   1     -41.645-122.639 -52.871  0.00  0.00     0.103 C 
BRANCH  14  15
ATOM     15  C   UNL d   1     -42.098-122.429 -53.530  0.00  0.00     0.300 C 
ATOM     16  O   UNL d   1     -42.926-122.388 -53.476  0.00  0.00    -0.264 OA
ATOM     17  N   UNL d   1     -41.724-122.258 -54.251  0.00  0.00    -0.102 N 
ENDBRANCH  14  15
BRANCH  14  18
ATOM     18  C   UNL d   1     -41.268-123.365 -52.842  0.00  0.00     0.129 C 
ATOM     19  N   UNL d   1     -41.166-123.807 -53.535  0.00  0.00    -0.146 N 
ENDBRANCH  14  18
ENDBRANCH   1  14
BRANCH   5  20
ATOM     20  C   UNL d   1     -41.123-120.215 -51.347  0.00  0.00     0.011 C 
ATOM     21  C   UNL d   1     -41.196-119.612 -51.911  0.00  0.00     0.001 C 
ENDBRANCH   5  20
TORSDOF 5
ENDMDL
MODEL 2
REMARK VINA RESULT:       3.1      0.776      1.052
REMARK  5 active torsions:
REMARK  status: ('A' for Active; 'I' for Inactive)
REMARK    1  A    between atoms: C_3  and  C_1 
REMARK    2  A    between atoms: C_9  and  N_2 
REMARK    3  A    between atoms: C_7  and  C_3 
REMARK    4  A    between atoms: C_8  and  C_3 
REMARK    5  A    between atoms: C_20  and  C_6 
ROOT
ATOM      1  C   UNL d   1     -41.661-121.658 -52.954  0.00  0.00     0.103 A 
ATOM      2  N   UNL d   1     -41.713-121.909 -52.169  0.00  0.00    -0.269 N 
ATOM      3  S   UNL d   1     -41.435-120.859 -52.961  0.00  0.00    -0.064 SA
ATOM      4  C   UNL d   1     -41.519-121.268 -51.687  0.00  0.00     0.271 A 
ATOM      5  C   UNL d   1     -41.348-120.619 -52.169  0.00  0.00     0.087 A 
ATOM      6  O   UNL d   1     -41.499-121.269 -50.857  0.00  0.00    -0.266 OA
ENDROOT
BRANCH   2   7
ATOM      7  C   UNL d   1     -41.832-122.387 -51.508  0.00  0.00     0.068 A 
ATOM      8  C   UNL d   1     -42.483-122.251 -51.023  0.00  0.00     0.020 A 
ATOM      9  C   UNL d   1     -42.602-122.729 -50.362  0.00  0.00     0.031 A 
ATOM     10  C   UNL d   1     -42.069-123.334 -50.197  0.00  0.00     0.140 A 
ATOM     11  C   UNL d   1     -41.422-123.464 -50.686  0.00  0.00     0.031 A 
ATOM     12  F   UNL d   1     -42.190-123.816 -49.531  0.00  0.00    -0.204 F 
ATOM     13  C   UNL d   1     -41.300-122.988 -51.346  0.00  0.00     0.020 A 
ENDBRANCH   2   7
BRANCH   1  14
ATOM     14  C   UNL d   1     -41.808-122.117 -53.629  0.00  0.00     0.103 C 
BRANCH  14  15
ATOM     15  C   UNL d   1     -42.373-121.861 -54.176  0.00  0.00     0.300 C 
ATOM     16  O   UNL d   1     -43.165-122.101 -54.107  0.00  0.00    -0.264 OA
ATOM     17  N   UNL d   1     -42.147-121.361 -54.799  0.00  0.00    -0.102 N 
ENDBRANCH  14  15
BRANCH  14  18
ATOM     18  C   UNL d   1     -41.400-122.816 -53.752  0.00  0.00     0.129 C 
ATOM     19  N   UNL d   1     -41.360-123.145 -54.512  0.00  0.00    -0.146 N 
ENDBRANCH  14  18
ENDBRANCH   1  14
BRANCH   5  20
ATOM     20  C   UNL d   1     -41.128-119.867 -51.914  0.00  0.00     0.011 C 
ATOM     21  C   UNL d   1     -41.147-119.230 -52.445  0.00  0.00     0.001 C 
ENDBRANCH   5  20
TORSDOF 5
ENDMDL
