MODEL 1
REMARK VINA RESULT:      -7.6      0.000      0.000
REMARK  5 active torsions:
REMARK  status: ('A' for Active; 'I' for Inactive)
REMARK    1  A    between atoms: C_4  and  C_1 
REMARK    2  A    between atoms: N_8  and  C_4 
REMARK    3  A    between atoms: C_11  and  N_8 
REMARK    4  A    between atoms: O_17  and  C_12 
REMARK    5  A    between atoms: C_20  and  O_17 
ROOT
ATOM      1  C   UNL d   1     -48.143  13.286  22.325  0.00  0.00     0.105 C 
ENDROOT
BRANCH   1   2
ATOM      2  C   UNL d   1     -48.905  13.605  22.192  0.00  0.00     0.096 A 
ATOM      3  C   UNL d   1     -49.472  13.168  21.790  0.00  0.00     0.196 A 
ATOM      4  C   UNL d   1     -50.224  13.493  21.664  0.00  0.00     0.019 A 
ATOM      5  O   UNL d   1     -49.297  12.401  21.508  0.00  0.00    -0.287 OA
ATOM      6  C   UNL d   1     -50.404  14.252  21.941  0.00  0.00     0.043 A 
ATOM      7  C   UNL d   1     -49.826  14.685  22.346  0.00  0.00     0.019 A 
ATOM      8  C   UNL d   1     -51.064  13.960  21.570  0.00  0.00     0.009 C 
ATOM      9  C   UNL d   1     -50.941  14.872  22.026  0.00  0.00     0.009 C 
ATOM     10  C   UNL d   1     -49.078  14.368  22.474  0.00  0.00     0.196 A 
ATOM     11  O   UNL d   1     -48.510  14.821  22.884  0.00  0.00    -0.287 OA
ENDBRANCH   1   2
BRANCH   1  12
ATOM     12  N   UNL d   1     -47.918  13.021  23.066  0.00  0.00    -0.244 NA
BRANCH  12  13
ATOM     13  C   UNL d   1     -47.209  12.616  23.154  0.00  0.00     0.082 A 
ATOM     14  C   UNL d   1     -46.506  12.985  22.931  0.00  0.00     0.021 A 
ATOM     15  C   UNL d   1     -45.793  12.573  23.022  0.00  0.00     0.026 A 
ATOM     16  C   UNL d   1     -45.778  11.807  23.329  0.00  0.00     0.100 A 
ATOM     17  C   UNL d   1     -46.490  11.449  23.549  0.00  0.00     0.026 A 
ATOM     18  C   UNL d   1     -47.203  11.853  23.461  0.00  0.00     0.021 A 
BRANCH  16  19
ATOM     19  O   UNL d   1     -45.048  11.389  23.420  0.00  0.00    -0.305 OA
BRANCH  19  20
ATOM     20  C   UNL d   1     -45.038  10.555  23.550  0.00  0.00     0.123 C 
ATOM     21  C   UNL d   1     -44.315  10.186  23.697  0.00  0.00     0.029 C 
ENDBRANCH  19  20
ENDBRANCH  16  19
ENDBRANCH  12  13
ENDBRANCH   1  12
TORSDOF 5
ENDMDL
MODEL 2
REMARK VINA RESULT:      -7.3      1.686      2.279
REMARK  5 active torsions:
REMARK  status: ('A' for Active; 'I' for Inactive)
REMARK    1  A    between atoms: C_4  and  C_1 
REMARK    2  A    between atoms: N_8  and  C_4 
REMARK    3  A    between atoms: C_11  and  N_8 
REMARK    4  A    between atoms: O_17  and  C_12 
REMARK    5  A    between atoms: C_20  and  O_17 
ROOT
ATOM      1  C   UNL d   1     -48.148  12.783  22.657  0.00  0.00     0.105 C 
ENDROOT
BRANCH   1   2
ATOM      2  C   UNL d   1     -48.926  12.650  22.934  0.00  0.00     0.096 A 
ATOM      3  C   UNL d   1     -49.421  13.284  23.099  0.00  0.00     0.196 A 
ATOM      4  C   UNL d   1     -50.190  13.142  23.373  0.00  0.00     0.019 A 
ATOM      5  O   UNL d   1     -49.155  14.070  22.994  0.00  0.00    -0.287 OA
ATOM      6  C   UNL d   1     -50.459  12.366  23.479  0.00  0.00     0.043 A 
ATOM      7  C   UNL d   1     -49.953  11.732  23.310  0.00  0.00     0.019 A 
ATOM      8  C   UNL d   1     -51.062  12.868  23.684  0.00  0.00     0.009 C 
ATOM      9  C   UNL d   1     -51.057  11.842  23.698  0.00  0.00     0.009 C 
ATOM     10  C   UNL d   1     -49.189  11.868  23.038  0.00  0.00     0.196 A 
ATOM     11  O   UNL d   1     -48.695  11.216  22.873  0.00  0.00    -0.287 OA
ENDBRANCH   1   2
BRANCH   1  12
ATOM     12  N   UNL d   1     -47.558  13.046  23.161  0.00  0.00    -0.244 NA
BRANCH  12  13
ATOM     13  C   UNL d   1     -46.787  13.106  22.887  0.00  0.00     0.082 A 
ATOM     14  C   UNL d   1     -46.260  12.488  23.036  0.00  0.00     0.021 A 
ATOM     15  C   UNL d   1     -45.482  12.552  22.757  0.00  0.00     0.026 A 
ATOM     16  C   UNL d   1     -45.231  13.217  22.339  0.00  0.00     0.100 A 
ATOM     17  C   UNL d   1     -45.769  13.829  22.197  0.00  0.00     0.026 A 
ATOM     18  C   UNL d   1     -46.544  13.772  22.471  0.00  0.00     0.021 A 
BRANCH  16  19
ATOM     19  O   UNL d   1     -44.436  13.279  22.057  0.00  0.00    -0.305 OA
BRANCH  19  20
ATOM     20  C   UNL d   1     -44.065  12.634  21.657  0.00  0.00     0.123 C 
ATOM     21  C   UNL d   1     -43.268  12.699  21.456  0.00  0.00     0.029 C 
ENDBRANCH  19  20
ENDBRANCH  16  19
ENDBRANCH  12  13
ENDBRANCH   1  12
TORSDOF 5
ENDMDL
MODEL 3
REMARK VINA RESULT:      -5.9      1.369      5.128
REMARK  5 active torsions:
REMARK  status: ('A' for Active; 'I' for Inactive)
REMARK    1  A    between atoms: C_4  and  C_1 
REMARK    2  A    between atoms: N_8  and  C_4 
REMARK    3  A    between atoms: C_11  and  N_8 
REMARK    4  A    between atoms: O_17  and  C_12 
REMARK    5  A    between atoms: C_20  and  O_17 
ROOT
ATOM      1  C   UNL d   1     -46.165  12.260  22.838  0.00  0.00     0.105 C 
ENDROOT
BRANCH   1   2
ATOM      2  C   UNL d   1     -45.537  11.730  23.000  0.00  0.00     0.096 A 
ATOM      3  C   UNL d   1     -45.679  11.035  23.413  0.00  0.00     0.196 A 
ATOM      4  C   UNL d   1     -45.051  10.518  23.568  0.00  0.00     0.019 A 
ATOM      5  O   UNL d   1     -46.450  10.847  23.678  0.00  0.00    -0.287 OA
ATOM      6  C   UNL d   1     -44.286  10.699  23.309  0.00  0.00     0.043 A 
ATOM      7  C   UNL d   1     -44.152  11.402  22.893  0.00  0.00     0.019 A 
ATOM      8  C   UNL d   1     -44.255   9.986  23.696  0.00  0.00     0.009 C 
ATOM      9  C   UNL d   1     -43.487  10.502  23.252  0.00  0.00     0.009 C 
ATOM     10  C   UNL d   1     -44.772  11.919  22.736  0.00  0.00     0.196 A 
ATOM     11  O   UNL d   1     -44.616  12.623  22.315  0.00  0.00    -0.287 OA
ENDBRANCH   1   2
BRANCH   1  12
ATOM     12  N   UNL d   1     -46.546  12.663  23.441  0.00  0.00    -0.244 NA
BRANCH  12  13
ATOM     13  C   UNL d   1     -47.140  13.199  23.258  0.00  0.00     0.082 A 
ATOM     14  C   UNL d   1     -47.926  12.953  23.293  0.00  0.00     0.021 A 
ATOM     15  C   UNL d   1     -48.523  13.498  23.108  0.00  0.00     0.026 A 
ATOM     16  C   UNL d   1     -48.342  14.273  22.893  0.00  0.00     0.100 A 
ATOM     17  C   UNL d   1     -47.549  14.507  22.863  0.00  0.00     0.026 A 
ATOM     18  C   UNL d   1     -46.951  13.971  23.045  0.00  0.00     0.021 A 
BRANCH  16  19
ATOM     19  O   UNL d   1     -48.954  14.827  22.705  0.00  0.00    -0.305 OA
BRANCH  19  20
ATOM     20  C   UNL d   1     -49.562  15.008  23.262  0.00  0.00     0.123 C 
ATOM     21  C   UNL d   1     -50.010  15.692  23.151  0.00  0.00     0.029 C 
ENDBRANCH  19  20
ENDBRANCH  16  19
ENDBRANCH  12  13
ENDBRANCH   1  12
TORSDOF 5
ENDMDL
MODEL 4
REMARK VINA RESULT:      -5.4      8.760     10.095
REMARK  5 active torsions:
REMARK  status: ('A' for Active; 'I' for Inactive)
REMARK    1  A    between atoms: C_4  and  C_1 
REMARK    2  A    between atoms: N_8  and  C_4 
REMARK    3  A    between atoms: C_11  and  N_8 
REMARK    4  A    between atoms: O_17  and  C_12 
REMARK    5  A    between atoms: C_20  and  O_17 
ROOT
ATOM      1  C   UNL d   1     -39.502  14.146  20.247  0.00  0.00     0.105 C 
ENDROOT
BRANCH   1   2
ATOM      2  C   UNL d   1     -39.172  13.977  20.998  0.00  0.00     0.096 A 
ATOM      3  C   UNL d   1     -39.488  14.317  21.675  0.00  0.00     0.196 A 
ATOM      4  C   UNL d   1     -39.154  14.142  22.413  0.00  0.00     0.019 A 
ATOM      5  O   UNL d   1     -40.141  14.836  21.625  0.00  0.00    -0.287 OA
ATOM      6  C   UNL d   1     -38.507  13.628  22.468  0.00  0.00     0.043 A 
ATOM      7  C   UNL d   1     -38.195  13.290  21.780  0.00  0.00     0.019 A 
ATOM      8  C   UNL d   1     -38.694  13.874  23.218  0.00  0.00     0.009 C 
ATOM      9  C   UNL d   1     -37.945  13.235  22.927  0.00  0.00     0.009 C 
ATOM     10  C   UNL d   1     -38.522  13.460  21.045  0.00  0.00     0.196 A 
ATOM     11  O   UNL d   1     -38.193  13.109  20.363  0.00  0.00    -0.287 OA
ENDBRANCH   1   2
BRANCH   1  12
ATOM     12  N   UNL d   1     -39.122  14.645  19.721  0.00  0.00    -0.244 NA
BRANCH  12  13
ATOM     13  C   UNL d   1     -39.505  14.877  19.033  0.00  0.00     0.082 A 
ATOM     14  C   UNL d   1     -39.604  15.681  18.881  0.00  0.00     0.021 A 
ATOM     15  C   UNL d   1     -39.991  15.911  18.185  0.00  0.00     0.026 A 
ATOM     16  C   UNL d   1     -40.275  15.352  17.649  0.00  0.00     0.100 A 
ATOM     17  C   UNL d   1     -40.169  14.549  17.813  0.00  0.00     0.026 A 
ATOM     18  C   UNL d   1     -39.785  14.313  18.503  0.00  0.00     0.021 A 
BRANCH  16  19
ATOM     19  O   UNL d   1     -40.669  15.591  16.940  0.00  0.00    -0.305 OA
BRANCH  19  20
ATOM     20  C   UNL d   1     -41.511  15.654  16.911  0.00  0.00     0.123 C 
ATOM     21  C   UNL d   1     -41.864  15.922  16.215  0.00  0.00     0.029 C 
ENDBRANCH  19  20
ENDBRANCH  16  19
ENDBRANCH  12  13
ENDBRANCH   1  12
TORSDOF 5
ENDMDL
MODEL 5
REMARK VINA RESULT:      -5.3      8.919      9.401
REMARK  5 active torsions:
REMARK  status: ('A' for Active; 'I' for Inactive)
REMARK    1  A    between atoms: C_4  and  C_1 
REMARK    2  A    between atoms: N_8  and  C_4 
REMARK    3  A    between atoms: C_11  and  N_8 
REMARK    4  A    between atoms: O_17  and  C_12 
REMARK    5  A    between atoms: C_20  and  O_17 
ROOT
ATOM      1  C   UNL d   1     -39.428  14.533  19.160  0.00  0.00     0.105 C 
ENDROOT
BRANCH   1   2
ATOM      2  C   UNL d   1     -39.783  14.822  18.459  0.00  0.00     0.096 A 
ATOM      3  C   UNL d   1     -40.494  14.506  18.195  0.00  0.00     0.196 A 
ATOM      4  C   UNL d   1     -40.837  14.799  17.500  0.00  0.00     0.019 A 
ATOM      5  O   UNL d   1     -40.871  13.893  18.621  0.00  0.00    -0.287 OA
ATOM      6  C   UNL d   1     -40.468  15.406  17.075  0.00  0.00     0.043 A 
ATOM      7  C   UNL d   1     -39.752  15.719  17.349  0.00  0.00     0.019 A 
ATOM      8  C   UNL d   1     -41.151  15.209  16.685  0.00  0.00     0.009 C 
ATOM      9  C   UNL d   1     -40.457  15.921  16.430  0.00  0.00     0.009 C 
ATOM     10  C   UNL d   1     -39.407  15.432  18.037  0.00  0.00     0.196 A 
ATOM     11  O   UNL d   1     -38.684  15.760  18.297  0.00  0.00    -0.287 OA
ENDBRANCH   1   2
BRANCH   1  12
ATOM     12  N   UNL d   1     -39.689  14.774  19.898  0.00  0.00    -0.244 NA
BRANCH  12  13
ATOM     13  C   UNL d   1     -39.290  14.525  20.570  0.00  0.00     0.082 A 
ATOM     14  C   UNL d   1     -39.437  14.906  21.287  0.00  0.00     0.021 A 
ATOM     15  C   UNL d   1     -39.031  14.653  21.964  0.00  0.00     0.026 A 
ATOM     16  C   UNL d   1     -38.490  14.032  21.930  0.00  0.00     0.100 A 
ATOM     17  C   UNL d   1     -38.351  13.658  21.205  0.00  0.00     0.026 A 
ATOM     18  C   UNL d   1     -38.751  13.905  20.529  0.00  0.00     0.021 A 
BRANCH  16  19
ATOM     19  O   UNL d   1     -38.077  13.776  22.624  0.00  0.00    -0.305 OA
BRANCH  19  20
ATOM     20  C   UNL d   1     -38.426  13.222  23.157  0.00  0.00     0.123 C 
ATOM     21  C   UNL d   1     -37.940  12.832  23.697  0.00  0.00     0.029 C 
ENDBRANCH  19  20
ENDBRANCH  16  19
ENDBRANCH  12  13
ENDBRANCH   1  12
TORSDOF 5
ENDMDL
MODEL 6
REMARK VINA RESULT:      -5.2      8.672     10.235
REMARK  5 active torsions:
REMARK  status: ('A' for Active; 'I' for Inactive)
REMARK    1  A    between atoms: C_4  and  C_1 
REMARK    2  A    between atoms: N_8  and  C_4 
REMARK    3  A    between atoms: C_11  and  N_8 
REMARK    4  A    between atoms: O_17  and  C_12 
REMARK    5  A    between atoms: C_20  and  O_17 
ROOT
ATOM      1  C   UNL d   1     -39.524  14.565  18.711  0.00  0.00     0.105 C 
ENDROOT
BRANCH   1   2
ATOM      2  C   UNL d   1     -39.867  14.809  19.434  0.00  0.00     0.096 A 
ATOM      3  C   UNL d   1     -40.613  14.540  19.649  0.00  0.00     0.196 A 
ATOM      4  C   UNL d   1     -40.944  14.788  20.368  0.00  0.00     0.019 A 
ATOM      5  O   UNL d   1     -41.039  14.022  19.151  0.00  0.00    -0.287 OA
ATOM      6  C   UNL d   1     -40.527  15.302  20.865  0.00  0.00     0.043 A 
ATOM      7  C   UNL d   1     -39.776  15.567  20.640  0.00  0.00     0.019 A 
ATOM      8  C   UNL d   1     -41.238  15.134  21.220  0.00  0.00     0.009 C 
ATOM      9  C   UNL d   1     -40.482  15.737  21.565  0.00  0.00     0.009 C 
ATOM     10  C   UNL d   1     -39.442  15.325  19.929  0.00  0.00     0.196 A 
ATOM     11  O   UNL d   1     -38.684  15.603  19.720  0.00  0.00    -0.287 OA
ENDBRANCH   1   2
BRANCH   1  12
ATOM     12  N   UNL d   1     -39.684  14.959  18.012  0.00  0.00    -0.244 NA
BRANCH  12  13
ATOM     13  C   UNL d   1     -39.257  14.776  17.335  0.00  0.00     0.082 A 
ATOM     14  C   UNL d   1     -39.183  15.344  16.742  0.00  0.00     0.021 A 
ATOM     15  C   UNL d   1     -38.750  15.155  16.061  0.00  0.00     0.026 A 
ATOM     16  C   UNL d   1     -38.398  14.415  15.969  0.00  0.00     0.100 A 
ATOM     17  C   UNL d   1     -38.481  13.854  16.572  0.00  0.00     0.026 A 
ATOM     18  C   UNL d   1     -38.909  14.035  17.251  0.00  0.00     0.021 A 
BRANCH  16  19
ATOM     19  O   UNL d   1     -37.958  14.226  15.272  0.00  0.00    -0.305 OA
BRANCH  19  20
ATOM     20  C   UNL d   1     -38.086  13.500  14.861  0.00  0.00     0.123 C 
ATOM     21  C   UNL d   1     -37.940  13.473  14.050  0.00  0.00     0.029 C 
ENDBRANCH  19  20
ENDBRANCH  16  19
ENDBRANCH  12  13
ENDBRANCH   1  12
TORSDOF 5
ENDMDL
MODEL 7
REMARK VINA RESULT:      -4.7      9.020     10.766
REMARK  5 active torsions:
REMARK  status: ('A' for Active; 'I' for Inactive)
REMARK    1  A    between atoms: C_4  and  C_1 
REMARK    2  A    between atoms: N_8  and  C_4 
REMARK    3  A    between atoms: C_11  and  N_8 
REMARK    4  A    between atoms: O_17  and  C_12 
REMARK    5  A    between atoms: C_20  and  O_17 
ROOT
ATOM      1  C   UNL d   1     -38.459  14.259  18.499  0.00  0.00     0.105 C 
ENDROOT
BRANCH   1   2
ATOM      2  C   UNL d   1     -38.356  14.206  17.671  0.00  0.00     0.096 A 
ATOM      3  C   UNL d   1     -38.128  14.867  17.239  0.00  0.00     0.196 A 
ATOM      4  C   UNL d   1     -38.028  14.804  16.419  0.00  0.00     0.019 A 
ATOM      5  O   UNL d   1     -37.996  15.599  17.621  0.00  0.00    -0.287 OA
ATOM      6  C   UNL d   1     -38.156  14.082  16.036  0.00  0.00     0.043 A 
ATOM      7  C   UNL d   1     -38.386  13.421  16.479  0.00  0.00     0.019 A 
ATOM      8  C   UNL d   1     -37.940  14.626  15.475  0.00  0.00     0.009 C 
ATOM      9  C   UNL d   1     -38.172  13.634  15.343  0.00  0.00     0.009 C 
ATOM     10  C   UNL d   1     -38.487  13.477  17.293  0.00  0.00     0.196 A 
ATOM     11  O   UNL d   1     -38.718  12.800  17.722  0.00  0.00    -0.287 OA
ENDBRANCH   1   2
BRANCH   1  12
ATOM     12  N   UNL d   1     -39.201  14.369  18.827  0.00  0.00    -0.244 NA
BRANCH  12  13
ATOM     13  C   UNL d   1     -39.269  14.564  19.622  0.00  0.00     0.082 A 
ATOM     14  C   UNL d   1     -38.715  14.268  20.156  0.00  0.00     0.021 A 
ATOM     15  C   UNL d   1     -38.788  14.468  20.957  0.00  0.00     0.026 A 
ATOM     16  C   UNL d   1     -39.399  14.953  21.223  0.00  0.00     0.100 A 
ATOM     17  C   UNL d   1     -39.948  15.243  20.677  0.00  0.00     0.026 A 
ATOM     18  C   UNL d   1     -39.882  15.049  19.880  0.00  0.00     0.021 A 
BRANCH  16  19
ATOM     19  O   UNL d   1     -39.470  15.154  22.042  0.00  0.00    -0.305 OA
BRANCH  19  20
ATOM     20  C   UNL d   1     -39.013  15.781  22.376  0.00  0.00     0.123 C 
ATOM     21  C   UNL d   1     -39.050  15.907  23.191  0.00  0.00     0.029 C 
ENDBRANCH  19  20
ENDBRANCH  16  19
ENDBRANCH  12  13
ENDBRANCH   1  12
TORSDOF 5
ENDMDL
