MODEL 1
REMARK VINA RESULT:      -4.2      0.000      0.000
REMARK  4 active torsions:
REMARK  status: ('A' for Active; 'I' for Inactive)
REMARK    1  A    between atoms: C_8  and  C_1 
REMARK    2  A    between atoms: N_11  and  C_9 
REMARK    3  A    between atoms: C_15  and  N_11 
REMARK    4  A    between atoms: C_16  and  N_11 
ROOT
ATOM      1  C   UNL d   1     -41.816-122.994 -50.207  0.00  0.00     0.102 A 
ATOM      2  C   UNL d   1     -42.197-122.294 -50.467  0.00  0.00     0.303 A 
ATOM      3  C   UNL d   1     -41.462-123.487 -50.766  0.00  0.00     0.011 A 
ATOM      4  O   UNL d   1     -42.204-122.121 -51.275  0.00  0.00    -0.273 OA
ATOM      5  C   UNL d   1     -41.851-122.612 -51.825  0.00  0.00     0.105 A 
ATOM      6  C   UNL d   1     -41.471-123.312 -51.565  0.00  0.00     0.023 A 
ATOM      7  C   UNL d   1     -41.865-122.433 -52.608  0.00  0.00     0.042 A 
ATOM      8  C   UNL d   1     -41.511-122.925 -53.163  0.00  0.00     0.066 A 
ATOM      9  O   UNL d   1     -42.560-121.785 -49.919  0.00  0.00    -0.259 OA
ATOM     10  C   UNL d   1     -41.123-123.799 -52.100  0.00  0.00     0.004 A 
ATOM     11  C   UNL d   1     -41.131-123.625 -52.903  0.00  0.00     0.018 A 
ENDROOT
BRANCH   8  12
ATOM     12  N   UNL d   1     -41.530-122.732 -53.969  0.00  0.00    -0.304 N 
BRANCH  12  13
ATOM     13  C   UNL d   1     -41.795-121.978 -54.201  0.00  0.00     0.080 C 
ATOM     14  C   UNL d   1     -42.248-121.898 -54.898  0.00  0.00     0.021 C 
ENDBRANCH  12  13
BRANCH  12  15
ATOM     15  C   UNL d   1     -41.292-123.273 -54.528  0.00  0.00     0.080 C 
ATOM     16  C   UNL d   1     -41.307-123.097 -55.316  0.00  0.00     0.021 C 
ENDBRANCH  12  15
ENDBRANCH   8  12
BRANCH   1  17
ATOM     17  C   UNL d   1     -41.799-123.185 -49.398  0.00  0.00     0.201 C 
ATOM     18  O   UNL d   1     -41.169-122.922 -48.917  0.00  0.00    -0.286 OA
ATOM     19  C   UNL d   1     -42.412-123.639 -49.075  0.00  0.00     0.045 C 
ENDBRANCH   1  17
TORSDOF 4
ENDMDL
MODEL 2
REMARK VINA RESULT:      -4.2      1.707      4.311
REMARK  4 active torsions:
REMARK  status: ('A' for Active; 'I' for Inactive)
REMARK    1  A    between atoms: C_8  and  C_1 
REMARK    2  A    between atoms: N_11  and  C_9 
REMARK    3  A    between atoms: C_15  and  N_11 
REMARK    4  A    between atoms: C_16  and  N_11 
ROOT
ATOM      1  C   UNL d   1     -41.546-122.582 -52.039  0.00  0.00     0.102 A 
ATOM      2  C   UNL d   1     -41.992-121.963 -51.693  0.00  0.00     0.303 A 
ATOM      3  C   UNL d   1     -41.263-123.189 -51.556  0.00  0.00     0.011 A 
ATOM      4  O   UNL d   1     -42.135-121.981 -50.879  0.00  0.00    -0.273 OA
ATOM      5  C   UNL d   1     -41.853-122.585 -50.404  0.00  0.00     0.105 A 
ATOM      6  C   UNL d   1     -41.407-123.203 -50.751  0.00  0.00     0.023 A 
ATOM      7  C   UNL d   1     -41.999-122.592 -49.615  0.00  0.00     0.042 A 
ATOM      8  C   UNL d   1     -41.717-123.197 -49.136  0.00  0.00     0.066 A 
ATOM      9  O   UNL d   1     -42.286-121.343 -52.163  0.00  0.00    -0.259 OA
ATOM     10  C   UNL d   1     -41.127-123.799 -50.291  0.00  0.00     0.004 A 
ATOM     11  C   UNL d   1     -41.270-123.815 -49.483  0.00  0.00     0.018 A 
ENDROOT
BRANCH   8  12
ATOM     12  N   UNL d   1     -41.871-123.196 -48.321  0.00  0.00    -0.304 N 
BRANCH  12  13
ATOM     13  C   UNL d   1     -41.235-123.152 -47.787  0.00  0.00     0.080 C 
ATOM     14  C   UNL d   1     -41.385-122.987 -46.982  0.00  0.00     0.021 C 
ENDBRANCH  12  13
BRANCH  12  15
ATOM     15  C   UNL d   1     -42.636-123.237 -48.047  0.00  0.00     0.080 C 
ATOM     16  C   UNL d   1     -42.851-123.775 -47.485  0.00  0.00     0.021 C 
ENDBRANCH  12  15
ENDBRANCH   8  12
BRANCH   1  17
ATOM     17  C   UNL d   1     -41.392-122.581 -52.856  0.00  0.00     0.201 C 
ATOM     18  O   UNL d   1     -41.135-121.882 -53.235  0.00  0.00    -0.286 OA
ATOM     19  C   UNL d   1     -41.496-123.278 -53.289  0.00  0.00     0.045 C 
ENDBRANCH   1  17
TORSDOF 4
ENDMDL
MODEL 3
REMARK VINA RESULT:      -4.1      0.981      1.255
REMARK  4 active torsions:
REMARK  status: ('A' for Active; 'I' for Inactive)
REMARK    1  A    between atoms: C_8  and  C_1 
REMARK    2  A    between atoms: N_11  and  C_9 
REMARK    3  A    between atoms: C_15  and  N_11 
REMARK    4  A    between atoms: C_16  and  N_11 
ROOT
ATOM      1  C   UNL d   1     -42.330-122.914 -49.597  0.00  0.00     0.102 A 
ATOM      2  C   UNL d   1     -42.881-123.350 -50.054  0.00  0.00     0.303 A 
ATOM      3  C   UNL d   1     -41.762-122.457 -49.986  0.00  0.00     0.011 A 
ATOM      4  O   UNL d   1     -42.838-123.308 -50.878  0.00  0.00    -0.273 OA
ATOM      5  C   UNL d   1     -42.274-122.854 -51.259  0.00  0.00     0.105 A 
ATOM      6  C   UNL d   1     -41.723-122.418 -50.802  0.00  0.00     0.023 A 
ATOM      7  C   UNL d   1     -42.243-122.821 -52.061  0.00  0.00     0.042 A 
ATOM      8  C   UNL d   1     -41.677-122.365 -52.445  0.00  0.00     0.066 A 
ATOM      9  O   UNL d   1     -43.460-123.816 -49.681  0.00  0.00    -0.259 OA
ATOM     10  C   UNL d   1     -41.167-121.970 -51.169  0.00  0.00     0.004 A 
ATOM     11  C   UNL d   1     -41.126-121.930 -51.988  0.00  0.00     0.018 A 
ENDROOT
BRANCH   8  12
ATOM     12  N   UNL d   1     -41.651-122.337 -53.273  0.00  0.00    -0.304 N 
BRANCH  12  13
ATOM     13  C   UNL d   1     -42.147-121.805 -53.677  0.00  0.00     0.080 C 
ATOM     14  C   UNL d   1     -42.026-121.668 -54.492  0.00  0.00     0.021 C 
ENDBRANCH  12  13
BRANCH  12  15
ATOM     15  C   UNL d   1     -41.148-122.823 -53.687  0.00  0.00     0.080 C 
ATOM     16  C   UNL d   1     -41.333-123.087 -54.428  0.00  0.00     0.021 C 
ENDBRANCH  12  15
ENDBRANCH   8  12
BRANCH   1  17
ATOM     17  C   UNL d   1     -42.358-122.944 -48.767  0.00  0.00     0.201 C 
ATOM     18  O   UNL d   1     -42.672-122.304 -48.333  0.00  0.00    -0.286 OA
ATOM     19  C   UNL d   1     -42.071-123.615 -48.376  0.00  0.00     0.045 C 
ENDBRANCH   1  17
TORSDOF 4
ENDMDL
