MODEL 1
REMARK VINA RESULT:      14.3      0.000      0.000
REMARK  2 active torsions:
REMARK  status: ('A' for Active; 'I' for Inactive)
REMARK       I    between atoms: N_3  and  C_1 
REMARK       I    between atoms: N_4  and  C_1 
REMARK       I    between atoms: C_2  and  N_5 
REMARK       I    between atoms: N_6  and  C_2 
REMARK    1  A    between atoms: C_13  and  N_4 
REMARK    2  A    between atoms: C_14  and  N_4 
ROOT
ATOM      1  C   UNL d   1     -41.683-122.938 -52.805  0.00  0.00     0.339 C 
ATOM      2  C   UNL d   1     -41.453-121.917 -49.676  0.00  0.00     0.340 C 
ATOM      3  N   UNL d   1     -41.625-122.680 -52.011  0.00  0.00    -0.254 N 
ATOM      4  N   UNL d   1     -41.776-122.389 -53.411  0.00  0.00    -0.260 N 
ATOM      5  N   UNL d   1     -41.510-122.175 -50.457  0.00  0.00    -0.254 N 
ATOM      6  N   UNL d   1     -41.359-122.464 -49.066  0.00  0.00    -0.253 N 
ATOM      7  O   UNL d   1     -41.647-123.749 -52.979  0.00  0.00    -0.245 OA
ATOM      8  O   UNL d   1     -41.489-121.116 -49.507  0.00  0.00    -0.245 OA
ATOM      9  C   UNL d   1     -41.530-123.251 -51.406  0.00  0.00     0.104 A 
ATOM     10  C   UNL d   1     -41.660-121.887 -51.840  0.00  0.00     0.104 A 
ATOM     11  C   UNL d   1     -41.602-121.634 -51.061  0.00  0.00     0.104 A 
ATOM     12  C   UNL d   1     -41.473-122.998 -50.627  0.00  0.00     0.104 A 
ATOM     13  O   UNL d   1     -41.172-123.559 -47.841  0.00  0.00    -0.300 OA
ATOM     14  C   UNL d   1     -41.303-122.203 -48.285  0.00  0.00     0.111 A 
ATOM     15  C   UNL d   1     -41.324-123.272 -49.240  0.00  0.00     0.111 A 
ATOM     16  C   UNL d   1     -41.230-123.817 -48.622  0.00  0.00     0.142 A 
ATOM     17  C   UNL d   1     -41.209-122.745 -47.672  0.00  0.00     0.142 A 
ENDROOT
BRANCH   4  18
ATOM     18  C   UNL d   1     -41.834-122.646 -54.202  0.00  0.00     0.068 A 
ATOM     19  C   UNL d   1     -41.155-122.924 -54.597  0.00  0.00     0.018 A 
ATOM     20  C   UNL d   1     -41.213-123.178 -55.379  0.00  0.00     0.002 A 
ATOM     21  C   UNL d   1     -41.942-123.156 -55.767  0.00  0.00     0.000 A 
ATOM     22  C   UNL d   1     -42.618-122.879 -55.373  0.00  0.00     0.002 A 
ATOM     23  C   UNL d   1     -42.561-122.625 -54.590  0.00  0.00     0.018 A 
ENDBRANCH   4  18
BRANCH   4  24
ATOM     24  C   UNL d   1     -41.812-121.588 -53.243  0.00  0.00     0.068 A 
ATOM     25  C   UNL d   1     -41.123-121.140 -53.196  0.00  0.00     0.018 A 
ATOM     26  C   UNL d   1     -41.170-120.343 -53.028  0.00  0.00     0.002 A 
ATOM     27  C   UNL d   1     -41.900-119.979 -52.904  0.00  0.00     0.000 A 
ATOM     28  C   UNL d   1     -42.594-120.433 -52.953  0.00  0.00     0.002 A 
ATOM     29  C   UNL d   1     -42.549-121.238 -53.122  0.00  0.00     0.018 A 
ENDBRANCH   4  24
TORSDOF 2
ENDMDL
