MODEL 1
REMARK VINA RESULT:      27.6      0.000      0.000
REMARK  3 active torsions:
REMARK  status: ('A' for Active; 'I' for Inactive)
REMARK    1  A    between atoms: N_2  and  C_1 
REMARK    2  A    between atoms: N_4  and  C_1 
REMARK       I    between atoms: C_3  and  N_2 
REMARK    3  A    between atoms: C_5  and  C_3 
ROOT
ATOM      1  C   UNL d   1     -56.490 -99.384 -44.323  0.00  0.00     0.209 C 
ATOM      2  S   UNL d   1     -55.948 -98.756 -44.400  0.00  0.00    -0.038 SA
ENDROOT
BRANCH   1   3
ATOM      3  N   UNL d   1     -56.226-100.151 -44.239  0.00  0.00    -0.179 NA
ATOM      4  C   UNL d   1     -55.469-100.357 -44.485  0.00  0.00     0.287 C 
ATOM      5  O   UNL d   1     -54.975 -99.783 -44.819  0.00  0.00    -0.265 OA
BRANCH   4   6
ATOM      6  C   UNL d   1     -55.199-101.132 -44.401  0.00  0.00     0.087 A 
ATOM      7  S   UNL d   1     -54.953-101.567 -43.737  0.00  0.00    -0.082 SA
ATOM      8  C   UNL d   1     -54.740-102.324 -43.990  0.00  0.00     0.036 A 
ATOM      9  C   UNL d   1     -54.854-102.358 -44.803  0.00  0.00     0.008 A 
ATOM     10  C   UNL d   1     -55.137-101.622 -45.062  0.00  0.00     0.012 A 
ENDBRANCH   4   6
ENDBRANCH   1   3
BRANCH   1  11
ATOM     11  N   UNL d   1     -57.307 -99.228 -44.333  0.00  0.00    -0.281 N 
ATOM     12  C   UNL d   1     -57.739 -99.294 -45.038  0.00  0.00     0.082 A 
ATOM     13  C   UNL d   1     -58.541 -99.140 -45.047  0.00  0.00     0.019 A 
ATOM     14  C   UNL d   1     -58.932 -98.916 -44.349  0.00  0.00     0.003 A 
ATOM     15  C   UNL d   1     -58.497 -98.852 -43.651  0.00  0.00     0.019 A 
ATOM     16  C   UNL d   1     -59.750 -98.757 -44.351  0.00  0.00     0.000 C 
ATOM     17  C   UNL d   1     -57.690 -99.006 -43.642  0.00  0.00     0.082 A 
ENDBRANCH   1  11
TORSDOF 3
ENDMDL
MODEL 2
REMARK VINA RESULT:      29.3      1.472      2.183
REMARK  3 active torsions:
REMARK  status: ('A' for Active; 'I' for Inactive)
REMARK    1  A    between atoms: N_2  and  C_1 
REMARK    2  A    between atoms: N_4  and  C_1 
REMARK       I    between atoms: C_3  and  N_2 
REMARK    3  A    between atoms: C_5  and  C_3 
ROOT
ATOM      1  C   UNL d   1     -58.113 -98.783 -44.056  0.00  0.00     0.209 C 
ATOM      2  S   UNL d   1     -58.482 -98.819 -43.309  0.00  0.00    -0.038 SA
ENDROOT
BRANCH   1   3
ATOM      3  N   UNL d   1     -57.301 -98.755 -44.115  0.00  0.00    -0.179 NA
ATOM      4  C   UNL d   1     -56.856 -99.444 -44.051  0.00  0.00     0.287 C 
ATOM      5  O   UNL d   1     -57.238-100.168 -43.927  0.00  0.00    -0.265 OA
BRANCH   4   6
ATOM      6  C   UNL d   1     -56.034 -99.418 -44.110  0.00  0.00     0.087 A 
ATOM      7  S   UNL d   1     -55.483 -98.819 -43.942  0.00  0.00    -0.082 SA
ATOM      8  C   UNL d   1     -54.728 -99.110 -44.109  0.00  0.00     0.036 A 
ATOM      9  C   UNL d   1     -54.811 -99.882 -44.378  0.00  0.00     0.008 A 
ATOM     10  C   UNL d   1     -55.618-100.076 -44.381  0.00  0.00     0.012 A 
ENDBRANCH   4   6
ENDBRANCH   1   3
BRANCH   1  11
ATOM     11  N   UNL d   1     -58.578 -98.776 -44.746  0.00  0.00    -0.281 N 
ATOM     12  C   UNL d   1     -59.405 -98.763 -44.694  0.00  0.00     0.082 A 
ATOM     13  C   UNL d   1     -59.862 -98.756 -45.372  0.00  0.00     0.019 A 
ATOM     14  C   UNL d   1     -59.500 -98.762 -46.119  0.00  0.00     0.003 A 
ATOM     15  C   UNL d   1     -58.676 -98.776 -46.165  0.00  0.00     0.019 A 
ATOM     16  C   UNL d   1     -59.959 -98.755 -46.815  0.00  0.00     0.000 C 
ATOM     17  C   UNL d   1     -58.218 -98.783 -45.483  0.00  0.00     0.082 A 
ENDBRANCH   1  11
TORSDOF 3
ENDMDL
