MODEL 1
REMARK VINA RESULT:      43.6      0.000      0.000
REMARK  2 active torsions:
REMARK  status: ('A' for Active; 'I' for Inactive)
REMARK    1  A    between atoms: C_8  and  N_1 
REMARK    2  A    between atoms: N_5  and  C_9 
ROOT
ATOM      1  N   UNL d   1      14.454  14.040  -1.949  0.00  0.00    -0.192 N 
ATOM      2  C   UNL d   1      14.554  14.862  -1.941  0.00  0.00     0.281 A 
ATOM      3  N   UNL d   1      14.718  13.600  -1.337  0.00  0.00    -0.120 NA
ATOM      4  C   UNL d   1      15.092  13.957  -0.691  0.00  0.00     0.296 A 
ATOM      5  C   UNL d   1      14.925  15.234  -1.305  0.00  0.00     0.063 A 
ATOM      6  C   UNL d   1      15.209  14.759  -0.647  0.00  0.00     0.064 A 
ATOM      7  O   UNL d   1      14.285  15.329  -2.571  0.00  0.00    -0.265 OA
ATOM      8  O   UNL d   1      15.355  13.501  -0.076  0.00  0.00    -0.264 OA
ATOM      9  C   UNL d   1      15.031  16.047  -1.285  0.00  0.00     0.005 A 
ATOM     10  C   UNL d   1      15.572  15.141  -0.029  0.00  0.00     0.005 A 
ATOM     11  C   UNL d   1      15.409  16.405  -0.633  0.00  0.00     0.000 A 
ATOM     12  C   UNL d   1      15.676  15.968  -0.016  0.00  0.00     0.000 A 
ENDROOT
BRANCH   1  13
ATOM     13  C   UNL d   1      14.092  13.672  -2.568  0.00  0.00     0.086 A 
ATOM     14  C   UNL d   1      13.881  12.875  -2.515  0.00  0.00     0.021 A 
ATOM     15  C   UNL d   1      13.504  12.510  -3.173  0.00  0.00     0.025 A 
ATOM     16  C   UNL d   1      13.352  12.959  -3.863  0.00  0.00     0.127 A 
ATOM     17  C   UNL d   1      13.574  13.735  -3.874  0.00  0.00     0.025 A 
ATOM     18  C   UNL d   1      13.937  14.113  -3.258  0.00  0.00     0.021 A 
BRANCH  16  19
ATOM     19  N   UNL d   1      12.976  12.591  -4.515  0.00  0.00    -0.114 N 
ATOM     20  O   UNL d   1      12.805  13.045  -5.165  0.00  0.00    -0.532 OA
ATOM     21  O   UNL d   1      12.769  11.786  -4.534  0.00  0.00    -0.532 OA
ENDBRANCH  16  19
ENDBRANCH   1  13
TORSDOF 2
ENDMDL
MODEL 2
REMARK VINA RESULT:      44.1      1.867      4.002
REMARK  2 active torsions:
REMARK  status: ('A' for Active; 'I' for Inactive)
REMARK    1  A    between atoms: C_8  and  N_1 
REMARK    2  A    between atoms: N_5  and  C_9 
ROOT
ATOM      1  N   UNL d   1      13.770  13.150  -3.527  0.00  0.00    -0.192 N 
ATOM      2  C   UNL d   1      13.538  13.938  -3.640  0.00  0.00     0.281 A 
ATOM      3  N   UNL d   1      13.828  12.658  -4.153  0.00  0.00    -0.120 NA
ATOM      4  C   UNL d   1      13.659  12.925  -4.918  0.00  0.00     0.296 A 
ATOM      5  C   UNL d   1      13.366  14.220  -4.396  0.00  0.00     0.063 A 
ATOM      6  C   UNL d   1      13.429  13.689  -5.069  0.00  0.00     0.064 A 
ATOM      7  O   UNL d   1      13.474  14.459  -2.999  0.00  0.00    -0.265 OA
ATOM      8  O   UNL d   1      13.722  12.417  -5.544  0.00  0.00    -0.264 OA
ATOM      9  C   UNL d   1      13.136  14.997  -4.522  0.00  0.00     0.005 A 
ATOM     10  C   UNL d   1      13.256  13.983  -5.806  0.00  0.00     0.005 A 
ATOM     11  C   UNL d   1      12.966  15.264  -5.294  0.00  0.00     0.000 A 
ATOM     12  C   UNL d   1      13.023  14.774  -5.926  0.00  0.00     0.000 A 
ENDROOT
BRANCH   1  13
ATOM     13  C   UNL d   1      13.939  12.870  -2.792  0.00  0.00     0.086 A 
ATOM     14  C   UNL d   1      14.199  13.382  -2.198  0.00  0.00     0.021 A 
ATOM     15  C   UNL d   1      14.370  13.067  -1.436  0.00  0.00     0.025 A 
ATOM     16  C   UNL d   1      14.274  12.247  -1.297  0.00  0.00     0.127 A 
ATOM     17  C   UNL d   1      14.018  11.780  -1.903  0.00  0.00     0.025 A 
ATOM     18  C   UNL d   1      13.846  12.054  -2.645  0.00  0.00     0.021 A 
BRANCH  16  19
ATOM     19  N   UNL d   1      14.446  11.940  -0.537  0.00  0.00    -0.114 N 
ATOM     20  O   UNL d   1      13.825  11.790  -0.035  0.00  0.00    -0.532 OA
ATOM     21  O   UNL d   1      15.215  11.780  -0.266  0.00  0.00    -0.532 OA
ENDBRANCH  16  19
ENDBRANCH   1  13
TORSDOF 2
ENDMDL
