MODEL 1
REMARK VINA RESULT:      -7.7      0.000      0.000
REMARK  3 active torsions:
REMARK  status: ('A' for Active; 'I' for Inactive)
REMARK    1  A    between atoms: C_4  and  S_1 
REMARK       I    between atoms: C_2  and  N_3 
REMARK    2  A    between atoms: C_9  and  C_2 
REMARK    3  A    between atoms: N_3  and  C_12 
ROOT
ATOM      1  C   UNL d   1     -46.185  13.213  22.645  0.00  0.00     0.107 A 
ATOM      2  C   UNL d   1     -46.840  12.733  22.764  0.00  0.00     0.015 A 
ATOM      3  C   UNL d   1     -46.249  14.033  22.739  0.00  0.00     0.015 A 
ATOM      4  C   UNL d   1     -47.632  13.879  23.070  0.00  0.00     0.085 A 
ATOM      5  C   UNL d   1     -46.983  14.371  22.954  0.00  0.00     0.020 A 
ATOM      6  C   UNL d   1     -47.574  13.071  22.979  0.00  0.00     0.020 A 
ENDROOT
BRANCH   4   7
ATOM      7  N   UNL d   1     -48.375  14.221  23.289  0.00  0.00    -0.208 NA
ATOM      8  C   UNL d   1     -48.876  14.532  22.714  0.00  0.00     0.279 C 
ATOM      9  O   UNL d   1     -48.649  14.511  21.902  0.00  0.00    -0.265 OA
BRANCH   8  10
ATOM     10  C   UNL d   1     -49.600  14.865  22.926  0.00  0.00     0.058 A 
ATOM     11  C   UNL d   1     -50.323  14.511  22.664  0.00  0.00     0.005 A 
ATOM     12  C   UNL d   1     -51.047  14.844  22.877  0.00  0.00     0.000 A 
ATOM     13  C   UNL d   1     -51.064  15.539  23.356  0.00  0.00     0.000 A 
ATOM     14  C   UNL d   1     -50.356  15.879  23.608  0.00  0.00     0.000 A 
ATOM     15  C   UNL d   1     -49.632  15.546  23.395  0.00  0.00     0.005 A 
ENDBRANCH   8  10
ENDBRANCH   4   7
BRANCH   1  16
ATOM     16  S   UNL d   1     -45.444  12.872  22.428  0.00  0.00     0.302 S 
ATOM     17  O   UNL d   1     -45.434  12.435  23.145  0.00  0.00    -0.197 OA
ATOM     18  O   UNL d   1     -45.453  13.302  21.723  0.00  0.00    -0.197 OA
ATOM     19  N   UNL d   1     -44.720  12.539  22.215  0.00  0.00    -0.043 N 
ENDBRANCH   1  16
TORSDOF 3
ENDMDL
MODEL 2
REMARK VINA RESULT:      -7.3      1.352      1.795
REMARK  3 active torsions:
REMARK  status: ('A' for Active; 'I' for Inactive)
REMARK    1  A    between atoms: C_4  and  S_1 
REMARK       I    between atoms: C_2  and  N_3 
REMARK    2  A    between atoms: C_9  and  C_2 
REMARK    3  A    between atoms: N_3  and  C_12 
ROOT
ATOM      1  C   UNL d   1     -46.662  11.689  23.497  0.00  0.00     0.107 A 
ATOM      2  C   UNL d   1     -47.402  11.394  23.696  0.00  0.00     0.015 A 
ATOM      3  C   UNL d   1     -46.590  12.457  23.196  0.00  0.00     0.015 A 
ATOM      4  C   UNL d   1     -48.007  12.622  23.298  0.00  0.00     0.085 A 
ATOM      5  C   UNL d   1     -47.272  12.930  23.095  0.00  0.00     0.020 A 
ATOM      6  C   UNL d   1     -48.084  11.867  23.595  0.00  0.00     0.020 A 
ENDROOT
BRANCH   4   7
ATOM      7  N   UNL d   1     -48.698  13.102  23.196  0.00  0.00    -0.208 NA
ATOM      8  C   UNL d   1     -49.018  13.217  22.446  0.00  0.00     0.279 C 
ATOM      9  O   UNL d   1     -48.658  12.857  21.774  0.00  0.00    -0.265 OA
BRANCH   8  10
ATOM     10  C   UNL d   1     -49.691  13.683  22.347  0.00  0.00     0.058 A 
ATOM     11  C   UNL d   1     -49.682  14.496  22.586  0.00  0.00     0.005 A 
ATOM     12  C   UNL d   1     -50.355  14.962  22.487  0.00  0.00     0.000 A 
ATOM     13  C   UNL d   1     -51.052  14.628  22.146  0.00  0.00     0.000 A 
ATOM     14  C   UNL d   1     -51.052  13.836  21.915  0.00  0.00     0.000 A 
ATOM     15  C   UNL d   1     -50.379  13.369  22.015  0.00  0.00     0.005 A 
ENDBRANCH   8  10
ENDBRANCH   4   7
BRANCH   1  16
ATOM     16  S   UNL d   1     -45.974  11.211  23.599  0.00  0.00     0.302 S 
ATOM     17  O   UNL d   1     -46.459  10.533  23.696  0.00  0.00    -0.197 OA
ATOM     18  O   UNL d   1     -45.497  11.878  23.503  0.00  0.00    -0.197 OA
ATOM     19  N   UNL d   1     -45.301  10.745  23.698  0.00  0.00    -0.043 N 
ENDBRANCH   1  16
TORSDOF 3
ENDMDL
MODEL 3
REMARK VINA RESULT:      -7.1      1.506      1.908
REMARK  3 active torsions:
REMARK  status: ('A' for Active; 'I' for Inactive)
REMARK    1  A    between atoms: C_4  and  S_1 
REMARK       I    between atoms: C_2  and  N_3 
REMARK    2  A    between atoms: C_9  and  C_2 
REMARK    3  A    between atoms: N_3  and  C_12 
ROOT
ATOM      1  C   UNL d   1     -45.761  12.922  22.508  0.00  0.00     0.107 A 
ATOM      2  C   UNL d   1     -46.012  12.332  23.020  0.00  0.00     0.015 A 
ATOM      3  C   UNL d   1     -46.290  13.509  22.260  0.00  0.00     0.015 A 
ATOM      4  C   UNL d   1     -47.319  12.902  23.047  0.00  0.00     0.085 A 
ATOM      5  C   UNL d   1     -47.080  13.499  22.534  0.00  0.00     0.020 A 
ATOM      6  C   UNL d   1     -46.802  12.322  23.293  0.00  0.00     0.020 A 
ENDROOT
BRANCH   4   7
ATOM      7  N   UNL d   1     -48.120  12.893  23.323  0.00  0.00    -0.208 NA
ATOM      8  C   UNL d   1     -48.709  12.522  22.883  0.00  0.00     0.279 C 
ATOM      9  O   UNL d   1     -48.516  12.150  22.151  0.00  0.00    -0.265 OA
BRANCH   8  10
ATOM     10  C   UNL d   1     -49.487  12.513  23.152  0.00  0.00     0.058 A 
ATOM     11  C   UNL d   1     -49.941  13.228  23.164  0.00  0.00     0.005 A 
ATOM     12  C   UNL d   1     -50.720  13.218  23.434  0.00  0.00     0.000 A 
ATOM     13  C   UNL d   1     -51.064  12.493  23.698  0.00  0.00     0.000 A 
ATOM     14  C   UNL d   1     -50.617  11.801  23.683  0.00  0.00     0.000 A 
ATOM     15  C   UNL d   1     -49.837  11.810  23.414  0.00  0.00     0.005 A 
ENDBRANCH   8  10
ENDBRANCH   4   7
BRANCH   1  16
ATOM     16  S   UNL d   1     -44.963  12.932  22.232  0.00  0.00     0.302 S 
ATOM     17  O   UNL d   1     -44.839  12.170  22.564  0.00  0.00    -0.197 OA
ATOM     18  O   UNL d   1     -45.085  13.679  21.905  0.00  0.00    -0.197 OA
ATOM     19  N   UNL d   1     -44.184  12.941  21.962  0.00  0.00    -0.043 N 
ENDBRANCH   1  16
TORSDOF 3
ENDMDL
MODEL 4
REMARK VINA RESULT:      -6.8      1.937      4.540
REMARK  3 active torsions:
REMARK  status: ('A' for Active; 'I' for Inactive)
REMARK    1  A    between atoms: C_4  and  S_1 
REMARK       I    between atoms: C_2  and  N_3 
REMARK    2  A    between atoms: C_9  and  C_2 
REMARK    3  A    between atoms: N_3  and  C_12 
ROOT
ATOM      1  C   UNL d   1     -49.725  14.880  23.108  0.00  0.00     0.107 A 
ATOM      2  C   UNL d   1     -49.116  15.174  22.642  0.00  0.00     0.015 A 
ATOM      3  C   UNL d   1     -49.676  14.114  23.419  0.00  0.00     0.015 A 
ATOM      4  C   UNL d   1     -48.402  13.949  22.790  0.00  0.00     0.085 A 
ATOM      5  C   UNL d   1     -49.005  13.642  23.257  0.00  0.00     0.020 A 
ATOM      6  C   UNL d   1     -48.445  14.702  22.481  0.00  0.00     0.020 A 
ENDROOT
BRANCH   4   7
ATOM      7  N   UNL d   1     -47.722  13.471  22.626  0.00  0.00    -0.208 NA
ATOM      8  C   UNL d   1     -46.979  13.695  22.901  0.00  0.00     0.279 C 
ATOM      9  O   UNL d   1     -46.891  14.405  23.347  0.00  0.00    -0.265 OA
BRANCH   8  10
ATOM     10  C   UNL d   1     -46.317  13.230  22.742  0.00  0.00     0.058 A 
ATOM     11  C   UNL d   1     -45.730  13.500  22.195  0.00  0.00     0.005 A 
ATOM     12  C   UNL d   1     -45.068  13.034  22.036  0.00  0.00     0.000 A 
ATOM     13  C   UNL d   1     -44.978  12.287  22.420  0.00  0.00     0.000 A 
ATOM     14  C   UNL d   1     -45.554  12.031  22.951  0.00  0.00     0.000 A 
ATOM     15  C   UNL d   1     -46.216  12.496  23.110  0.00  0.00     0.005 A 
ENDBRANCH   8  10
ENDBRANCH   4   7
BRANCH   1  16
ATOM     16  S   UNL d   1     -50.402  15.356  23.271  0.00  0.00     0.302 S 
ATOM     17  O   UNL d   1     -49.920  15.896  23.696  0.00  0.00    -0.197 OA
ATOM     18  O   UNL d   1     -50.876  14.826  22.853  0.00  0.00    -0.197 OA
ATOM     19  N   UNL d   1     -51.064  15.822  23.430  0.00  0.00    -0.043 N 
ENDBRANCH   1  16
TORSDOF 3
ENDMDL
MODEL 5
REMARK VINA RESULT:      -6.2      8.762      9.601
REMARK  3 active torsions:
REMARK  status: ('A' for Active; 'I' for Inactive)
REMARK    1  A    between atoms: C_4  and  S_1 
REMARK       I    between atoms: C_2  and  N_3 
REMARK    2  A    between atoms: C_9  and  C_2 
REMARK    3  A    between atoms: N_3  and  C_12 
ROOT
ATOM      1  C   UNL d   1     -40.665  15.208  17.668  0.00  0.00     0.107 A 
ATOM      2  C   UNL d   1     -40.738  15.635  18.365  0.00  0.00     0.015 A 
ATOM      3  C   UNL d   1     -40.362  14.438  17.684  0.00  0.00     0.015 A 
ATOM      4  C   UNL d   1     -40.211  14.535  19.103  0.00  0.00     0.085 A 
ATOM      5  C   UNL d   1     -40.132  14.097  18.412  0.00  0.00     0.020 A 
ATOM      6  C   UNL d   1     -40.508  15.294  19.093  0.00  0.00     0.020 A 
ENDROOT
BRANCH   4   7
ATOM      7  N   UNL d   1     -39.978  14.189  19.840  0.00  0.00    -0.208 NA
ATOM      8  C   UNL d   1     -39.253  14.381  20.180  0.00  0.00     0.279 C 
ATOM      9  O   UNL d   1     -38.738  14.926  19.794  0.00  0.00    -0.265 OA
BRANCH   8  10
ATOM     10  C   UNL d   1     -39.026  14.045  20.898  0.00  0.00     0.058 A 
ATOM     11  C   UNL d   1     -38.337  13.554  20.936  0.00  0.00     0.005 A 
ATOM     12  C   UNL d   1     -38.110  13.217  21.654  0.00  0.00     0.000 A 
ATOM     13  C   UNL d   1     -38.567  13.363  22.350  0.00  0.00     0.000 A 
ATOM     14  C   UNL d   1     -39.236  13.842  22.304  0.00  0.00     0.000 A 
ATOM     15  C   UNL d   1     -39.464  14.179  21.586  0.00  0.00     0.005 A 
ENDBRANCH   8  10
ENDBRANCH   4   7
BRANCH   1  16
ATOM     16  S   UNL d   1     -40.897  15.553  16.934  0.00  0.00     0.302 S 
ATOM     17  O   UNL d   1     -40.145  15.922  16.869  0.00  0.00    -0.197 OA
ATOM     18  O   UNL d   1     -41.636  15.191  16.997  0.00  0.00    -0.197 OA
ATOM     19  N   UNL d   1     -41.124  15.890  16.216  0.00  0.00    -0.043 N 
ENDBRANCH   1  16
TORSDOF 3
ENDMDL
MODEL 6
REMARK VINA RESULT:      -6.1      1.984      4.486
REMARK  3 active torsions:
REMARK  status: ('A' for Active; 'I' for Inactive)
REMARK    1  A    between atoms: C_4  and  S_1 
REMARK       I    between atoms: C_2  and  N_3 
REMARK    2  A    between atoms: C_9  and  C_2 
REMARK    3  A    between atoms: N_3  and  C_12 
ROOT
ATOM      1  C   UNL d   1     -49.666  14.764  22.990  0.00  0.00     0.107 A 
ATOM      2  C   UNL d   1     -49.755  14.027  23.341  0.00  0.00     0.015 A 
ATOM      3  C   UNL d   1     -48.912  15.035  22.783  0.00  0.00     0.015 A 
ATOM      4  C   UNL d   1     -48.345  13.822  23.284  0.00  0.00     0.085 A 
ATOM      5  C   UNL d   1     -48.242  14.558  22.933  0.00  0.00     0.020 A 
ATOM      6  C   UNL d   1     -49.086  13.549  23.490  0.00  0.00     0.020 A 
ENDROOT
BRANCH   4   7
ATOM      7  N   UNL d   1     -47.667  13.338  23.435  0.00  0.00    -0.208 NA
ATOM      8  C   UNL d   1     -47.504  12.686  22.958  0.00  0.00     0.279 C 
ATOM      9  O   UNL d   1     -48.016  12.498  22.315  0.00  0.00    -0.265 OA
BRANCH   8  10
ATOM     10  C   UNL d   1     -46.844  12.216  23.105  0.00  0.00     0.058 A 
ATOM     11  C   UNL d   1     -46.087  12.440  22.799  0.00  0.00     0.005 A 
ATOM     12  C   UNL d   1     -45.426  11.968  22.947  0.00  0.00     0.000 A 
ATOM     13  C   UNL d   1     -45.507  11.262  23.403  0.00  0.00     0.000 A 
ATOM     14  C   UNL d   1     -46.248  11.050  23.697  0.00  0.00     0.000 A 
ATOM     15  C   UNL d   1     -46.909  11.522  23.550  0.00  0.00     0.005 A 
ENDBRANCH   8  10
ENDBRANCH   4   7
BRANCH   1  16
ATOM     16  S   UNL d   1     -50.342  15.246  22.840  0.00  0.00     0.302 S 
ATOM     17  O   UNL d   1     -50.520  14.785  22.161  0.00  0.00    -0.197 OA
ATOM     18  O   UNL d   1     -50.167  15.699  23.507  0.00  0.00    -0.197 OA
ATOM     19  N   UNL d   1     -51.003  15.718  22.693  0.00  0.00    -0.043 N 
ENDBRANCH   1  16
TORSDOF 3
ENDMDL
MODEL 7
REMARK VINA RESULT:      -5.9      2.024      4.752
REMARK  3 active torsions:
REMARK  status: ('A' for Active; 'I' for Inactive)
REMARK    1  A    between atoms: C_4  and  S_1 
REMARK       I    between atoms: C_2  and  N_3 
REMARK    2  A    between atoms: C_9  and  C_2 
REMARK    3  A    between atoms: N_3  and  C_12 
ROOT
ATOM      1  C   UNL d   1     -47.881  14.155  22.941  0.00  0.00     0.107 A 
ATOM      2  C   UNL d   1     -48.112  13.384  23.105  0.00  0.00     0.015 A 
ATOM      3  C   UNL d   1     -47.080  14.361  22.963  0.00  0.00     0.015 A 
ATOM      4  C   UNL d   1     -46.751  13.014  23.314  0.00  0.00     0.085 A 
ATOM      5  C   UNL d   1     -46.507  13.783  23.152  0.00  0.00     0.020 A 
ATOM      6  C   UNL d   1     -47.539  12.806  23.294  0.00  0.00     0.020 A 
ENDROOT
BRANCH   4   7
ATOM      7  N   UNL d   1     -46.170  12.428  23.506  0.00  0.00    -0.208 NA
ATOM      8  C   UNL d   1     -45.719  12.078  22.912  0.00  0.00     0.279 C 
ATOM      9  O   UNL d   1     -45.835  12.303  22.108  0.00  0.00    -0.265 OA
BRANCH   8  10
ATOM     10  C   UNL d   1     -45.154  11.508  23.098  0.00  0.00     0.058 A 
ATOM     11  C   UNL d   1     -45.382  10.805  23.511  0.00  0.00     0.005 A 
ATOM     12  C   UNL d   1     -44.816  10.234  23.698  0.00  0.00     0.000 A 
ATOM     13  C   UNL d   1     -44.010  10.353  23.476  0.00  0.00     0.000 A 
ATOM     14  C   UNL d   1     -43.796  11.041  23.073  0.00  0.00     0.000 A 
ATOM     15  C   UNL d   1     -44.361  11.612  22.887  0.00  0.00     0.005 A 
ENDBRANCH   8  10
ENDBRANCH   4   7
BRANCH   1  16
ATOM     16  S   UNL d   1     -48.460  14.739  22.750  0.00  0.00     0.302 S 
ATOM     17  O   UNL d   1     -49.020  14.342  23.235  0.00  0.00    -0.197 OA
ATOM     18  O   UNL d   1     -47.910  15.129  22.275  0.00  0.00    -0.197 OA
ATOM     19  N   UNL d   1     -49.026  15.310  22.564  0.00  0.00    -0.043 N 
ENDBRANCH   1  16
TORSDOF 3
ENDMDL
