MODEL 1
REMARK VINA RESULT:      44.0      0.000      0.000
REMARK  2 active torsions:
REMARK  status: ('A' for Active; 'I' for Inactive)
REMARK    1  A    between atoms: C_9  and  C_4 
REMARK    2  A    between atoms: C_13  and  C_6 
ROOT
ATOM      1  N   UNL d   1      59.985  49.603  50.663  0.00  0.00    -0.185 N 
ATOM      2  C   UNL d   1      59.891  49.576  49.841  0.00  0.00     0.219 A 
ATOM      3  N   UNL d   1      59.242  49.614  51.001  0.00  0.00    -0.153 NA
ATOM      4  C   UNL d   1      58.683  49.594  50.401  0.00  0.00     0.156 A 
ATOM      5  S   UNL d   1      59.083  49.571  49.683  0.00  0.00    -0.024 SA
ATOM      6  C   UNL d   1      60.793  49.609  50.825  0.00  0.00     0.187 A 
ATOM      7  N   UNL d   1      61.201  49.586  50.104  0.00  0.00    -0.127 NA
ATOM      8  N   UNL d   1      60.639  49.566  49.499  0.00  0.00    -0.120 NA
ENDROOT
BRANCH   6   9
ATOM      9  C   UNL d   1      61.140  49.633  51.568  0.00  0.00     0.038 A 
ATOM     10  C   UNL d   1      61.961  49.618  51.645  0.00  0.00     0.004 A 
ATOM     11  C   UNL d   1      62.308  49.643  52.390  0.00  0.00     0.011 A 
ATOM     12  C   UNL d   1      61.830  49.683  53.061  0.00  0.00     0.058 A 
ATOM     13  C   UNL d   1      61.004  49.698  52.984  0.00  0.00     0.011 A 
ATOM     14 CL   UNL d   1      62.174  49.708  53.813  0.00  0.00    -0.082 Cl
ATOM     15  C   UNL d   1      60.670  49.673  52.237  0.00  0.00     0.004 A 
ENDBRANCH   6   9
BRANCH   4  16
ATOM     16  C   UNL d   1      57.862  49.597  50.494  0.00  0.00     0.126 A 
ATOM     17  O   UNL d   1      57.462  49.669  51.213  0.00  0.00    -0.298 OA
ATOM     18  C   UNL d   1      56.655  49.645  51.052  0.00  0.00     0.134 A 
ATOM     19 BR   UNL d   1      56.047  49.697  51.602  0.00  0.00    -0.022 Br
ATOM     20  C   UNL d   1      56.552  49.558  50.233  0.00  0.00     0.034 A 
ATOM     21  C   UNL d   1      57.301  49.529  49.889  0.00  0.00     0.029 A 
ENDBRANCH   4  16
TORSDOF 2
ENDMDL
