MODEL 1
REMARK VINA RESULT:      -3.5      0.000      0.000
REMARK  5 active torsions:
REMARK  status: ('A' for Active; 'I' for Inactive)
REMARK    1  A    between atoms: C_13  and  C_2 
REMARK       I    between atoms: N_7  and  C_10 
REMARK    2  A    between atoms: S_14  and  C_8 
REMARK    3  A    between atoms: C_20  and  N_9 
REMARK    4  A    between atoms: C_10  and  C_19 
REMARK    5  A    between atoms: C_19  and  S_14 
ROOT
ATOM      1  S   UNL d   1      32.825  18.572 -23.953  0.00  0.00    -0.061 SA
ENDROOT
BRANCH   1   2
ATOM      2  C   UNL d   1      32.640  17.784 -23.788  0.00  0.00     0.131 A 
ATOM      3  N   UNL d   1      31.870  17.508 -23.899  0.00  0.00    -0.156 NA
ATOM      4  N   UNL d   1      31.681  16.708 -23.731  0.00  0.00    -0.191 N 
ATOM      5  C   UNL d   1      30.977  16.293 -23.790  0.00  0.00     0.187 A 
ATOM      6  C   UNL d   1      32.268  16.207 -23.457  0.00  0.00     0.187 A 
ATOM      7  N   UNL d   1      31.121  15.522 -23.550  0.00  0.00    -0.127 NA
ATOM      8  N   UNL d   1      31.918  15.460 -23.342  0.00  0.00    -0.127 NA
ATOM      9  C   UNL d   1      33.037  16.483 -23.346  0.00  0.00     0.043 A 
ATOM     10  C   UNL d   1      33.223  17.271 -23.511  0.00  0.00     0.031 A 
BRANCH   5  11
ATOM     11  C   UNL d   1      30.255  16.587 -24.041  0.00  0.00     0.038 A 
ATOM     12  C   UNL d   1      30.086  16.645 -24.841  0.00  0.00     0.003 A 
ATOM     13  C   UNL d   1      29.357  16.941 -25.097  0.00  0.00     0.000 A 
ATOM     14  C   UNL d   1      28.798  17.179 -24.536  0.00  0.00     0.000 A 
ATOM     15  C   UNL d   1      28.963  17.123 -23.729  0.00  0.00     0.000 A 
ATOM     16  C   UNL d   1      29.695  16.825 -23.480  0.00  0.00     0.003 A 
ENDBRANCH   5  11
ENDBRANCH   1   2
BRANCH   1  17
ATOM     17  C   UNL d   1      33.070  19.072 -23.347  0.00  0.00     0.098 C 
BRANCH  17  18
ATOM     18  C   UNL d   1      33.155  19.872 -23.490  0.00  0.00     0.272 C 
ATOM     19  N   UNL d   1      33.153  20.400 -22.856  0.00  0.00    -0.269 N 
ATOM     20  C   UNL d   1      33.237  21.198 -23.000  0.00  0.00     0.102 A 
ATOM     21  C   UNL d   1      33.067  20.117 -22.085  0.00  0.00     0.102 A 
ATOM     22  C   UNL d   1      33.236  21.721 -22.377  0.00  0.00     0.100 A 
ATOM     23  N   UNL d   1      33.151  21.453 -21.600  0.00  0.00    -0.301 N 
ATOM     24  C   UNL d   1      33.066  20.645 -21.460  0.00  0.00     0.100 A 
ATOM     25  O   UNL d   1      33.240  20.151 -24.258  0.00  0.00    -0.266 OA
BRANCH  23  26
ATOM     26  C   UNL d   1      33.151  21.986 -20.978  0.00  0.00     0.064 A 
ATOM     27  C   UNL d   1      33.105  21.720 -20.202  0.00  0.00     0.018 A 
ATOM     28  C   UNL d   1      33.106  22.262 -19.577  0.00  0.00     0.002 A 
ATOM     29  C   UNL d   1      33.151  23.063 -19.736  0.00  0.00     0.000 A 
ATOM     30  C   UNL d   1      33.197  23.340 -20.523  0.00  0.00     0.002 A 
ATOM     31  C   UNL d   1      33.197  22.796 -21.138  0.00  0.00     0.018 A 
ENDBRANCH  23  26
ENDBRANCH  17  18
ENDBRANCH   1  17
TORSDOF 5
ENDMDL
