MODEL 1
REMARK VINA RESULT:      -8.5      0.000      0.000
REMARK  8 active torsions:
REMARK  status: ('A' for Active; 'I' for Inactive)
REMARK       I    between atoms: C_2  and  N_1 
REMARK    1  A    between atoms: C_3  and  N_1 
REMARK    2  A    between atoms: C_4  and  N_1 
REMARK    3  A    between atoms: C_6  and  C_2 
REMARK    4  A    between atoms: C_5  and  C_4 
REMARK    5  A    between atoms: C_7  and  C_5 
REMARK    6  A    between atoms: O_19  and  C_7 
REMARK    7  A    between atoms: C_9  and  O_11 
REMARK    8  A    between atoms: O_11  and  C_16 
ROOT
ATOM      1  N   UNL d   1      52.931  33.326  53.645  0.00  0.00    -0.258 N 
ATOM      2  C   UNL d   1      52.503  34.026  53.558  0.00  0.00     0.266 C 
ATOM      3  O   UNL d   1      52.791  34.728  53.880  0.00  0.00    -0.267 OA
ENDROOT
BRANCH   1   4
ATOM      4  C   UNL d   1      53.651  33.331  54.057  0.00  0.00     0.150 A 
ATOM      5  N   UNL d   1      54.361  33.426  53.650  0.00  0.00    -0.227 NA
ATOM      6  C   UNL d   1      55.073  33.431  54.063  0.00  0.00     0.101 A 
ATOM      7  C   UNL d   1      55.076  33.339  54.888  0.00  0.00     0.021 A 
ATOM      8  C   UNL d   1      54.367  33.244  55.294  0.00  0.00     0.005 A 
ATOM      9  C   UNL d   1      53.654  33.239  54.882  0.00  0.00     0.037 A 
ENDBRANCH   1   4
BRANCH   1  10
ATOM     10  C   UNL d   1      52.651  32.626  53.328  0.00  0.00     0.090 C 
BRANCH  10  11
ATOM     11  C   UNL d   1      53.135  31.947  53.328  0.00  0.00     0.087 C 
BRANCH  11  12
ATOM     12  C   UNL d   1      52.863  31.241  53.003  0.00  0.00     0.297 C 
ATOM     13  O   UNL d   1      52.899  31.121  52.187  0.00  0.00    -0.259 OA
BRANCH  12  14
ATOM     14  O   UNL d   1      52.556  30.655  53.493  0.00  0.00    -0.296 OA
ATOM     15  C   UNL d   1      52.906  29.949  53.229  0.00  0.00     0.185 C 
ENDBRANCH  12  14
ENDBRANCH  11  12
ENDBRANCH  10  11
ENDBRANCH   1  10
BRANCH   2  16
ATOM     16  C   UNL d   1      51.787  34.020  53.148  0.00  0.00     0.057 A 
ATOM     17  C   UNL d   1      51.774  34.226  52.351  0.00  0.00     0.007 A 
ATOM     18  C   UNL d   1      51.056  34.218  51.946  0.00  0.00     0.025 A 
ATOM     19  C   UNL d   1      50.360  34.008  52.335  0.00  0.00     0.103 A 
ATOM     20  C   UNL d   1      50.383  33.804  53.133  0.00  0.00     0.025 A 
ATOM     21  C   UNL d   1      51.100  33.807  53.552  0.00  0.00     0.007 A 
BRANCH  19  22
ATOM     22  O   UNL d   1      49.643  34.001  51.930  0.00  0.00    -0.273 OA
BRANCH  22  23
ATOM     23  C   UNL d   1      49.191  34.689  51.878  0.00  0.00     0.300 C 
ATOM     24  O   UNL d   1      49.040  35.136  52.553  0.00  0.00    -0.259 OA
ATOM     25  C   UNL d   1      48.890  34.931  51.142  0.00  0.00     0.074 C 
ENDBRANCH  22  23
ENDBRANCH  19  22
ENDBRANCH   2  16
TORSDOF 8
ENDMDL
MODEL 2
REMARK VINA RESULT:      -7.3      1.398      3.974
REMARK  8 active torsions:
REMARK  status: ('A' for Active; 'I' for Inactive)
REMARK       I    between atoms: C_2  and  N_1 
REMARK    1  A    between atoms: C_3  and  N_1 
REMARK    2  A    between atoms: C_4  and  N_1 
REMARK    3  A    between atoms: C_6  and  C_2 
REMARK    4  A    between atoms: C_5  and  C_4 
REMARK    5  A    between atoms: C_7  and  C_5 
REMARK    6  A    between atoms: O_19  and  C_7 
REMARK    7  A    between atoms: C_9  and  O_11 
REMARK    8  A    between atoms: O_11  and  C_16 
ROOT
ATOM      1  N   UNL d   1      53.152  33.723  54.081  0.00  0.00    -0.258 N 
ATOM      2  C   UNL d   1      53.796  33.230  54.229  0.00  0.00     0.266 C 
ATOM      3  O   UNL d   1      54.475  33.534  54.585  0.00  0.00    -0.267 OA
ENDROOT
BRANCH   1   4
ATOM      4  C   UNL d   1      53.189  34.525  54.292  0.00  0.00     0.150 A 
ATOM      5  N   UNL d   1      52.974  34.765  55.049  0.00  0.00    -0.227 NA
ATOM      6  C   UNL d   1      53.012  35.561  55.254  0.00  0.00     0.101 A 
ATOM      7  C   UNL d   1      53.268  36.122  54.698  0.00  0.00     0.021 A 
ATOM      8  C   UNL d   1      53.484  35.882  53.941  0.00  0.00     0.005 A 
ATOM      9  C   UNL d   1      53.445  35.086  53.736  0.00  0.00     0.037 A 
ENDBRANCH   1   4
BRANCH   1  10
ATOM     10  C   UNL d   1      52.475  33.429  53.728  0.00  0.00     0.090 C 
BRANCH  10  11
ATOM     11  C   UNL d   1      51.857  33.948  53.520  0.00  0.00     0.087 C 
BRANCH  11  12
ATOM     12  C   UNL d   1      51.194  33.666  53.120  0.00  0.00     0.297 C 
ATOM     13  O   UNL d   1      50.673  33.148  53.498  0.00  0.00    -0.259 OA
BRANCH  12  14
ATOM     14  O   UNL d   1      51.050  33.902  52.344  0.00  0.00    -0.296 OA
ATOM     15  C   UNL d   1      50.241  34.089  52.324  0.00  0.00     0.185 C 
ENDBRANCH  12  14
ENDBRANCH  11  12
ENDBRANCH  10  11
ENDBRANCH   1  10
BRANCH   2  16
ATOM     16  C   UNL d   1      53.759  32.433  54.019  0.00  0.00     0.057 A 
ATOM     17  C   UNL d   1      53.521  31.876  54.578  0.00  0.00     0.007 A 
ATOM     18  C   UNL d   1      53.485  31.082  54.363  0.00  0.00     0.025 A 
ATOM     19  C   UNL d   1      53.684  30.847  53.597  0.00  0.00     0.103 A 
ATOM     20  C   UNL d   1      53.921  31.411  53.046  0.00  0.00     0.025 A 
ATOM     21  C   UNL d   1      53.961  32.214  53.249  0.00  0.00     0.007 A 
BRANCH  19  22
ATOM     22  O   UNL d   1      53.648  30.053  53.384  0.00  0.00    -0.273 OA
BRANCH  22  23
ATOM     23  C   UNL d   1      53.074  29.562  53.715  0.00  0.00     0.300 C 
ATOM     24  O   UNL d   1      52.304  29.569  53.421  0.00  0.00    -0.259 OA
ATOM     25  C   UNL d   1      53.274  29.060  54.347  0.00  0.00     0.074 C 
ENDBRANCH  22  23
ENDBRANCH  19  22
ENDBRANCH   2  16
TORSDOF 8
ENDMDL
MODEL 3
REMARK VINA RESULT:      -7.1      1.765      4.359
REMARK  8 active torsions:
REMARK  status: ('A' for Active; 'I' for Inactive)
REMARK       I    between atoms: C_2  and  N_1 
REMARK    1  A    between atoms: C_3  and  N_1 
REMARK    2  A    between atoms: C_4  and  N_1 
REMARK    3  A    between atoms: C_6  and  C_2 
REMARK    4  A    between atoms: C_5  and  C_4 
REMARK    5  A    between atoms: C_7  and  C_5 
REMARK    6  A    between atoms: O_19  and  C_7 
REMARK    7  A    between atoms: C_9  and  O_11 
REMARK    8  A    between atoms: O_11  and  C_16 
ROOT
ATOM      1  N   UNL d   1      52.710  32.640  53.378  0.00  0.00    -0.258 N 
ATOM      2  C   UNL d   1      52.425  32.013  52.923  0.00  0.00     0.266 C 
ATOM      3  O   UNL d   1      51.951  32.161  52.266  0.00  0.00    -0.267 OA
ENDROOT
BRANCH   1   4
ATOM      4  C   UNL d   1      52.516  33.420  53.170  0.00  0.00     0.150 A 
ATOM      5  N   UNL d   1      52.984  33.836  52.635  0.00  0.00    -0.227 NA
ATOM      6  C   UNL d   1      52.788  34.609  52.432  0.00  0.00     0.101 A 
ATOM      7  C   UNL d   1      52.120  34.970  52.766  0.00  0.00     0.021 A 
ATOM      8  C   UNL d   1      51.652  34.555  53.301  0.00  0.00     0.005 A 
ATOM      9  C   UNL d   1      51.847  33.781  53.504  0.00  0.00     0.037 A 
ENDBRANCH   1   4
BRANCH   1  10
ATOM     10  C   UNL d   1      53.181  32.500  54.031  0.00  0.00     0.090 C 
BRANCH  10  11
ATOM     11  C   UNL d   1      53.634  33.120  54.356  0.00  0.00     0.087 C 
BRANCH  11  12
ATOM     12  C   UNL d   1      54.196  32.965  54.938  0.00  0.00     0.297 C 
ATOM     13  O   UNL d   1      53.971  32.599  55.643  0.00  0.00    -0.259 OA
BRANCH  12  14
ATOM     14  O   UNL d   1      54.983  33.176  54.816  0.00  0.00    -0.296 OA
ATOM     15  C   UNL d   1      55.167  33.689  55.443  0.00  0.00     0.185 C 
ENDBRANCH  12  14
ENDBRANCH  11  12
ENDBRANCH  10  11
ENDBRANCH   1  10
BRANCH   2  16
ATOM     16  C   UNL d   1      52.618  31.238  53.130  0.00  0.00     0.057 A 
ATOM     17  C   UNL d   1      53.351  30.930  52.913  0.00  0.00     0.007 A 
ATOM     18  C   UNL d   1      53.539  30.155  53.122  0.00  0.00     0.025 A 
ATOM     19  C   UNL d   1      53.000  29.694  53.543  0.00  0.00     0.103 A 
ATOM     20  C   UNL d   1      52.270  30.011  53.756  0.00  0.00     0.025 A 
ATOM     21  C   UNL d   1      52.068  30.790  53.552  0.00  0.00     0.007 A 
BRANCH  19  22
ATOM     22  O   UNL d   1      53.188  28.920  53.752  0.00  0.00    -0.273 OA
BRANCH  22  23
ATOM     23  C   UNL d   1      53.366  28.736  54.536  0.00  0.00     0.300 C 
ATOM     24  O   UNL d   1      52.786  28.798  55.117  0.00  0.00    -0.259 OA
ATOM     25  C   UNL d   1      54.133  28.487  54.737  0.00  0.00     0.074 C 
ENDBRANCH  22  23
ENDBRANCH  19  22
ENDBRANCH   2  16
TORSDOF 8
ENDMDL
MODEL 4
REMARK VINA RESULT:      -6.7      1.265      2.560
REMARK  8 active torsions:
REMARK  status: ('A' for Active; 'I' for Inactive)
REMARK       I    between atoms: C_2  and  N_1 
REMARK    1  A    between atoms: C_3  and  N_1 
REMARK    2  A    between atoms: C_4  and  N_1 
REMARK    3  A    between atoms: C_6  and  C_2 
REMARK    4  A    between atoms: C_5  and  C_4 
REMARK    5  A    between atoms: C_7  and  C_5 
REMARK    6  A    between atoms: O_19  and  C_7 
REMARK    7  A    between atoms: C_9  and  O_11 
REMARK    8  A    between atoms: O_11  and  C_16 
ROOT
ATOM      1  N   UNL d   1      52.924  31.854  53.501  0.00  0.00    -0.258 N 
ATOM      2  C   UNL d   1      52.306  31.964  52.965  0.00  0.00     0.266 C 
ATOM      3  O   UNL d   1      52.094  31.358  52.449  0.00  0.00    -0.267 OA
ENDROOT
BRANCH   1   4
ATOM      4  C   UNL d   1      53.330  31.130  53.517  0.00  0.00     0.150 A 
ATOM      5  N   UNL d   1      53.990  31.014  53.037  0.00  0.00    -0.227 NA
ATOM      6  C   UNL d   1      54.390  30.295  53.057  0.00  0.00     0.101 A 
ATOM      7  C   UNL d   1      54.129  29.688  53.559  0.00  0.00     0.021 A 
ATOM      8  C   UNL d   1      53.471  29.803  54.038  0.00  0.00     0.005 A 
ATOM      9  C   UNL d   1      53.070  30.522  54.019  0.00  0.00     0.037 A 
ENDBRANCH   1   4
BRANCH   1  10
ATOM     10  C   UNL d   1      53.139  32.451  54.016  0.00  0.00     0.090 C 
BRANCH  10  11
ATOM     11  C   UNL d   1      53.917  32.480  54.315  0.00  0.00     0.087 C 
BRANCH  11  12
ATOM     12  C   UNL d   1      54.148  33.091  54.816  0.00  0.00     0.297 C 
ATOM     13  O   UNL d   1      53.843  33.135  55.582  0.00  0.00    -0.259 OA
BRANCH  12  14
ATOM     14  O   UNL d   1      54.684  33.658  54.553  0.00  0.00    -0.296 OA
ATOM     15  C   UNL d   1      55.170  33.814  55.208  0.00  0.00     0.185 C 
ENDBRANCH  12  14
ENDBRANCH  11  12
ENDBRANCH  10  11
ENDBRANCH   1  10
BRANCH   2  16
ATOM     16  C   UNL d   1      51.902  32.684  52.949  0.00  0.00     0.057 A 
ATOM     17  C   UNL d   1      52.165  33.287  52.454  0.00  0.00     0.007 A 
ATOM     18  C   UNL d   1      51.759  34.003  52.442  0.00  0.00     0.025 A 
ATOM     19  C   UNL d   1      51.096  34.115  52.920  0.00  0.00     0.103 A 
ATOM     20  C   UNL d   1      50.840  33.506  53.413  0.00  0.00     0.025 A 
ATOM     21  C   UNL d   1      51.241  32.779  53.434  0.00  0.00     0.007 A 
BRANCH  19  22
ATOM     22  O   UNL d   1      50.690  34.831  52.908  0.00  0.00    -0.273 OA
BRANCH  22  23
ATOM     23  C   UNL d   1      49.901  34.854  52.669  0.00  0.00     0.300 C 
ATOM     24  O   UNL d   1      49.685  34.570  51.927  0.00  0.00    -0.259 OA
ATOM     25  C   UNL d   1      49.324  35.164  53.181  0.00  0.00     0.074 C 
ENDBRANCH  22  23
ENDBRANCH  19  22
ENDBRANCH   2  16
TORSDOF 8
ENDMDL
MODEL 5
REMARK VINA RESULT:      -6.6      1.130      2.482
REMARK  8 active torsions:
REMARK  status: ('A' for Active; 'I' for Inactive)
REMARK       I    between atoms: C_2  and  N_1 
REMARK    1  A    between atoms: C_3  and  N_1 
REMARK    2  A    between atoms: C_4  and  N_1 
REMARK    3  A    between atoms: C_6  and  C_2 
REMARK    4  A    between atoms: C_5  and  C_4 
REMARK    5  A    between atoms: C_7  and  C_5 
REMARK    6  A    between atoms: O_19  and  C_7 
REMARK    7  A    between atoms: C_9  and  O_11 
REMARK    8  A    between atoms: O_11  and  C_16 
ROOT
ATOM      1  N   UNL d   1      52.698  33.402  53.475  0.00  0.00    -0.258 N 
ATOM      2  C   UNL d   1      52.144  33.131  52.928  0.00  0.00     0.266 C 
ATOM      3  O   UNL d   1      52.267  32.417  52.535  0.00  0.00    -0.267 OA
ENDROOT
BRANCH   1   4
ATOM      4  C   UNL d   1      53.380  32.954  53.629  0.00  0.00     0.150 A 
ATOM      5  N   UNL d   1      54.044  33.031  53.149  0.00  0.00    -0.227 NA
ATOM      6  C   UNL d   1      54.717  32.585  53.305  0.00  0.00     0.101 A 
ATOM      7  C   UNL d   1      54.727  32.057  53.945  0.00  0.00     0.021 A 
ATOM      8  C   UNL d   1      54.064  31.979  54.425  0.00  0.00     0.005 A 
ATOM      9  C   UNL d   1      53.389  32.426  54.270  0.00  0.00     0.037 A 
ENDBRANCH   1   4
BRANCH   1  10
ATOM     10  C   UNL d   1      52.582  34.110  53.869  0.00  0.00     0.090 C 
BRANCH  10  11
ATOM     11  C   UNL d   1      53.238  34.536  54.158  0.00  0.00     0.087 C 
BRANCH  11  12
ATOM     12  C   UNL d   1      53.128  35.238  54.574  0.00  0.00     0.297 C 
ATOM     13  O   UNL d   1      52.939  35.215  55.378  0.00  0.00    -0.259 OA
BRANCH  12  14
ATOM     14  O   UNL d   1      53.206  35.961  54.189  0.00  0.00    -0.296 OA
ATOM     15  C   UNL d   1      53.312  36.517  54.798  0.00  0.00     0.185 C 
ENDBRANCH  12  14
ENDBRANCH  11  12
ENDBRANCH  10  11
ENDBRANCH   1  10
BRANCH   2  16
ATOM     16  C   UNL d   1      51.467  33.577  52.775  0.00  0.00     0.057 A 
ATOM     17  C   UNL d   1      51.447  34.075  52.120  0.00  0.00     0.007 A 
ATOM     18  C   UNL d   1      50.769  34.519  51.972  0.00  0.00     0.025 A 
ATOM     19  C   UNL d   1      50.117  34.464  52.475  0.00  0.00     0.103 A 
ATOM     20  C   UNL d   1      50.146  33.964  53.128  0.00  0.00     0.025 A 
ATOM     21  C   UNL d   1      50.824  33.511  53.288  0.00  0.00     0.007 A 
BRANCH  19  22
ATOM     22  O   UNL d   1      49.440  34.908  52.327  0.00  0.00    -0.273 OA
BRANCH  22  23
ATOM     23  C   UNL d   1      48.965  34.732  51.675  0.00  0.00     0.300 C 
ATOM     24  O   UNL d   1      49.307  34.461  50.976  0.00  0.00    -0.259 OA
ATOM     25  C   UNL d   1      48.141  34.828  51.726  0.00  0.00     0.074 C 
ENDBRANCH  22  23
ENDBRANCH  19  22
ENDBRANCH   2  16
TORSDOF 8
ENDMDL
MODEL 6
REMARK VINA RESULT:      -6.4      1.348      4.118
REMARK  8 active torsions:
REMARK  status: ('A' for Active; 'I' for Inactive)
REMARK       I    between atoms: C_2  and  N_1 
REMARK    1  A    between atoms: C_3  and  N_1 
REMARK    2  A    between atoms: C_4  and  N_1 
REMARK    3  A    between atoms: C_6  and  C_2 
REMARK    4  A    between atoms: C_5  and  C_4 
REMARK    5  A    between atoms: C_7  and  C_5 
REMARK    6  A    between atoms: O_19  and  C_7 
REMARK    7  A    between atoms: C_9  and  O_11 
REMARK    8  A    between atoms: O_11  and  C_16 
ROOT
ATOM      1  N   UNL d   1      51.670  34.101  52.949  0.00  0.00    -0.258 N 
ATOM      2  C   UNL d   1      51.887  34.714  53.457  0.00  0.00     0.266 C 
ATOM      3  O   UNL d   1      51.418  35.388  53.514  0.00  0.00    -0.267 OA
ENDROOT
BRANCH   1   4
ATOM      4  C   UNL d   1      50.977  34.166  52.496  0.00  0.00     0.150 A 
ATOM      5  N   UNL d   1      50.239  34.116  52.858  0.00  0.00    -0.227 NA
ATOM      6  C   UNL d   1      49.555  34.182  52.405  0.00  0.00     0.101 A 
ATOM      7  C   UNL d   1      49.609  34.299  51.585  0.00  0.00     0.021 A 
ATOM      8  C   UNL d   1      50.346  34.350  51.224  0.00  0.00     0.005 A 
ATOM      9  C   UNL d   1      51.031  34.284  51.676  0.00  0.00     0.037 A 
ENDBRANCH   1   4
BRANCH   1  10
ATOM     10  C   UNL d   1      52.131  33.428  52.888  0.00  0.00     0.090 C 
BRANCH  10  11
ATOM     11  C   UNL d   1      51.768  32.678  52.857  0.00  0.00     0.087 C 
BRANCH  11  12
ATOM     12  C   UNL d   1      52.227  31.995  52.817  0.00  0.00     0.297 C 
ATOM     13  O   UNL d   1      52.832  31.935  52.258  0.00  0.00    -0.259 OA
BRANCH  12  14
ATOM     14  O   UNL d   1      52.082  31.372  53.336  0.00  0.00    -0.296 OA
ATOM     15  C   UNL d   1      52.583  30.760  53.080  0.00  0.00     0.185 C 
ENDBRANCH  12  14
ENDBRANCH  11  12
ENDBRANCH  10  11
ENDBRANCH   1  10
BRANCH   2  16
ATOM     16  C   UNL d   1      52.576  34.647  53.907  0.00  0.00     0.057 A 
ATOM     17  C   UNL d   1      52.531  34.361  54.678  0.00  0.00     0.007 A 
ATOM     18  C   UNL d   1      53.222  34.297  55.123  0.00  0.00     0.025 A 
ATOM     19  C   UNL d   1      53.948  34.517  54.800  0.00  0.00     0.103 A 
ATOM     20  C   UNL d   1      53.983  34.802  54.028  0.00  0.00     0.025 A 
ATOM     21  C   UNL d   1      53.294  34.871  53.569  0.00  0.00     0.007 A 
BRANCH  19  22
ATOM     22  O   UNL d   1      54.638  34.453  55.246  0.00  0.00    -0.273 OA
BRANCH  22  23
ATOM     23  C   UNL d   1      55.097  33.769  55.200  0.00  0.00     0.300 C 
ATOM     24  O   UNL d   1      54.822  33.065  55.529  0.00  0.00    -0.259 OA
ATOM     25  C   UNL d   1      55.836  33.792  54.821  0.00  0.00     0.074 C 
ENDBRANCH  22  23
ENDBRANCH  19  22
ENDBRANCH   2  16
TORSDOF 8
ENDMDL
MODEL 7
REMARK VINA RESULT:      -6.0      1.487      3.833
REMARK  8 active torsions:
REMARK  status: ('A' for Active; 'I' for Inactive)
REMARK       I    between atoms: C_2  and  N_1 
REMARK    1  A    between atoms: C_3  and  N_1 
REMARK    2  A    between atoms: C_4  and  N_1 
REMARK    3  A    between atoms: C_6  and  C_2 
REMARK    4  A    between atoms: C_5  and  C_4 
REMARK    5  A    between atoms: C_7  and  C_5 
REMARK    6  A    between atoms: O_19  and  C_7 
REMARK    7  A    between atoms: C_9  and  O_11 
REMARK    8  A    between atoms: O_11  and  C_16 
ROOT
ATOM      1  N   UNL d   1      53.072  31.654  53.548  0.00  0.00    -0.258 N 
ATOM      2  C   UNL d   1      53.814  31.898  53.812  0.00  0.00     0.266 C 
ATOM      3  O   UNL d   1      54.454  31.380  53.783  0.00  0.00    -0.267 OA
ENDROOT
BRANCH   1   4
ATOM      4  C   UNL d   1      52.972  30.884  53.253  0.00  0.00     0.150 A 
ATOM      5  N   UNL d   1      53.109  30.724  52.457  0.00  0.00    -0.227 NA
ATOM      6  C   UNL d   1      53.009  29.960  52.169  0.00  0.00     0.101 A 
ATOM      7  C   UNL d   1      52.770  29.351  52.680  0.00  0.00     0.021 A 
ATOM      8  C   UNL d   1      52.633  29.511  53.475  0.00  0.00     0.005 A 
ATOM      9  C   UNL d   1      52.733  30.275  53.764  0.00  0.00     0.037 A 
ENDBRANCH   1   4
BRANCH   1  10
ATOM     10  C   UNL d   1      52.433  32.164  53.575  0.00  0.00     0.090 C 
BRANCH  10  11
ATOM     11  C   UNL d   1      51.948  32.256  52.902  0.00  0.00     0.087 C 
BRANCH  11  12
ATOM     12  C   UNL d   1      51.338  32.809  52.902  0.00  0.00     0.297 C 
ATOM     13  O   UNL d   1      50.714  32.736  53.437  0.00  0.00    -0.259 OA
BRANCH  12  14
ATOM     14  O   UNL d   1      51.351  33.435  52.367  0.00  0.00    -0.296 OA
ATOM     15  C   UNL d   1      50.709  33.915  52.584  0.00  0.00     0.185 C 
ENDBRANCH  12  14
ENDBRANCH  11  12
ENDBRANCH  10  11
ENDBRANCH   1  10
BRANCH   2  16
ATOM     16  C   UNL d   1      53.913  32.663  54.105  0.00  0.00     0.057 A 
ATOM     17  C   UNL d   1      53.717  32.827  54.888  0.00  0.00     0.007 A 
ATOM     18  C   UNL d   1      53.817  33.593  55.176  0.00  0.00     0.025 A 
ATOM     19  C   UNL d   1      54.111  34.187  54.685  0.00  0.00     0.103 A 
ATOM     20  C   UNL d   1      54.304  34.014  53.904  0.00  0.00     0.025 A 
ATOM     21  C   UNL d   1      54.208  33.247  53.602  0.00  0.00     0.007 A 
BRANCH  19  22
ATOM     22  O   UNL d   1      54.211  34.952  54.974  0.00  0.00    -0.273 OA
BRANCH  22  23
ATOM     23  C   UNL d   1      53.565  35.463  55.021  0.00  0.00     0.300 C 
ATOM     24  O   UNL d   1      53.077  35.451  55.685  0.00  0.00    -0.259 OA
ATOM     25  C   UNL d   1      53.408  35.990  54.398  0.00  0.00     0.074 C 
ENDBRANCH  22  23
ENDBRANCH  19  22
ENDBRANCH   2  16
TORSDOF 8
ENDMDL
