MODEL 1
REMARK VINA RESULT:      -8.6      0.000      0.000
REMARK  4 active torsions:
REMARK  status: ('A' for Active; 'I' for Inactive)
REMARK    1  A    between atoms: S_5  and  C_2 
REMARK    2  A    between atoms: C_16  and  S_5 
REMARK    3  A    between atoms: N_11  and  C_8 
REMARK    4  A    between atoms: C_12  and  N_11 
ROOT
ATOM      1  C   UNL d   1      52.919  34.170  54.011  0.00  0.00     0.197 A 
ATOM      2  C   UNL d   1      52.429  34.719  53.629  0.00  0.00     0.227 A 
ATOM      3  N   UNL d   1      53.524  34.590  54.388  0.00  0.00    -0.192 N 
ATOM      4  N   UNL d   1      52.895  33.347  54.065  0.00  0.00    -0.206 NA
ATOM      5  N   UNL d   1      52.731  35.475  53.771  0.00  0.00    -0.115 NA
ATOM      6  N   UNL d   1      53.410  35.398  54.241  0.00  0.00    -0.058 NA
ATOM      7  C   UNL d   1      53.475  32.940  54.495  0.00  0.00     0.166 A 
ATOM      8  C   UNL d   1      54.076  33.365  54.869  0.00  0.00     0.054 A 
ATOM      9  C   UNL d   1      54.107  34.188  54.820  0.00  0.00     0.089 A 
ATOM     10  C   UNL d   1      54.660  32.962  55.302  0.00  0.00     0.005 A 
ATOM     11  C   UNL d   1      54.708  34.607  55.194  0.00  0.00     0.019 A 
ATOM     12  C   UNL d   1      55.260  33.382  55.675  0.00  0.00     0.000 A 
ATOM     13  C   UNL d   1      55.285  34.205  55.622  0.00  0.00     0.002 A 
ENDROOT
BRANCH   2  14
ATOM     14  S   UNL d   1      51.756  34.538  53.186  0.00  0.00     0.231 S 
ATOM     15  O   UNL d   1      51.317  34.398  53.867  0.00  0.00    -0.215 OA
ATOM     16  O   UNL d   1      52.199  34.680  52.506  0.00  0.00    -0.215 OA
BRANCH  14  17
ATOM     17  C   UNL d   1      51.111  34.367  52.709  0.00  0.00     0.090 A 
ATOM     18  C   UNL d   1      50.353  34.360  53.037  0.00  0.00     0.011 A 
ATOM     19  C   UNL d   1      49.706  34.189  52.567  0.00  0.00     0.001 A 
ATOM     20  C   UNL d   1      49.809  34.023  51.763  0.00  0.00     0.000 A 
ATOM     21  C   UNL d   1      50.570  34.031  51.438  0.00  0.00     0.001 A 
ATOM     22  C   UNL d   1      51.213  34.202  51.911  0.00  0.00     0.011 A 
ENDBRANCH  14  17
ENDBRANCH   2  14
BRANCH   7  23
ATOM     23  N   UNL d   1      53.451  32.117  54.549  0.00  0.00    -0.227 NA
BRANCH  23  24
ATOM     24  C   UNL d   1      53.394  31.661  53.867  0.00  0.00     0.083 A 
ATOM     25  C   UNL d   1      53.042  30.914  53.896  0.00  0.00     0.018 A 
ATOM     26  C   UNL d   1      52.985  30.458  53.213  0.00  0.00     0.002 A 
ATOM     27  C   UNL d   1      52.746  30.626  54.613  0.00  0.00     0.002 C 
ATOM     28  C   UNL d   1      52.633  29.713  53.242  0.00  0.00     0.000 C 
ATOM     29  C   UNL d   1      53.281  30.746  52.493  0.00  0.00     0.000 A 
ATOM     30  C   UNL d   1      53.634  31.497  52.472  0.00  0.00     0.002 A 
ATOM     31  C   UNL d   1      53.689  31.950  53.154  0.00  0.00     0.019 A 
ENDBRANCH  23  24
ENDBRANCH   7  23
TORSDOF 4
ENDMDL
MODEL 2
REMARK VINA RESULT:      -8.5      1.403      3.552
REMARK  4 active torsions:
REMARK  status: ('A' for Active; 'I' for Inactive)
REMARK    1  A    between atoms: S_5  and  C_2 
REMARK    2  A    between atoms: C_16  and  S_5 
REMARK    3  A    between atoms: N_11  and  C_8 
REMARK    4  A    between atoms: C_12  and  N_11 
ROOT
ATOM      1  C   UNL d   1      53.496  33.182  54.188  0.00  0.00     0.197 A 
ATOM      2  C   UNL d   1      53.923  32.472  54.157  0.00  0.00     0.227 A 
ATOM      3  N   UNL d   1      53.981  33.753  54.538  0.00  0.00    -0.192 N 
ATOM      4  N   UNL d   1      52.734  33.383  53.944  0.00  0.00    -0.206 NA
ATOM      5  N   UNL d   1      54.669  32.605  54.487  0.00  0.00    -0.115 NA
ATOM      6  N   UNL d   1      54.708  33.399  54.724  0.00  0.00    -0.058 NA
ATOM      7  C   UNL d   1      52.453  34.156  54.050  0.00  0.00     0.166 A 
ATOM      8  C   UNL d   1      52.941  34.721  54.400  0.00  0.00     0.054 A 
ATOM      9  C   UNL d   1      53.705  34.528  54.646  0.00  0.00     0.089 A 
ATOM     10  C   UNL d   1      52.664  35.497  54.508  0.00  0.00     0.005 A 
ATOM     11  C   UNL d   1      54.189  35.095  54.995  0.00  0.00     0.019 A 
ATOM     12  C   UNL d   1      53.149  36.063  54.857  0.00  0.00     0.000 A 
ATOM     13  C   UNL d   1      53.912  35.863  55.101  0.00  0.00     0.002 A 
ENDROOT
BRANCH   2  14
ATOM     14  S   UNL d   1      53.648  31.757  53.848  0.00  0.00     0.231 S 
ATOM     15  O   UNL d   1      53.941  31.941  53.102  0.00  0.00    -0.215 OA
ATOM     16  O   UNL d   1      53.356  31.577  54.597  0.00  0.00    -0.215 OA
BRANCH  14  17
ATOM     17  C   UNL d   1      53.359  31.037  53.582  0.00  0.00     0.090 A 
ATOM     18  C   UNL d   1      53.464  30.360  54.044  0.00  0.00     0.011 A 
ATOM     19  C   UNL d   1      53.178  29.640  53.783  0.00  0.00     0.001 A 
ATOM     20  C   UNL d   1      52.784  29.587  53.057  0.00  0.00     0.000 A 
ATOM     21  C   UNL d   1      52.681  30.267  52.597  0.00  0.00     0.001 A 
ATOM     22  C   UNL d   1      52.968  30.985  52.861  0.00  0.00     0.011 A 
ENDBRANCH  14  17
ENDBRANCH   2  14
BRANCH   7  23
ATOM     23  N   UNL d   1      51.691  34.357  53.807  0.00  0.00    -0.227 NA
BRANCH  23  24
ATOM     24  C   UNL d   1      51.481  34.293  53.014  0.00  0.00     0.083 A 
ATOM     25  C   UNL d   1      50.699  34.131  52.805  0.00  0.00     0.018 A 
ATOM     26  C   UNL d   1      50.489  34.067  52.011  0.00  0.00     0.002 A 
ATOM     27  C   UNL d   1      50.126  34.033  53.394  0.00  0.00     0.002 C 
ATOM     28  C   UNL d   1      49.708  33.905  51.802  0.00  0.00     0.000 C 
ATOM     29  C   UNL d   1      51.062  34.165  51.419  0.00  0.00     0.000 A 
ATOM     30  C   UNL d   1      51.846  34.328  51.637  0.00  0.00     0.002 A 
ATOM     31  C   UNL d   1      52.052  34.391  52.429  0.00  0.00     0.019 A 
ENDBRANCH  23  24
ENDBRANCH   7  23
TORSDOF 4
ENDMDL
MODEL 3
REMARK VINA RESULT:      -6.9      1.395      3.603
REMARK  4 active torsions:
REMARK  status: ('A' for Active; 'I' for Inactive)
REMARK    1  A    between atoms: S_5  and  C_2 
REMARK    2  A    between atoms: C_16  and  S_5 
REMARK    3  A    between atoms: N_11  and  C_8 
REMARK    4  A    between atoms: C_12  and  N_11 
ROOT
ATOM      1  C   UNL d   1      53.406  32.845  54.049  0.00  0.00     0.197 A 
ATOM      2  C   UNL d   1      53.865  33.387  54.477  0.00  0.00     0.227 A 
ATOM      3  N   UNL d   1      53.806  32.121  54.048  0.00  0.00    -0.192 N 
ATOM      4  N   UNL d   1      52.680  32.914  53.663  0.00  0.00    -0.206 NA
ATOM      5  N   UNL d   1      54.545  32.999  54.739  0.00  0.00    -0.115 NA
ATOM      6  N   UNL d   1      54.512  32.213  54.474  0.00  0.00    -0.058 NA
ATOM      7  C   UNL d   1      52.351  32.261  53.273  0.00  0.00     0.166 A 
ATOM      8  C   UNL d   1      52.755  31.541  53.275  0.00  0.00     0.054 A 
ATOM      9  C   UNL d   1      53.481  31.464  53.659  0.00  0.00     0.089 A 
ATOM     10  C   UNL d   1      52.430  30.883  52.886  0.00  0.00     0.005 A 
ATOM     11  C   UNL d   1      53.881  30.744  53.659  0.00  0.00     0.019 A 
ATOM     12  C   UNL d   1      52.831  30.164  52.886  0.00  0.00     0.000 A 
ATOM     13  C   UNL d   1      53.556  30.094  53.273  0.00  0.00     0.002 A 
ENDROOT
BRANCH   2  14
ATOM     14  S   UNL d   1      53.672  34.178  54.616  0.00  0.00     0.231 S 
ATOM     15  O   UNL d   1      53.233  33.977  55.283  0.00  0.00    -0.215 OA
ATOM     16  O   UNL d   1      54.112  34.375  53.949  0.00  0.00    -0.215 OA
BRANCH  14  17
ATOM     17  C   UNL d   1      53.504  34.974  54.719  0.00  0.00     0.090 A 
ATOM     18  C   UNL d   1      53.811  35.528  54.188  0.00  0.00     0.011 A 
ATOM     19  C   UNL d   1      53.647  36.322  54.286  0.00  0.00     0.001 A 
ATOM     20  C   UNL d   1      53.173  36.574  54.916  0.00  0.00     0.000 A 
ATOM     21  C   UNL d   1      52.867  36.017  55.446  0.00  0.00     0.001 A 
ATOM     22  C   UNL d   1      53.033  35.224  55.345  0.00  0.00     0.011 A 
ENDBRANCH  14  17
ENDBRANCH   2  14
BRANCH   7  23
ATOM     23  N   UNL d   1      51.626  32.330  52.886  0.00  0.00    -0.227 NA
BRANCH  23  24
ATOM     24  C   UNL d   1      51.389  33.057  52.582  0.00  0.00     0.083 A 
ATOM     25  C   UNL d   1      50.719  33.433  52.885  0.00  0.00     0.018 A 
ATOM     26  C   UNL d   1      50.482  34.161  52.580  0.00  0.00     0.002 A 
ATOM     27  C   UNL d   1      50.286  33.078  53.494  0.00  0.00     0.002 C 
ATOM     28  C   UNL d   1      49.812  34.536  52.882  0.00  0.00     0.000 C 
ATOM     29  C   UNL d   1      50.915  34.518  51.970  0.00  0.00     0.000 A 
ATOM     30  C   UNL d   1      51.587  34.134  51.671  0.00  0.00     0.002 A 
ATOM     31  C   UNL d   1      51.821  33.409  51.976  0.00  0.00     0.019 A 
ENDBRANCH  23  24
ENDBRANCH   7  23
TORSDOF 4
ENDMDL
MODEL 4
REMARK VINA RESULT:      -6.7      1.533      3.351
REMARK  4 active torsions:
REMARK  status: ('A' for Active; 'I' for Inactive)
REMARK    1  A    between atoms: S_5  and  C_2 
REMARK    2  A    between atoms: C_16  and  S_5 
REMARK    3  A    between atoms: N_11  and  C_8 
REMARK    4  A    between atoms: C_12  and  N_11 
ROOT
ATOM      1  C   UNL d   1      52.252  31.580  53.302  0.00  0.00     0.197 A 
ATOM      2  C   UNL d   1      51.528  31.922  53.086  0.00  0.00     0.227 A 
ATOM      3  N   UNL d   1      52.142  30.762  53.344  0.00  0.00    -0.192 N 
ATOM      4  N   UNL d   1      52.992  31.905  53.466  0.00  0.00    -0.206 NA
ATOM      5  N   UNL d   1      50.974  31.316  52.995  0.00  0.00    -0.115 NA
ATOM      6  N   UNL d   1      51.352  30.595  53.154  0.00  0.00    -0.058 NA
ATOM      7  C   UNL d   1      53.627  31.413  53.672  0.00  0.00     0.166 A 
ATOM      8  C   UNL d   1      53.512  30.597  53.711  0.00  0.00     0.054 A 
ATOM      9  C   UNL d   1      52.774  30.265  53.549  0.00  0.00     0.089 A 
ATOM     10  C   UNL d   1      54.144  30.099  53.917  0.00  0.00     0.005 A 
ATOM     11  C   UNL d   1      52.663  29.450  53.590  0.00  0.00     0.019 A 
ATOM     12  C   UNL d   1      54.032  29.285  53.958  0.00  0.00     0.000 A 
ATOM     13  C   UNL d   1      53.292  28.960  53.794  0.00  0.00     0.002 A 
ENDROOT
BRANCH   2  14
ATOM     14  S   UNL d   1      51.388  32.729  52.981  0.00  0.00     0.231 S 
ATOM     15  O   UNL d   1      51.797  32.730  52.268  0.00  0.00    -0.215 OA
ATOM     16  O   UNL d   1      50.978  32.724  53.696  0.00  0.00    -0.215 OA
BRANCH  14  17
ATOM     17  C   UNL d   1      51.227  33.530  52.914  0.00  0.00     0.090 A 
ATOM     18  C   UNL d   1      50.539  33.838  53.253  0.00  0.00     0.011 A 
ATOM     19  C   UNL d   1      50.373  34.636  53.190  0.00  0.00     0.001 A 
ATOM     20  C   UNL d   1      50.893  35.138  52.787  0.00  0.00     0.000 A 
ATOM     21  C   UNL d   1      51.582  34.826  52.449  0.00  0.00     0.001 A 
ATOM     22  C   UNL d   1      51.743  34.029  52.514  0.00  0.00     0.011 A 
ENDBRANCH  14  17
ENDBRANCH   2  14
BRANCH   7  23
ATOM     23  N   UNL d   1      54.368  31.738  53.835  0.00  0.00    -0.227 NA
BRANCH  23  24
ATOM     24  C   UNL d   1      54.433  32.376  54.349  0.00  0.00     0.083 A 
ATOM     25  C   UNL d   1      54.883  33.035  54.136  0.00  0.00     0.018 A 
ATOM     26  C   UNL d   1      54.948  33.674  54.651  0.00  0.00     0.002 A 
ATOM     27  C   UNL d   1      55.268  33.051  53.404  0.00  0.00     0.002 C 
ATOM     28  C   UNL d   1      55.398  34.332  54.437  0.00  0.00     0.000 C 
ATOM     29  C   UNL d   1      54.563  33.659  55.385  0.00  0.00     0.000 A 
ATOM     30  C   UNL d   1      54.112  32.994  55.593  0.00  0.00     0.002 A 
ATOM     31  C   UNL d   1      54.049  32.358  55.078  0.00  0.00     0.019 A 
ENDBRANCH  23  24
ENDBRANCH   7  23
TORSDOF 4
ENDMDL
MODEL 5
REMARK VINA RESULT:      -6.6      1.094      3.543
REMARK  4 active torsions:
REMARK  status: ('A' for Active; 'I' for Inactive)
REMARK    1  A    between atoms: S_5  and  C_2 
REMARK    2  A    between atoms: C_16  and  S_5 
REMARK    3  A    between atoms: N_11  and  C_8 
REMARK    4  A    between atoms: C_12  and  N_11 
ROOT
ATOM      1  C   UNL d   1      52.245  34.105  53.732  0.00  0.00     0.197 A 
ATOM      2  C   UNL d   1      52.792  34.577  54.138  0.00  0.00     0.227 A 
ATOM      3  N   UNL d   1      51.667  34.604  53.415  0.00  0.00    -0.192 N 
ATOM      4  N   UNL d   1      52.197  33.291  53.610  0.00  0.00    -0.206 NA
ATOM      5  N   UNL d   1      52.552  35.365  54.071  0.00  0.00    -0.115 NA
ATOM      6  N   UNL d   1      51.854  35.385  53.623  0.00  0.00    -0.058 NA
ATOM      7  C   UNL d   1      51.571  32.971  53.170  0.00  0.00     0.166 A 
ATOM      8  C   UNL d   1      50.997  33.474  52.856  0.00  0.00     0.054 A 
ATOM      9  C   UNL d   1      51.039  34.290  52.974  0.00  0.00     0.089 A 
ATOM     10  C   UNL d   1      50.368  33.159  52.414  0.00  0.00     0.005 A 
ATOM     11  C   UNL d   1      50.464  34.788  52.658  0.00  0.00     0.019 A 
ATOM     12  C   UNL d   1      49.794  33.658  52.100  0.00  0.00     0.000 A 
ATOM     13  C   UNL d   1      49.842  34.473  52.222  0.00  0.00     0.002 A 
ENDROOT
BRANCH   2  14
ATOM     14  S   UNL d   1      53.461  34.305  54.539  0.00  0.00     0.231 S 
ATOM     15  O   UNL d   1      53.013  34.115  55.203  0.00  0.00    -0.215 OA
ATOM     16  O   UNL d   1      53.906  34.496  53.873  0.00  0.00    -0.215 OA
BRANCH  14  17
ATOM     17  C   UNL d   1      54.148  34.044  54.902  0.00  0.00     0.090 A 
ATOM     18  C   UNL d   1      54.880  34.210  54.556  0.00  0.00     0.011 A 
ATOM     19  C   UNL d   1      55.569  33.953  54.914  0.00  0.00     0.001 A 
ATOM     20  C   UNL d   1      55.535  33.526  55.622  0.00  0.00     0.000 A 
ATOM     21  C   UNL d   1      54.800  33.362  55.966  0.00  0.00     0.001 A 
ATOM     22  C   UNL d   1      54.115  33.620  55.605  0.00  0.00     0.011 A 
ENDBRANCH  14  17
ENDBRANCH   2  14
BRANCH   7  23
ATOM     23  N   UNL d   1      51.523  32.156  53.048  0.00  0.00    -0.227 NA
BRANCH  23  24
ATOM     24  C   UNL d   1      52.210  31.708  52.986  0.00  0.00     0.083 A 
ATOM     25  C   UNL d   1      52.265  30.979  53.372  0.00  0.00     0.018 A 
ATOM     26  C   UNL d   1      52.952  30.531  53.310  0.00  0.00     0.002 A 
ATOM     27  C   UNL d   1      51.628  30.702  53.820  0.00  0.00     0.002 C 
ATOM     28  C   UNL d   1      53.007  29.803  53.695  0.00  0.00     0.000 C 
ATOM     29  C   UNL d   1      53.592  30.808  52.860  0.00  0.00     0.000 A 
ATOM     30  C   UNL d   1      53.530  31.541  52.476  0.00  0.00     0.002 A 
ATOM     31  C   UNL d   1      52.844  31.986  52.540  0.00  0.00     0.019 A 
ENDBRANCH  23  24
ENDBRANCH   7  23
TORSDOF 4
ENDMDL
MODEL 6
REMARK VINA RESULT:      -6.6      1.735      4.254
REMARK  4 active torsions:
REMARK  status: ('A' for Active; 'I' for Inactive)
REMARK    1  A    between atoms: S_5  and  C_2 
REMARK    2  A    between atoms: C_16  and  S_5 
REMARK    3  A    between atoms: N_11  and  C_8 
REMARK    4  A    between atoms: C_12  and  N_11 
ROOT
ATOM      1  C   UNL d   1      52.058  32.196  53.255  0.00  0.00     0.197 A 
ATOM      2  C   UNL d   1      51.943  31.375  53.246  0.00  0.00     0.227 A 
ATOM      3  N   UNL d   1      51.334  32.554  53.075  0.00  0.00    -0.192 N 
ATOM      4  N   UNL d   1      52.722  32.662  53.402  0.00  0.00    -0.206 NA
ATOM      5  N   UNL d   1      51.151  31.228  53.062  0.00  0.00    -0.115 NA
ATOM      6  N   UNL d   1      50.771  31.957  52.955  0.00  0.00    -0.058 NA
ATOM      7  C   UNL d   1      52.667  33.489  53.370  0.00  0.00     0.166 A 
ATOM      8  C   UNL d   1      51.942  33.841  53.190  0.00  0.00     0.054 A 
ATOM      9  C   UNL d   1      51.273  33.381  53.042  0.00  0.00     0.089 A 
ATOM     10  C   UNL d   1      51.881  34.669  53.157  0.00  0.00     0.005 A 
ATOM     11  C   UNL d   1      50.552  33.736  52.863  0.00  0.00     0.019 A 
ATOM     12  C   UNL d   1      51.160  35.022  52.978  0.00  0.00     0.000 A 
ATOM     13  C   UNL d   1      50.495  34.556  52.831  0.00  0.00     0.002 A 
ENDROOT
BRANCH   2  14
ATOM     14  S   UNL d   1      52.522  30.805  53.396  0.00  0.00     0.231 S 
ATOM     15  O   UNL d   1      52.792  30.843  52.620  0.00  0.00    -0.215 OA
ATOM     16  O   UNL d   1      52.249  30.770  54.172  0.00  0.00    -0.215 OA
BRANCH  14  17
ATOM     17  C   UNL d   1      53.082  30.238  53.586  0.00  0.00     0.090 A 
ATOM     18  C   UNL d   1      52.928  29.699  54.193  0.00  0.00     0.011 A 
ATOM     19  C   UNL d   1      53.483  29.131  54.387  0.00  0.00     0.001 A 
ATOM     20  C   UNL d   1      54.200  29.094  53.977  0.00  0.00     0.000 A 
ATOM     21  C   UNL d   1      54.352  29.635  53.369  0.00  0.00     0.001 A 
ATOM     22  C   UNL d   1      53.795  30.201  53.178  0.00  0.00     0.011 A 
ENDBRANCH  14  17
ENDBRANCH   2  14
BRANCH   7  23
ATOM     23  N   UNL d   1      53.331  33.956  53.517  0.00  0.00    -0.227 NA
BRANCH  23  24
ATOM     24  C   UNL d   1      53.794  33.815  54.182  0.00  0.00     0.083 A 
ATOM     25  C   UNL d   1      54.611  33.722  54.104  0.00  0.00     0.018 A 
ATOM     26  C   UNL d   1      55.075  33.581  54.770  0.00  0.00     0.002 A 
ATOM     27  C   UNL d   1      54.963  33.770  53.357  0.00  0.00     0.002 C 
ATOM     28  C   UNL d   1      55.891  33.488  54.693  0.00  0.00     0.000 C 
ATOM     29  C   UNL d   1      54.724  33.532  55.520  0.00  0.00     0.000 A 
ATOM     30  C   UNL d   1      53.902  33.626  55.590  0.00  0.00     0.002 A 
ATOM     31  C   UNL d   1      53.443  33.767  54.925  0.00  0.00     0.019 A 
ENDBRANCH  23  24
ENDBRANCH   7  23
TORSDOF 4
ENDMDL
