MODEL 1
REMARK VINA RESULT:      -6.1      0.000      0.000
REMARK  4 active torsions:
REMARK  status: ('A' for Active; 'I' for Inactive)
REMARK    1  A    between atoms: C_8  and  C_1 
REMARK    2  A    between atoms: C_6  and  O_10 
REMARK       I    between atoms: N_13  and  C_6 
REMARK    3  A    between atoms: C_11  and  C_8 
REMARK    4  A    between atoms: O_10  and  C_9 
ROOT
ATOM      1  C   UNL d   1     -41.202-122.355 -53.518  0.00  0.00     0.141 A 
ATOM      2  C   UNL d   1     -41.340-122.370 -52.181  0.00  0.00     0.105 A 
ATOM      3  O   UNL d   1     -41.291-121.875 -52.843  0.00  0.00    -0.304 OA
ATOM      4  C   UNL d   1     -41.284-123.158 -52.438  0.00  0.00     0.064 A 
ATOM      5  C   UNL d   1     -41.199-123.154 -53.260  0.00  0.00     0.220 A 
ATOM      6  C   UNL d   1     -41.430-122.203 -51.379  0.00  0.00     0.046 A 
ATOM      7  C   UNL d   1     -41.464-122.819 -50.832  0.00  0.00     0.107 A 
ATOM      8  C   UNL d   1     -41.318-123.768 -51.889  0.00  0.00     0.007 A 
ATOM      9  O   UNL d   1     -41.123-123.817 -53.751  0.00  0.00    -0.284 OA
ATOM     10  C   UNL d   1     -41.407-123.606 -51.088  0.00  0.00     0.025 A 
ATOM     11  C   UNL d   1     -41.487-121.422 -51.119  0.00  0.00     0.004 C 
ENDROOT
BRANCH   1  12
ATOM     12  C   UNL d   1     -41.131-122.095 -54.298  0.00  0.00     0.053 C 
BRANCH  12  13
ATOM     13  C   UNL d   1     -41.807-121.936 -54.744  0.00  0.00     0.102 A 
ATOM     14  O   UNL d   1     -42.469-121.508 -54.484  0.00  0.00    -0.305 OA
ATOM     15  C   UNL d   1     -43.012-121.481 -55.103  0.00  0.00     0.123 A 
ATOM     16  C   UNL d   1     -42.685-121.894 -55.746  0.00  0.00     0.029 A 
ATOM     17  C   UNL d   1     -41.943-122.171 -55.517  0.00  0.00     0.027 A 
ENDBRANCH  12  13
ENDBRANCH   1  12
BRANCH   7  18
ATOM     18  O   UNL d   1     -41.553-122.656 -50.032  0.00  0.00    -0.259 OA
BRANCH  18  19
ATOM     19  C   UNL d   1     -42.169-122.996 -49.599  0.00  0.00     0.378 C 
ATOM     20  N   UNL d   1     -42.038-123.240 -48.818  0.00  0.00    -0.249 N 
ATOM     21  C   UNL d   1     -42.655-123.582 -48.381  0.00  0.00     0.104 C 
ATOM     22  C   UNL d   1     -41.291-123.145 -48.469  0.00  0.00     0.104 C 
ATOM     23  O   UNL d   1     -42.913-123.093 -49.942  0.00  0.00    -0.237 OA
ENDBRANCH  18  19
ENDBRANCH   7  18
TORSDOF 4
ENDMDL
MODEL 2
REMARK VINA RESULT:      -5.2      1.562      4.732
REMARK  4 active torsions:
REMARK  status: ('A' for Active; 'I' for Inactive)
REMARK    1  A    between atoms: C_8  and  C_1 
REMARK    2  A    between atoms: C_6  and  O_10 
REMARK       I    between atoms: N_13  and  C_6 
REMARK    3  A    between atoms: C_11  and  C_8 
REMARK    4  A    between atoms: O_10  and  C_9 
ROOT
ATOM      1  C   UNL d   1     -41.206-122.730 -50.459  0.00  0.00     0.141 A 
ATOM      2  C   UNL d   1     -41.294-122.801 -51.798  0.00  0.00     0.105 A 
ATOM      3  O   UNL d   1     -41.273-123.253 -51.104  0.00  0.00    -0.304 OA
ATOM      4  C   UNL d   1     -41.240-121.999 -51.592  0.00  0.00     0.064 A 
ATOM      5  C   UNL d   1     -41.186-121.949 -50.768  0.00  0.00     0.220 A 
ATOM      6  C   UNL d   1     -41.355-123.021 -52.590  0.00  0.00     0.046 A 
ATOM      7  C   UNL d   1     -41.362-122.442 -53.177  0.00  0.00     0.107 A 
ATOM      8  C   UNL d   1     -41.248-121.426 -52.180  0.00  0.00     0.007 A 
ATOM      9  O   UNL d   1     -41.123-121.255 -50.319  0.00  0.00    -0.284 OA
ATOM     10  C   UNL d   1     -41.309-121.640 -52.971  0.00  0.00     0.025 A 
ATOM     11  C   UNL d   1     -41.408-123.817 -52.800  0.00  0.00     0.004 C 
ENDROOT
BRANCH   1  12
ATOM     12  C   UNL d   1     -41.166-122.938 -49.661  0.00  0.00     0.053 C 
BRANCH  12  13
ATOM     13  C   UNL d   1     -41.817-123.283 -49.291  0.00  0.00     0.102 A 
ATOM     14  O   UNL d   1     -42.536-123.478 -49.658  0.00  0.00    -0.305 OA
ATOM     15  C   UNL d   1     -43.030-123.809 -49.087  0.00  0.00     0.123 A 
ATOM     16  C   UNL d   1     -42.616-123.817 -48.367  0.00  0.00     0.029 A 
ATOM     17  C   UNL d   1     -41.870-123.492 -48.501  0.00  0.00     0.027 A 
ENDBRANCH  12  13
ENDBRANCH   1  12
BRANCH   7  18
ATOM     18  O   UNL d   1     -41.423-122.656 -53.968  0.00  0.00    -0.259 OA
BRANCH  18  19
ATOM     19  C   UNL d   1     -41.955-122.271 -54.470  0.00  0.00     0.378 C 
ATOM     20  N   UNL d   1     -41.838-122.294 -55.290  0.00  0.00    -0.249 N 
ATOM     21  C   UNL d   1     -42.371-121.908 -55.796  0.00  0.00     0.104 C 
ATOM     22  C   UNL d   1     -41.190-122.703 -55.609  0.00  0.00     0.104 C 
ATOM     23  O   UNL d   1     -42.600-121.863 -54.156  0.00  0.00    -0.237 OA
ENDBRANCH  18  19
ENDBRANCH   7  18
TORSDOF 4
ENDMDL
