MODEL 1
REMARK VINA RESULT:      21.9      0.000      0.000
REMARK  1 active torsions:
REMARK  status: ('A' for Active; 'I' for Inactive)
REMARK    1  A    between atoms: C_8  and  C_4 
ROOT
ATOM      1  N   UNL d   1      58.187  49.700  51.360  0.00  0.00    -0.211 NA
ATOM      2  C   UNL d   1      57.378  49.701  51.196  0.00  0.00     0.140 A 
ATOM      3  C   UNL d   1      57.104  49.699  50.413  0.00  0.00     0.051 A 
ATOM      4  C   UNL d   1      58.734  49.697  50.735  0.00  0.00     0.183 A 
ATOM      5  C   UNL d   1      57.660  49.696  49.777  0.00  0.00     0.104 A 
ATOM      6  O   UNL d   1      58.469  49.695  49.948  0.00  0.00    -0.289 OA
ATOM      7  S   UNL d   1      56.832  49.704  51.821  0.00  0.00    -0.057 SA
ATOM      8  C   UNL d   1      56.298  49.700  50.239  0.00  0.00     0.004 A 
ATOM      9  C   UNL d   1      57.396  49.693  49.003  0.00  0.00     0.025 A 
ATOM     10  C   UNL d   1      56.033  49.697  49.459  0.00  0.00     0.000 A 
ATOM     11  C   UNL d   1      56.580  49.694  48.834  0.00  0.00     0.002 A 
ENDROOT
BRANCH   4  12
ATOM     12  C   UNL d   1      59.552  49.696  50.896  0.00  0.00     0.041 A 
ATOM     13  C   UNL d   1      60.093  49.686  50.277  0.00  0.00     0.004 A 
ATOM     14  C   UNL d   1      60.895  49.685  50.436  0.00  0.00     0.000 A 
ATOM     15  C   UNL d   1      61.160  49.695  51.216  0.00  0.00     0.000 A 
ATOM     16  C   UNL d   1      60.619  49.705  51.828  0.00  0.00     0.000 A 
ATOM     17  C   UNL d   1      59.801  49.706  51.668  0.00  0.00     0.004 A 
ENDBRANCH   4  12
TORSDOF 1
ENDMDL
