MODEL 1
REMARK VINA RESULT:       7.3      0.000      0.000
REMARK  4 active torsions:
REMARK  status: ('A' for Active; 'I' for Inactive)
REMARK    1  A    between atoms: C_6  and  C_1 
REMARK    2  A    between atoms: C_8  and  C_5 
REMARK    3  A    between atoms: C_9  and  C_8 
REMARK    4  A    between atoms: C_13  and  C_9 
ROOT
ATOM      1  C   UNL d   1      46.361 -18.441  43.739  0.00  0.00     0.210 A 
ATOM      2  N   UNL d   1      46.279 -18.661  44.532  0.00  0.00    -0.120 NA
ATOM      3  O   UNL d   1      46.315 -17.646  43.680  0.00  0.00    -0.268 OA
ATOM      4  N   UNL d   1      46.181 -17.957  44.955  0.00  0.00    -0.121 NA
ATOM      5  C   UNL d   1      46.197 -17.318  44.473  0.00  0.00     0.205 A 
ENDROOT
BRANCH   5   6
ATOM      6  C   UNL d   1      46.114 -16.539  44.721  0.00  0.00     0.046 C 
BRANCH   6   7
ATOM      7  C   UNL d   1      45.539 -16.065  44.389  0.00  0.00     0.004 C 
BRANCH   7   8
ATOM      8  C   UNL d   1      45.533 -15.250  44.530  0.00  0.00     0.000 A 
ATOM      9  C   UNL d   1      46.227 -14.791  44.402  0.00  0.00     0.002 A 
ATOM     10  C   UNL d   1      46.219 -13.973  44.545  0.00  0.00     0.030 A 
ATOM     11  C   UNL d   1      45.528 -13.617  44.811  0.00  0.00     0.140 A 
ATOM     12  C   UNL d   1      44.830 -14.073  44.941  0.00  0.00     0.030 A 
ATOM     13  F   UNL d   1      45.518 -12.797  44.955  0.00  0.00    -0.204 F 
ATOM     14  C   UNL d   1      44.853 -14.879  44.796  0.00  0.00     0.002 A 
ENDBRANCH   7   8
ENDBRANCH   6   7
ENDBRANCH   5   6
BRANCH   1  15
ATOM     15  C   UNL d   1      46.473 -18.958  43.100  0.00  0.00     0.072 A 
ATOM     16  S   UNL d   1      46.541 -19.782  43.133  0.00  0.00    -0.083 SA
ATOM     17  C   UNL d   1      46.647 -20.063  42.363  0.00  0.00     0.035 A 
ATOM     18  C   UNL d   1      46.645 -19.415  41.854  0.00  0.00     0.008 A 
ATOM     19  C   UNL d   1      46.537 -18.729  42.314  0.00  0.00     0.011 A 
ENDBRANCH   1  15
TORSDOF 4
ENDMDL
MODEL 2
REMARK VINA RESULT:       9.2      2.615      4.930
REMARK  4 active torsions:
REMARK  status: ('A' for Active; 'I' for Inactive)
REMARK    1  A    between atoms: C_6  and  C_1 
REMARK    2  A    between atoms: C_8  and  C_5 
REMARK    3  A    between atoms: C_9  and  C_8 
REMARK    4  A    between atoms: C_13  and  C_9 
ROOT
ATOM      1  C   UNL d   1      45.552 -14.813  44.588  0.00  0.00     0.210 A 
ATOM      2  N   UNL d   1      44.952 -15.255  44.944  0.00  0.00    -0.120 NA
ATOM      3  O   UNL d   1      46.116 -15.306  44.312  0.00  0.00    -0.268 OA
ATOM      4  N   UNL d   1      45.179 -16.047  44.872  0.00  0.00    -0.121 NA
ATOM      5  C   UNL d   1      45.881 -16.120  44.494  0.00  0.00     0.205 A 
ENDROOT
BRANCH   5   6
ATOM      6  C   UNL d   1      46.258 -16.832  44.334  0.00  0.00     0.046 C 
BRANCH   6   7
ATOM      7  C   UNL d   1      45.864 -17.536  44.460  0.00  0.00     0.004 C 
BRANCH   7   8
ATOM      8  C   UNL d   1      46.060 -18.210  44.021  0.00  0.00     0.000 A 
ATOM      9  C   UNL d   1      46.088 -18.177  43.180  0.00  0.00     0.002 A 
ATOM     10  C   UNL d   1      46.284 -18.854  42.742  0.00  0.00     0.030 A 
ATOM     11  C   UNL d   1      46.450 -19.556  43.137  0.00  0.00     0.140 A 
ATOM     12  C   UNL d   1      46.423 -19.594  43.978  0.00  0.00     0.030 A 
ATOM     13  F   UNL d   1      46.647 -20.235  42.698  0.00  0.00    -0.204 F 
ATOM     14  C   UNL d   1      46.228 -18.918  44.397  0.00  0.00     0.002 A 
ENDBRANCH   7   8
ENDBRANCH   6   7
ENDBRANCH   5   6
BRANCH   1  15
ATOM     15  C   UNL d   1      45.573 -13.985  44.522  0.00  0.00     0.072 A 
ATOM     16  S   UNL d   1      45.095 -13.512  44.041  0.00  0.00    -0.083 SA
ATOM     17  C   UNL d   1      45.313 -12.723  44.157  0.00  0.00     0.035 A 
ATOM     18  C   UNL d   1      45.924 -12.707  44.710  0.00  0.00     0.008 A 
ATOM     19  C   UNL d   1      46.085 -13.493  44.935  0.00  0.00     0.011 A 
ENDBRANCH   1  15
TORSDOF 4
ENDMDL
