MODEL 1
REMARK VINA RESULT:      22.4      0.000      0.000
REMARK  7 active torsions:
REMARK  status: ('A' for Active; 'I' for Inactive)
REMARK    1  A    between atoms: C_7  and  C_1 
REMARK    2  A    between atoms: C_8  and  C_2 
REMARK    3  A    between atoms: C_10  and  C_3 
REMARK    4  A    between atoms: O_14  and  C_7 
REMARK    5  A    between atoms: O_15  and  C_8 
REMARK    6  A    between atoms: C_19  and  O_14 
REMARK    7  A    between atoms: C_20  and  O_15 
ROOT
ATOM      1  C   UNL d   1      46.365 -18.816  42.320  0.00  0.00     0.100 A 
ATOM      2  C   UNL d   1      46.285 -17.796  43.316  0.00  0.00     0.103 A 
ATOM      3  C   UNL d   1      46.266 -18.598  43.106  0.00  0.00     0.016 A 
ATOM      4  C   UNL d   1      46.484 -18.235  41.735  0.00  0.00     0.171 A 
ATOM      5  C   UNL d   1      46.404 -17.215  42.731  0.00  0.00     0.204 A 
ATOM      6  C   UNL d   1      46.504 -17.438  41.938  0.00  0.00     0.081 A 
ATOM      7  O   UNL d   1      46.431 -16.533  42.838  0.00  0.00    -0.286 OA
ATOM      8  O   UNL d   1      46.491 -18.817  41.435  0.00  0.00    -0.289 OA
ATOM      9  C   UNL d   1      46.580 -17.996  41.167  0.00  0.00     0.042 C 
ENDROOT
BRANCH   3  10
ATOM     10  C   UNL d   1      46.149 -19.168  43.681  0.00  0.00     0.001 A 
ATOM     11  C   UNL d   1      46.612 -19.177  44.363  0.00  0.00     0.000 A 
ATOM     12  C   UNL d   1      46.494 -19.752  44.943  0.00  0.00     0.000 A 
ATOM     13  C   UNL d   1      45.912 -20.323  44.844  0.00  0.00     0.000 A 
ATOM     14  C   UNL d   1      45.442 -20.322  44.163  0.00  0.00     0.000 A 
ATOM     15  C   UNL d   1      45.560 -19.747  43.583  0.00  0.00     0.000 A 
ENDBRANCH   3  10
BRANCH   2  16
ATOM     16  C   UNL d   1      46.186 -17.576  44.105  0.00  0.00     0.303 C 
ATOM     17  O   UNL d   1      46.517 -18.025  44.718  0.00  0.00    -0.259 OA
BRANCH  16  18
ATOM     18  O   UNL d   1      45.758 -16.907  44.314  0.00  0.00    -0.271 OA
BRANCH  18  19
ATOM     19  C   UNL d   1      46.131 -16.279  44.711  0.00  0.00     0.126 C 
ATOM     20  C   UNL d   1      45.738 -15.555  44.806  0.00  0.00     0.029 C 
ENDBRANCH  18  19
ENDBRANCH  16  18
ENDBRANCH   2  16
BRANCH   1  21
ATOM     21  C   UNL d   1      46.346 -19.616  42.112  0.00  0.00     0.303 C 
ATOM     22  O   UNL d   1      46.531 -20.178  42.664  0.00  0.00    -0.259 OA
BRANCH  21  23
ATOM     23  O   UNL d   1      46.141 -19.866  41.348  0.00  0.00    -0.271 OA
BRANCH  23  24
ATOM     24  C   UNL d   1      46.643 -19.714  40.715  0.00  0.00     0.126 C 
ATOM     25  C   UNL d   1      46.522 -20.099  39.991  0.00  0.00     0.029 C 
ENDBRANCH  23  24
ENDBRANCH  21  23
ENDBRANCH   1  21
TORSDOF 7
ENDMDL
MODEL 2
REMARK VINA RESULT:      23.7      0.909      2.304
REMARK  7 active torsions:
REMARK  status: ('A' for Active; 'I' for Inactive)
REMARK    1  A    between atoms: C_7  and  C_1 
REMARK    2  A    between atoms: C_8  and  C_2 
REMARK    3  A    between atoms: C_10  and  C_3 
REMARK    4  A    between atoms: O_14  and  C_7 
REMARK    5  A    between atoms: O_15  and  C_8 
REMARK    6  A    between atoms: C_19  and  O_14 
REMARK    7  A    between atoms: C_20  and  O_15 
ROOT
ATOM      1  C   UNL d   1      46.134 -19.309  42.893  0.00  0.00     0.100 A 
ATOM      2  C   UNL d   1      45.947 -18.056  43.550  0.00  0.00     0.103 A 
ATOM      3  C   UNL d   1      45.907 -18.519  42.864  0.00  0.00     0.016 A 
ATOM      4  C   UNL d   1      46.402 -19.644  43.607  0.00  0.00     0.171 A 
ATOM      5  C   UNL d   1      46.215 -18.390  44.264  0.00  0.00     0.204 A 
ATOM      6  C   UNL d   1      46.443 -19.187  44.290  0.00  0.00     0.081 A 
ATOM      7  O   UNL d   1      46.272 -18.060  44.869  0.00  0.00    -0.286 OA
ATOM      8  O   UNL d   1      46.421 -20.114  43.152  0.00  0.00    -0.289 OA
ATOM      9  C   UNL d   1      46.619 -20.079  43.997  0.00  0.00     0.042 C 
ENDROOT
BRANCH   3  10
ATOM     10  C   UNL d   1      45.644 -18.191  42.163  0.00  0.00     0.001 A 
ATOM     11  C   UNL d   1      46.172 -17.822  41.648  0.00  0.00     0.000 A 
ATOM     12  C   UNL d   1      45.906 -17.491  40.941  0.00  0.00     0.000 A 
ATOM     13  C   UNL d   1      45.110 -17.526  40.743  0.00  0.00     0.000 A 
ATOM     14  C   UNL d   1      44.572 -17.895  41.253  0.00  0.00     0.000 A 
ATOM     15  C   UNL d   1      44.838 -18.226  41.960  0.00  0.00     0.000 A 
ENDBRANCH   3  10
BRANCH   2  16
ATOM     16  C   UNL d   1      45.720 -17.263  43.523  0.00  0.00     0.303 C 
ATOM     17  O   UNL d   1      44.930 -17.050  43.387  0.00  0.00    -0.259 OA
BRANCH  16  18
ATOM     18  O   UNL d   1      46.264 -16.656  43.628  0.00  0.00    -0.271 OA
BRANCH  18  19
ATOM     19  C   UNL d   1      46.247 -16.195  44.319  0.00  0.00     0.126 C 
ATOM     20  C   UNL d   1      46.646 -15.469  44.345  0.00  0.00     0.029 C 
ENDBRANCH  18  19
ENDBRANCH  16  18
ENDBRANCH   2  16
BRANCH   1  21
ATOM     21  C   UNL d   1      46.094 -19.771  42.208  0.00  0.00     0.303 C 
ATOM     22  O   UNL d   1      45.510 -20.326  42.132  0.00  0.00    -0.259 OA
BRANCH  21  23
ATOM     23  O   UNL d   1      46.638 -19.683  41.588  0.00  0.00    -0.271 OA
BRANCH  23  24
ATOM     24  C   UNL d   1      46.597 -20.176  40.930  0.00  0.00     0.126 C 
ATOM     25  C   UNL d   1      46.639 -19.851  40.169  0.00  0.00     0.029 C 
ENDBRANCH  23  24
ENDBRANCH  21  23
ENDBRANCH   1  21
TORSDOF 7
ENDMDL
