MODEL 1
REMARK VINA RESULT:      -4.0      0.000      0.000
REMARK  9 active torsions:
REMARK  status: ('A' for Active; 'I' for Inactive)
REMARK    1  A    between atoms: C_3  and  C_1 
REMARK    2  A    between atoms: N_5  and  C_2 
REMARK    3  A    between atoms: N_4  and  C_3 
REMARK    4  A    between atoms: C_14  and  C_3 
REMARK    5  A    between atoms: C_12  and  N_4 
REMARK       I    between atoms: C_6  and  N_5 
REMARK    6  A    between atoms: C_9  and  C_6 
REMARK    7  A    between atoms: C_7  and  C_12 
REMARK       I    between atoms: N_16  and  C_7 
REMARK    8  A    between atoms: N_8  and  C_17 
REMARK    9  A    between atoms: C_17  and  C_9 
ROOT
ATOM      1  C   UNL d   1      52.927  33.636  53.241  0.00  0.00     0.036 A 
ATOM      2  C   UNL d   1      52.124  33.824  53.213  0.00  0.00     0.086 A 
ATOM      3  C   UNL d   1      53.473  34.101  52.801  0.00  0.00     0.010 A 
ATOM      4  C   UNL d   1      51.844  34.457  52.763  0.00  0.00     0.020 A 
ATOM      5  C   UNL d   1      53.194  34.734  52.352  0.00  0.00     0.035 A 
ATOM      6  C   UNL d   1      52.391  34.903  52.338  0.00  0.00     0.008 A 
ATOM      7 BR   UNL d   1      53.718  35.180  51.929  0.00  0.00    -0.049 Br
ENDROOT
BRANCH   1   8
ATOM      8  C   UNL d   1      53.227  32.984  53.702  0.00  0.00     0.083 C 
BRANCH   8   9
ATOM      9  N   UNL d   1      52.961  32.228  53.504  0.00  0.00    -0.239 NA
BRANCH   9  10
ATOM     10  C   UNL d   1      53.469  31.644  53.247  0.00  0.00     0.163 C 
BRANCH  10  11
ATOM     11  C   UNL d   1      53.175  30.902  53.043  0.00  0.00     0.317 C 
ATOM     12  O   UNL d   1      52.843  30.803  52.309  0.00  0.00    -0.262 OA
ATOM     13  N   UNL d   1      53.222  30.278  53.581  0.00  0.00    -0.083 NA
ATOM     14  N   UNL d   1      52.921  29.546  53.352  0.00  0.00    -0.019 N 
ENDBRANCH  10  11
ENDBRANCH   9  10
ENDBRANCH   8   9
BRANCH   8  15
ATOM     15  C   UNL d   1      53.745  33.106  54.301  0.00  0.00     0.018 A 
ATOM     16  C   UNL d   1      53.465  33.159  55.074  0.00  0.00     0.002 A 
ATOM     17  C   UNL d   1      53.999  33.285  55.689  0.00  0.00     0.000 A 
ATOM     18  C   UNL d   1      54.799  33.359  55.558  0.00  0.00     0.000 A 
ATOM     19  C   UNL d   1      55.093  33.307  54.770  0.00  0.00     0.000 A 
ATOM     20  C   UNL d   1      54.553  33.179  54.144  0.00  0.00     0.002 A 
ENDBRANCH   8  15
ENDBRANCH   1   8
BRANCH   2  21
ATOM     21  N   UNL d   1      51.593  33.360  53.650  0.00  0.00    -0.208 NA
ATOM     22  C   UNL d   1      50.789  33.442  53.504  0.00  0.00     0.281 C 
ATOM     23  O   UNL d   1      50.262  32.978  53.941  0.00  0.00    -0.265 OA
BRANCH  22  24
ATOM     24  C   UNL d   1      50.501  33.970  52.938  0.00  0.00     0.082 C 
BRANCH  24  25
ATOM     25  C   UNL d   1      49.794  33.826  52.564  0.00  0.00     0.085 C 
BRANCH  25  26
ATOM     26  N   UNL d   1      49.316  34.450  52.367  0.00  0.00    -0.299 N 
ATOM     27  C   UNL d   1      49.061  34.541  51.587  0.00  0.00     0.107 A 
ATOM     28  C   UNL d   1      48.574  35.173  51.379  0.00  0.00     0.142 A 
ATOM     29  O   UNL d   1      48.345  35.717  51.962  0.00  0.00    -0.300 OA
ATOM     30  C   UNL d   1      48.599  35.624  52.732  0.00  0.00     0.142 A 
ATOM     31  C   UNL d   1      49.084  34.992  52.936  0.00  0.00     0.107 A 
ENDBRANCH  25  26
ENDBRANCH  24  25
ENDBRANCH  22  24
ENDBRANCH   2  21
TORSDOF 9
ENDMDL
MODEL 2
REMARK VINA RESULT:      -3.9      1.739      4.501
REMARK  9 active torsions:
REMARK  status: ('A' for Active; 'I' for Inactive)
REMARK    1  A    between atoms: C_3  and  C_1 
REMARK    2  A    between atoms: N_5  and  C_2 
REMARK    3  A    between atoms: N_4  and  C_3 
REMARK    4  A    between atoms: C_14  and  C_3 
REMARK    5  A    between atoms: C_12  and  N_4 
REMARK       I    between atoms: C_6  and  N_5 
REMARK    6  A    between atoms: C_9  and  C_6 
REMARK    7  A    between atoms: C_7  and  C_12 
REMARK       I    between atoms: N_16  and  C_7 
REMARK    8  A    between atoms: N_8  and  C_17 
REMARK    9  A    between atoms: C_17  and  C_9 
ROOT
ATOM      1  C   UNL d   1      53.412  33.154  53.316  0.00  0.00     0.036 A 
ATOM      2  C   UNL d   1      53.238  32.354  53.211  0.00  0.00     0.086 A 
ATOM      3  C   UNL d   1      54.217  33.399  53.342  0.00  0.00     0.010 A 
ATOM      4  C   UNL d   1      53.835  31.789  53.130  0.00  0.00     0.020 A 
ATOM      5  C   UNL d   1      54.813  32.835  53.261  0.00  0.00     0.035 A 
ATOM      6  C   UNL d   1      54.618  32.045  53.158  0.00  0.00     0.008 A 
ATOM      7 BR   UNL d   1      55.585  33.070  53.286  0.00  0.00    -0.049 Br
ENDROOT
BRANCH   1   8
ATOM      8  C   UNL d   1      52.804  33.746  53.401  0.00  0.00     0.083 C 
BRANCH   8   9
ATOM      9  N   UNL d   1      52.165  33.707  52.879  0.00  0.00    -0.239 NA
BRANCH   9  10
ATOM     10  C   UNL d   1      51.836  34.377  52.547  0.00  0.00     0.163 C 
BRANCH  10  11
ATOM     11  C   UNL d   1      51.193  34.310  52.036  0.00  0.00     0.317 C 
ATOM     12  O   UNL d   1      51.336  34.157  51.251  0.00  0.00    -0.262 OA
ATOM     13  N   UNL d   1      50.426  34.399  52.325  0.00  0.00    -0.083 NA
ATOM     14  N   UNL d   1      49.801  34.327  51.792  0.00  0.00    -0.019 N 
ENDBRANCH  10  11
ENDBRANCH   9  10
ENDBRANCH   8   9
BRANCH   8  15
ATOM     15  C   UNL d   1      52.855  34.313  53.965  0.00  0.00     0.018 A 
ATOM     16  C   UNL d   1      52.678  34.124  54.747  0.00  0.00     0.002 A 
ATOM     17  C   UNL d   1      52.732  34.709  55.325  0.00  0.00     0.000 A 
ATOM     18  C   UNL d   1      52.955  35.471  55.149  0.00  0.00     0.000 A 
ATOM     19  C   UNL d   1      53.137  35.672  54.351  0.00  0.00     0.000 A 
ATOM     20  C   UNL d   1      53.084  35.080  53.762  0.00  0.00     0.002 A 
ENDBRANCH   8  15
ENDBRANCH   1   8
BRANCH   2  21
ATOM     21  N   UNL d   1      52.442  32.123  53.187  0.00  0.00    -0.208 NA
ATOM     22  C   UNL d   1      52.258  31.336  53.338  0.00  0.00     0.281 C 
ATOM     23  O   UNL d   1      51.464  31.107  53.314  0.00  0.00    -0.265 OA
BRANCH  22  24
ATOM     24  C   UNL d   1      52.843  30.778  53.512  0.00  0.00     0.082 C 
BRANCH  24  25
ATOM     25  C   UNL d   1      52.677  29.983  53.468  0.00  0.00     0.085 C 
BRANCH  25  26
ATOM     26  N   UNL d   1      52.989  29.483  54.023  0.00  0.00    -0.299 N 
ATOM     27  C   UNL d   1      53.510  28.887  53.790  0.00  0.00     0.107 A 
ATOM     28  C   UNL d   1      53.833  28.373  54.349  0.00  0.00     0.142 A 
ATOM     29  O   UNL d   1      53.628  28.464  55.148  0.00  0.00    -0.300 OA
ATOM     30  C   UNL d   1      53.113  29.055  55.374  0.00  0.00     0.142 A 
ATOM     31  C   UNL d   1      52.793  29.565  54.814  0.00  0.00     0.107 A 
ENDBRANCH  25  26
ENDBRANCH  24  25
ENDBRANCH  22  24
ENDBRANCH   2  21
TORSDOF 9
ENDMDL
MODEL 3
REMARK VINA RESULT:      -1.9      2.461      4.341
REMARK  9 active torsions:
REMARK  status: ('A' for Active; 'I' for Inactive)
REMARK    1  A    between atoms: C_3  and  C_1 
REMARK    2  A    between atoms: N_5  and  C_2 
REMARK    3  A    between atoms: N_4  and  C_3 
REMARK    4  A    between atoms: C_14  and  C_3 
REMARK    5  A    between atoms: C_12  and  N_4 
REMARK       I    between atoms: C_6  and  N_5 
REMARK    6  A    between atoms: C_9  and  C_6 
REMARK    7  A    between atoms: C_7  and  C_12 
REMARK       I    between atoms: N_16  and  C_7 
REMARK    8  A    between atoms: N_8  and  C_17 
REMARK    9  A    between atoms: C_17  and  C_9 
ROOT
ATOM      1  C   UNL d   1      52.523  33.619  53.702  0.00  0.00     0.036 A 
ATOM      2  C   UNL d   1      52.769  33.088  53.121  0.00  0.00     0.086 A 
ATOM      3  C   UNL d   1      51.700  33.740  53.825  0.00  0.00     0.010 A 
ATOM      4  C   UNL d   1      52.226  32.673  52.657  0.00  0.00     0.020 A 
ATOM      5  C   UNL d   1      51.157  33.326  53.362  0.00  0.00     0.035 A 
ATOM      6  C   UNL d   1      51.423  32.803  52.789  0.00  0.00     0.008 A 
ATOM      7 BR   UNL d   1      50.367  33.443  53.480  0.00  0.00    -0.049 Br
ENDROOT
BRANCH   1   8
ATOM      8  C   UNL d   1      53.075  34.052  54.187  0.00  0.00     0.083 C 
BRANCH   8   9
ATOM      9  N   UNL d   1      53.604  33.611  54.644  0.00  0.00    -0.239 NA
BRANCH   9  10
ATOM     10  C   UNL d   1      53.779  33.811  55.415  0.00  0.00     0.163 C 
BRANCH  10  11
ATOM     11  C   UNL d   1      54.437  33.481  55.786  0.00  0.00     0.317 C 
ATOM     12  O   UNL d   1      54.381  32.726  56.079  0.00  0.00    -0.262 OA
ATOM     13  N   UNL d   1      55.133  33.919  55.854  0.00  0.00    -0.083 NA
ATOM     14  N   UNL d   1      55.777  33.566  56.229  0.00  0.00    -0.019 N 
ENDBRANCH  10  11
ENDBRANCH   9  10
ENDBRANCH   8   9
BRANCH   8  15
ATOM     15  C   UNL d   1      53.077  34.854  54.195  0.00  0.00     0.018 A 
ATOM     16  C   UNL d   1      52.638  35.253  54.766  0.00  0.00     0.002 A 
ATOM     17  C   UNL d   1      52.641  36.078  54.773  0.00  0.00     0.000 A 
ATOM     18  C   UNL d   1      53.064  36.513  54.231  0.00  0.00     0.000 A 
ATOM     19  C   UNL d   1      53.515  36.110  53.643  0.00  0.00     0.000 A 
ATOM     20  C   UNL d   1      53.514  35.274  53.634  0.00  0.00     0.002 A 
ENDBRANCH   8  15
ENDBRANCH   1   8
BRANCH   2  21
ATOM     21  N   UNL d   1      53.583  32.975  53.007  0.00  0.00    -0.208 NA
ATOM     22  C   UNL d   1      53.867  32.206  52.944  0.00  0.00     0.281 C 
ATOM     23  O   UNL d   1      54.678  32.096  52.831  0.00  0.00    -0.265 OA
BRANCH  22  24
ATOM     24  C   UNL d   1      53.365  31.552  52.992  0.00  0.00     0.082 C 
BRANCH  24  25
ATOM     25  C   UNL d   1      53.661  30.800  52.898  0.00  0.00     0.085 C 
BRANCH  25  26
ATOM     26  N   UNL d   1      53.321  30.188  53.306  0.00  0.00    -0.299 N 
ATOM     27  C   UNL d   1      53.637  29.953  54.032  0.00  0.00     0.107 A 
ATOM     28  C   UNL d   1      53.297  29.331  54.453  0.00  0.00     0.142 A 
ATOM     29  O   UNL d   1      52.634  28.944  54.138  0.00  0.00    -0.300 OA
ATOM     30  C   UNL d   1      52.324  29.179  53.421  0.00  0.00     0.142 A 
ATOM     31  C   UNL d   1      52.666  29.800  53.004  0.00  0.00     0.107 A 
ENDBRANCH  25  26
ENDBRANCH  24  25
ENDBRANCH  22  24
ENDBRANCH   2  21
TORSDOF 9
ENDMDL
MODEL 4
REMARK VINA RESULT:      -1.5      1.946      4.888
REMARK  9 active torsions:
REMARK  status: ('A' for Active; 'I' for Inactive)
REMARK    1  A    between atoms: C_3  and  C_1 
REMARK    2  A    between atoms: N_5  and  C_2 
REMARK    3  A    between atoms: N_4  and  C_3 
REMARK    4  A    between atoms: C_14  and  C_3 
REMARK    5  A    between atoms: C_12  and  N_4 
REMARK       I    between atoms: C_6  and  N_5 
REMARK    6  A    between atoms: C_9  and  C_6 
REMARK    7  A    between atoms: C_7  and  C_12 
REMARK       I    between atoms: N_16  and  C_7 
REMARK    8  A    between atoms: N_8  and  C_17 
REMARK    9  A    between atoms: C_17  and  C_9 
ROOT
ATOM      1  C   UNL d   1      53.196  33.226  53.347  0.00  0.00     0.036 A 
ATOM      2  C   UNL d   1      53.031  32.418  53.327  0.00  0.00     0.086 A 
ATOM      3  C   UNL d   1      53.995  33.484  53.295  0.00  0.00     0.010 A 
ATOM      4  C   UNL d   1      53.633  31.856  53.257  0.00  0.00     0.020 A 
ATOM      5  C   UNL d   1      54.596  32.923  53.226  0.00  0.00     0.035 A 
ATOM      6  C   UNL d   1      54.411  32.124  53.208  0.00  0.00     0.008 A 
ATOM      7 BR   UNL d   1      55.363  33.170  53.177  0.00  0.00    -0.049 Br
ENDROOT
BRANCH   1   8
ATOM      8  C   UNL d   1      52.583  33.815  53.418  0.00  0.00     0.083 C 
BRANCH   8   9
ATOM      9  N   UNL d   1      52.515  34.203  54.144  0.00  0.00    -0.239 NA
BRANCH   9  10
ATOM     10  C   UNL d   1      52.447  35.015  54.195  0.00  0.00     0.163 C 
BRANCH  10  11
ATOM     11  C   UNL d   1      52.752  35.414  54.848  0.00  0.00     0.317 C 
ATOM     12  O   UNL d   1      52.924  34.989  55.519  0.00  0.00    -0.262 OA
ATOM     13  N   UNL d   1      52.878  36.228  54.812  0.00  0.00    -0.083 NA
ATOM     14  N   UNL d   1      53.184  36.603  55.478  0.00  0.00    -0.019 N 
ENDBRANCH  10  11
ENDBRANCH   9  10
ENDBRANCH   8   9
BRANCH   8  15
ATOM     15  C   UNL d   1      52.095  33.979  52.804  0.00  0.00     0.018 A 
ATOM     16  C   UNL d   1      51.280  33.907  52.903  0.00  0.00     0.002 A 
ATOM     17  C   UNL d   1      50.781  34.077  52.270  0.00  0.00     0.000 A 
ATOM     18  C   UNL d   1      51.066  34.315  51.546  0.00  0.00     0.000 A 
ATOM     19  C   UNL d   1      51.899  34.391  51.437  0.00  0.00     0.000 A 
ATOM     20  C   UNL d   1      52.408  34.219  52.078  0.00  0.00     0.002 A 
ENDBRANCH   8  15
ENDBRANCH   1   8
BRANCH   2  21
ATOM     21  N   UNL d   1      52.240  32.173  53.378  0.00  0.00    -0.208 NA
ATOM     22  C   UNL d   1      52.084  31.378  53.517  0.00  0.00     0.281 C 
ATOM     23  O   UNL d   1      51.295  31.138  53.568  0.00  0.00    -0.265 OA
BRANCH  22  24
ATOM     24  C   UNL d   1      52.691  30.825  53.604  0.00  0.00     0.082 C 
BRANCH  24  25
ATOM     25  C   UNL d   1      52.533  30.030  53.538  0.00  0.00     0.085 C 
BRANCH  25  26
ATOM     26  N   UNL d   1      52.909  29.510  54.033  0.00  0.00    -0.299 N 
ATOM     27  C   UNL d   1      53.463  28.981  53.726  0.00  0.00     0.107 A 
ATOM     28  C   UNL d   1      53.851  28.448  54.222  0.00  0.00     0.142 A 
ATOM     29  O   UNL d   1      53.676  28.451  55.033  0.00  0.00    -0.300 OA
ATOM     30  C   UNL d   1      53.128  28.975  55.333  0.00  0.00     0.142 A 
ATOM     31  C   UNL d   1      52.744  29.505  54.835  0.00  0.00     0.107 A 
ENDBRANCH  25  26
ENDBRANCH  24  25
ENDBRANCH  22  24
ENDBRANCH   2  21
TORSDOF 9
ENDMDL
MODEL 5
REMARK VINA RESULT:      -1.4      1.280      2.316
REMARK  9 active torsions:
REMARK  status: ('A' for Active; 'I' for Inactive)
REMARK    1  A    between atoms: C_3  and  C_1 
REMARK    2  A    between atoms: N_5  and  C_2 
REMARK    3  A    between atoms: N_4  and  C_3 
REMARK    4  A    between atoms: C_14  and  C_3 
REMARK    5  A    between atoms: C_12  and  N_4 
REMARK       I    between atoms: C_6  and  N_5 
REMARK    6  A    between atoms: C_9  and  C_6 
REMARK    7  A    between atoms: C_7  and  C_12 
REMARK       I    between atoms: N_16  and  C_7 
REMARK    8  A    between atoms: N_8  and  C_17 
REMARK    9  A    between atoms: C_17  and  C_9 
ROOT
ATOM      1  C   UNL d   1      52.756  33.385  53.142  0.00  0.00     0.036 A 
ATOM      2  C   UNL d   1      51.998  33.710  53.167  0.00  0.00     0.086 A 
ATOM      3  C   UNL d   1      53.336  33.731  52.640  0.00  0.00     0.010 A 
ATOM      4  C   UNL d   1      51.795  34.367  52.709  0.00  0.00     0.020 A 
ATOM      5  C   UNL d   1      53.133  34.388  52.184  0.00  0.00     0.035 A 
ATOM      6  C   UNL d   1      52.374  34.695  52.223  0.00  0.00     0.008 A 
ATOM      7 BR   UNL d   1      53.689  34.720  51.702  0.00  0.00    -0.049 Br
ENDROOT
BRANCH   1   8
ATOM      8  C   UNL d   1      52.977  32.706  53.610  0.00  0.00     0.083 C 
BRANCH   8   9
ATOM      9  N   UNL d   1      53.247  32.849  54.377  0.00  0.00    -0.239 NA
BRANCH   9  10
ATOM     10  C   UNL d   1      54.028  32.738  54.588  0.00  0.00     0.163 C 
BRANCH  10  11
ATOM     11  C   UNL d   1      54.309  33.038  55.302  0.00  0.00     0.317 C 
ATOM     12  O   UNL d   1      54.023  32.726  55.995  0.00  0.00    -0.262 OA
ATOM     13  N   UNL d   1      54.868  33.644  55.302  0.00  0.00    -0.083 NA
ATOM     14  N   UNL d   1      55.132  33.927  56.030  0.00  0.00    -0.019 N 
ENDBRANCH  10  11
ENDBRANCH   9  10
ENDBRANCH   8   9
BRANCH   8  15
ATOM     15  C   UNL d   1      52.921  31.964  53.312  0.00  0.00     0.018 A 
ATOM     16  C   UNL d   1      53.488  31.701  52.775  0.00  0.00     0.002 A 
ATOM     17  C   UNL d   1      53.429  30.937  52.470  0.00  0.00     0.000 A 
ATOM     18  C   UNL d   1      52.828  30.432  52.683  0.00  0.00     0.000 A 
ATOM     19  C   UNL d   1      52.244  30.695  53.232  0.00  0.00     0.000 A 
ATOM     20  C   UNL d   1      52.301  31.470  53.543  0.00  0.00     0.002 A 
ENDBRANCH   8  15
ENDBRANCH   1   8
BRANCH   2  21
ATOM     21  N   UNL d   1      51.434  33.361  53.665  0.00  0.00    -0.208 NA
ATOM     22  C   UNL d   1      50.648  33.588  53.585  0.00  0.00     0.281 C 
ATOM     23  O   UNL d   1      50.087  33.239  54.083  0.00  0.00    -0.265 OA
BRANCH  22  24
ATOM     24  C   UNL d   1      50.411  34.149  53.027  0.00  0.00     0.082 C 
BRANCH  24  25
ATOM     25  C   UNL d   1      49.741  34.592  53.150  0.00  0.00     0.085 C 
BRANCH  25  26
ATOM     26  N   UNL d   1      49.268  34.777  52.519  0.00  0.00    -0.299 N 
ATOM     27  C   UNL d   1      48.730  35.401  52.579  0.00  0.00     0.107 A 
ATOM     28  C   UNL d   1      48.245  35.596  51.941  0.00  0.00     0.142 A 
ATOM     29  O   UNL d   1      48.305  35.158  51.239  0.00  0.00    -0.300 OA
ATOM     30  C   UNL d   1      48.837  34.543  51.183  0.00  0.00     0.142 A 
ATOM     31  C   UNL d   1      49.319  34.351  51.822  0.00  0.00     0.107 A 
ENDBRANCH  25  26
ENDBRANCH  24  25
ENDBRANCH  22  24
ENDBRANCH   2  21
TORSDOF 9
ENDMDL
