MODEL 1
REMARK VINA RESULT:      21.2      0.000      0.000
REMARK  4 active torsions:
REMARK  status: ('A' for Active; 'I' for Inactive)
REMARK    1  A    between atoms: C_2  and  C_1 
REMARK    2  A    between atoms: C_4  and  C_3 
REMARK       I    between atoms: N_6  and  C_4 
REMARK    3  A    between atoms: C_5  and  C_10 
REMARK       I    between atoms: N_9  and  C_5 
REMARK    4  A    between atoms: C_10  and  N_6 
ROOT
ATOM      1  C   UNL d   1     -50.298  26.852  33.608  0.00  0.00     0.076 A 
ATOM      2  C   UNL d   1     -50.688  26.142  33.421  0.00  0.00     0.062 A 
ATOM      3  C   UNL d   1     -50.725  27.547  33.677  0.00  0.00     0.004 A 
ATOM      4  C   UNL d   1     -51.511  26.147  33.306  0.00  0.00     0.005 A 
ATOM      5  C   UNL d   1     -51.939  26.862  33.379  0.00  0.00     0.000 A 
ATOM      6  C   UNL d   1     -51.538  27.552  33.563  0.00  0.00    -0.000 A 
ENDROOT
BRANCH   2   7
ATOM      7  C   UNL d   1     -50.265  25.438  33.349  0.00  0.00     0.279 C 
ATOM      8  N   UNL d   1     -50.667  24.717  33.319  0.00  0.00    -0.201 NA
ATOM      9  O   UNL d   1     -49.440  25.462  33.308  0.00  0.00    -0.265 OA
BRANCH   8  10
ATOM     10  C   UNL d   1     -51.492  24.698  33.361  0.00  0.00     0.166 C 
BRANCH  10  11
ATOM     11  C   UNL d   1     -51.881  23.985  33.491  0.00  0.00     0.318 C 
ATOM     12  O   UNL d   1     -51.463  23.342  33.785  0.00  0.00    -0.262 OA
ATOM     13  N   UNL d   1     -52.689  23.919  33.327  0.00  0.00    -0.083 NA
ATOM     14  N   UNL d   1     -53.077  23.205  33.458  0.00  0.00    -0.019 N 
ENDBRANCH  10  11
ENDBRANCH   8  10
ENDBRANCH   2   7
BRANCH   1  15
ATOM     15  C   UNL d   1     -49.475  26.847  33.723  0.00  0.00     0.419 C 
ATOM     16  F   UNL d   1     -48.724  26.843  33.828  0.00  0.00    -0.166 F 
ATOM     17  F   UNL d   1     -48.886  27.414  33.431  0.00  0.00    -0.166 F 
ATOM     18  F   UNL d   1     -48.994  26.291  34.153  0.00  0.00    -0.166 F 
ENDBRANCH   1  15
TORSDOF 4
ENDMDL
