MODEL 1
REMARK VINA RESULT:      -9.0      0.000      0.000
REMARK  1 active torsions:
REMARK  status: ('A' for Active; 'I' for Inactive)
REMARK    1  A    between atoms: C_9  and  C_4 
ROOT
ATOM      1  S   UNL d   1     -48.017  12.899  23.111  0.00  0.00    -0.085 SA
ATOM      2  N   UNL d   1     -46.214  13.083  23.173  0.00  0.00    -0.207 NA
ATOM      3  C   UNL d   1     -46.423  13.832  22.945  0.00  0.00     0.280 A 
ATOM      4  C   UNL d   1     -47.943  13.676  22.893  0.00  0.00     0.034 A 
ATOM      5  C   UNL d   1     -47.221  14.110  22.815  0.00  0.00     0.069 A 
ATOM      6  C   UNL d   1     -47.494  12.471  23.267  0.00  0.00     0.047 A 
ATOM      7  C   UNL d   1     -46.673  12.544  23.298  0.00  0.00     0.091 A 
ATOM      8  O   UNL d   1     -45.813  14.372  22.829  0.00  0.00    -0.265 OA
ATOM      9  C   UNL d   1     -47.852  11.753  23.450  0.00  0.00     0.008 A 
ATOM     10  C   UNL d   1     -46.210  11.899  23.512  0.00  0.00     0.020 A 
ATOM     11  C   UNL d   1     -46.566  11.172  23.698  0.00  0.00     0.002 A 
ATOM     12  C   UNL d   1     -47.387  11.099  23.667  0.00  0.00     0.001 A 
ENDROOT
BRANCH   4  13
ATOM     13  C   UNL d   1     -48.647  14.083  22.732  0.00  0.00     0.006 A 
ATOM     14  C   UNL d   1     -49.015  14.001  22.005  0.00  0.00     0.001 A 
ATOM     15  C   UNL d   1     -49.711  14.402  21.845  0.00  0.00     0.000 A 
ATOM     16  C   UNL d   1     -50.042  14.892  22.419  0.00  0.00     0.000 A 
ATOM     17  C   UNL d   1     -49.670  14.978  23.160  0.00  0.00     0.000 A 
ATOM     18  C   UNL d   1     -48.971  14.572  23.315  0.00  0.00     0.001 A 
ENDBRANCH   4  13
TORSDOF 1
ENDMDL
MODEL 2
REMARK VINA RESULT:      -8.7      1.616      2.327
REMARK  1 active torsions:
REMARK  status: ('A' for Active; 'I' for Inactive)
REMARK    1  A    between atoms: C_9  and  C_4 
ROOT
ATOM      1  S   UNL d   1     -48.216  13.261  22.903  0.00  0.00    -0.085 SA
ATOM      2  N   UNL d   1     -46.795  12.209  23.308  0.00  0.00    -0.207 NA
ATOM      3  C   UNL d   1     -47.398  11.682  23.429  0.00  0.00     0.280 A 
ATOM      4  C   UNL d   1     -48.596  12.569  23.087  0.00  0.00     0.034 A 
ATOM      5  C   UNL d   1     -48.231  11.844  23.328  0.00  0.00     0.069 A 
ATOM      6  C   UNL d   1     -47.530  13.362  22.916  0.00  0.00     0.047 A 
ATOM      7  C   UNL d   1     -46.877  12.892  23.098  0.00  0.00     0.091 A 
ATOM      8  O   UNL d   1     -47.189  10.923  23.670  0.00  0.00    -0.265 OA
ATOM      9  C   UNL d   1     -47.424  14.146  22.687  0.00  0.00     0.008 A 
ATOM     10  C   UNL d   1     -46.118  13.206  23.052  0.00  0.00     0.020 A 
ATOM     11  C   UNL d   1     -46.006  13.996  22.822  0.00  0.00     0.002 A 
ATOM     12  C   UNL d   1     -46.659  14.466  22.639  0.00  0.00     0.001 A 
ENDROOT
BRANCH   4  13
ATOM     13  C   UNL d   1     -49.423  12.576  23.033  0.00  0.00     0.006 A 
ATOM     14  C   UNL d   1     -49.880  12.717  23.698  0.00  0.00     0.001 A 
ATOM     15  C   UNL d   1     -50.697  12.724  23.646  0.00  0.00     0.000 A 
ATOM     16  C   UNL d   1     -51.062  12.588  22.919  0.00  0.00     0.000 A 
ATOM     17  C   UNL d   1     -50.599  12.444  22.240  0.00  0.00     0.000 A 
ATOM     18  C   UNL d   1     -49.778  12.438  22.299  0.00  0.00     0.001 A 
ENDBRANCH   4  13
TORSDOF 1
ENDMDL
MODEL 3
REMARK VINA RESULT:      -8.6      1.810      3.355
REMARK  1 active torsions:
REMARK  status: ('A' for Active; 'I' for Inactive)
REMARK    1  A    between atoms: C_9  and  C_4 
ROOT
ATOM      1  S   UNL d   1     -48.482  13.161  22.192  0.00  0.00    -0.085 SA
ATOM      2  N   UNL d   1     -49.392  11.751  22.878  0.00  0.00    -0.207 NA
ATOM      3  C   UNL d   1     -48.665  11.622  23.211  0.00  0.00     0.280 A 
ATOM      4  C   UNL d   1     -47.897  12.811  22.631  0.00  0.00     0.034 A 
ATOM      5  C   UNL d   1     -47.971  12.110  23.099  0.00  0.00     0.069 A 
ATOM      6  C   UNL d   1     -49.135  12.935  22.134  0.00  0.00     0.047 A 
ATOM      7  C   UNL d   1     -49.558  12.297  22.441  0.00  0.00     0.091 A 
ATOM      8  O   UNL d   1     -48.587  10.964  23.698  0.00  0.00    -0.265 OA
ATOM      9  C   UNL d   1     -49.504  13.474  21.633  0.00  0.00     0.008 A 
ATOM     10  C   UNL d   1     -50.351  12.198  22.247  0.00  0.00     0.020 A 
ATOM     11  C   UNL d   1     -50.729  12.738  21.742  0.00  0.00     0.002 A 
ATOM     12  C   UNL d   1     -50.306  13.376  21.435  0.00  0.00     0.001 A 
ENDROOT
BRANCH   4  13
ATOM     13  C   UNL d   1     -47.155  13.180  22.619  0.00  0.00     0.006 A 
ATOM     14  C   UNL d   1     -47.022  13.857  23.059  0.00  0.00     0.001 A 
ATOM     15  C   UNL d   1     -46.289  14.222  23.048  0.00  0.00     0.000 A 
ATOM     16  C   UNL d   1     -45.681  13.905  22.590  0.00  0.00     0.000 A 
ATOM     17  C   UNL d   1     -45.813  13.216  22.140  0.00  0.00     0.000 A 
ATOM     18  C   UNL d   1     -46.552  12.853  22.156  0.00  0.00     0.001 A 
ENDBRANCH   4  13
TORSDOF 1
ENDMDL
MODEL 4
REMARK VINA RESULT:      -8.6      1.680      3.695
REMARK  1 active torsions:
REMARK  status: ('A' for Active; 'I' for Inactive)
REMARK    1  A    between atoms: C_9  and  C_4 
ROOT
ATOM      1  S   UNL d   1     -48.631  14.139  22.883  0.00  0.00    -0.085 SA
ATOM      2  N   UNL d   1     -50.074  13.721  21.867  0.00  0.00    -0.207 NA
ATOM      3  C   UNL d   1     -49.579  13.114  21.662  0.00  0.00     0.280 A 
ATOM      4  C   UNL d   1     -48.362  13.466  22.518  0.00  0.00     0.034 A 
ATOM      5  C   UNL d   1     -48.786  12.993  21.960  0.00  0.00     0.069 A 
ATOM      6  C   UNL d   1     -49.255  14.427  22.791  0.00  0.00     0.047 A 
ATOM      7  C   UNL d   1     -49.917  14.246  22.333  0.00  0.00     0.091 A 
ATOM      8  O   UNL d   1     -49.863  12.566  21.118  0.00  0.00    -0.265 OA
ATOM      9  C   UNL d   1     -49.259  15.090  23.278  0.00  0.00     0.008 A 
ATOM     10  C   UNL d   1     -50.583  14.728  22.362  0.00  0.00     0.020 A 
ATOM     11  C   UNL d   1     -50.592  15.398  22.853  0.00  0.00     0.002 A 
ATOM     12  C   UNL d   1     -49.930  15.579  23.311  0.00  0.00     0.001 A 
ENDROOT
BRANCH   4  13
ATOM     13  C   UNL d   1     -47.594  13.222  22.714  0.00  0.00     0.006 A 
ATOM     14  C   UNL d   1     -46.946  13.555  22.340  0.00  0.00     0.001 A 
ATOM     15  C   UNL d   1     -46.188  13.314  22.532  0.00  0.00     0.000 A 
ATOM     16  C   UNL d   1     -46.076  12.733  23.107  0.00  0.00     0.000 A 
ATOM     17  C   UNL d   1     -46.733  12.393  23.490  0.00  0.00     0.000 A 
ATOM     18  C   UNL d   1     -47.494  12.639  23.292  0.00  0.00     0.001 A 
ENDBRANCH   4  13
TORSDOF 1
ENDMDL
MODEL 5
REMARK VINA RESULT:      -7.5      1.571      2.086
REMARK  1 active torsions:
REMARK  status: ('A' for Active; 'I' for Inactive)
REMARK    1  A    between atoms: C_9  and  C_4 
ROOT
ATOM      1  S   UNL d   1     -48.151  12.961  22.947  0.00  0.00    -0.085 SA
ATOM      2  N   UNL d   1     -47.436  14.597  22.630  0.00  0.00    -0.207 NA
ATOM      3  C   UNL d   1     -48.224  14.777  22.579  0.00  0.00     0.280 A 
ATOM      4  C   UNL d   1     -48.827  13.398  22.845  0.00  0.00     0.034 A 
ATOM      5  C   UNL d   1     -48.870  14.226  22.677  0.00  0.00     0.069 A 
ATOM      6  C   UNL d   1     -47.503  13.204  22.910  0.00  0.00     0.047 A 
ATOM      7  C   UNL d   1     -47.167  13.944  22.767  0.00  0.00     0.091 A 
ATOM      8  O   UNL d   1     -48.420  15.560  22.417  0.00  0.00    -0.265 OA
ATOM      9  C   UNL d   1     -47.021  12.552  23.051  0.00  0.00     0.008 A 
ATOM     10  C   UNL d   1     -46.349  14.032  22.766  0.00  0.00     0.020 A 
ATOM     11  C   UNL d   1     -45.858  13.378  22.907  0.00  0.00     0.002 A 
ATOM     12  C   UNL d   1     -46.194  12.638  23.050  0.00  0.00     0.001 A 
ENDROOT
BRANCH   4  13
ATOM     13  C   UNL d   1     -49.544  12.989  22.914  0.00  0.00     0.006 A 
ATOM     14  C   UNL d   1     -49.943  12.969  23.629  0.00  0.00     0.001 A 
ATOM     15  C   UNL d   1     -50.652  12.565  23.698  0.00  0.00     0.000 A 
ATOM     16  C   UNL d   1     -50.966  12.176  23.043  0.00  0.00     0.000 A 
ATOM     17  C   UNL d   1     -50.563  12.194  22.313  0.00  0.00     0.000 A 
ATOM     18  C   UNL d   1     -49.851  12.601  22.250  0.00  0.00     0.001 A 
ENDBRANCH   4  13
TORSDOF 1
ENDMDL
MODEL 6
REMARK VINA RESULT:      -6.1      1.435      2.118
REMARK  1 active torsions:
REMARK  status: ('A' for Active; 'I' for Inactive)
REMARK    1  A    between atoms: C_9  and  C_4 
ROOT
ATOM      1  S   UNL d   1     -48.310  13.459  22.635  0.00  0.00    -0.085 SA
ATOM      2  N   UNL d   1     -47.678  11.951  23.420  0.00  0.00    -0.207 NA
ATOM      3  C   UNL d   1     -48.468  11.773  23.393  0.00  0.00     0.280 A 
ATOM      4  C   UNL d   1     -49.001  13.045  22.731  0.00  0.00     0.034 A 
ATOM      5  C   UNL d   1     -49.082  12.277  23.075  0.00  0.00     0.069 A 
ATOM      6  C   UNL d   1     -47.679  13.242  22.823  0.00  0.00     0.047 A 
ATOM      7  C   UNL d   1     -47.381  12.560  23.179  0.00  0.00     0.091 A 
ATOM      8  O   UNL d   1     -48.699  11.045  23.698  0.00  0.00    -0.265 OA
ATOM      9  C   UNL d   1     -47.170  13.853  22.610  0.00  0.00     0.008 A 
ATOM     10  C   UNL d   1     -46.574  12.489  23.323  0.00  0.00     0.020 A 
ATOM     11  C   UNL d   1     -46.057  13.103  23.111  0.00  0.00     0.002 A 
ATOM     12  C   UNL d   1     -46.354  13.785  22.754  0.00  0.00     0.001 A 
ENDROOT
BRANCH   4  13
ATOM     13  C   UNL d   1     -49.693  13.415  22.464  0.00  0.00     0.006 A 
ATOM     14  C   UNL d   1     -50.067  13.976  22.929  0.00  0.00     0.001 A 
ATOM     15  C   UNL d   1     -50.751  14.342  22.666  0.00  0.00     0.000 A 
ATOM     16  C   UNL d   1     -51.065  14.144  21.930  0.00  0.00     0.000 A 
ATOM     17  C   UNL d   1     -50.686  13.573  21.455  0.00  0.00     0.000 A 
ATOM     18  C   UNL d   1     -49.999  13.208  21.724  0.00  0.00     0.001 A 
ENDBRANCH   4  13
TORSDOF 1
ENDMDL
