MODEL 1
REMARK VINA RESULT:      -5.9      0.000      0.000
REMARK  8 active torsions:
REMARK  status: ('A' for Active; 'I' for Inactive)
REMARK    1  A    between atoms: C_7  and  N_1 
REMARK    2  A    between atoms: C_2  and  C_5 
REMARK    3  A    between atoms: C_9  and  C_4 
REMARK       I    between atoms: N_20  and  C_9 
REMARK    4  A    between atoms: O_25  and  C_14 
REMARK    5  A    between atoms: O_26  and  C_16 
REMARK    6  A    between atoms: C_27  and  N_20 
REMARK    7  A    between atoms: C_23  and  C_28 
REMARK    8  A    between atoms: C_28  and  C_27 
ROOT
ATOM      1  C   UNL d   1     -45.539  13.194  22.352  0.00  0.00     0.101 A 
ATOM      2  O   UNL d   1     -44.921  13.436  21.862  0.00  0.00    -0.302 OA
ATOM      3  C   UNL d   1     -44.321  12.878  21.925  0.00  0.00     0.158 A 
ATOM      4  C   UNL d   1     -45.329  12.493  22.716  0.00  0.00     0.027 A 
ATOM      5  C   UNL d   1     -44.565  12.290  22.451  0.00  0.00     0.032 A 
ENDROOT
BRANCH   3   6
ATOM      6  C   UNL d   1     -43.596  12.896  21.530  0.00  0.00     0.302 C 
ATOM      7  O   UNL d   1     -43.333  12.239  21.114  0.00  0.00    -0.263 OA
ATOM      8  N   UNL d   1     -43.136  13.580  21.556  0.00  0.00    -0.205 NA
BRANCH   8   9
ATOM      9  C   UNL d   1     -42.409  13.599  21.161  0.00  0.00     0.102 C 
BRANCH   9  10
ATOM     10  C   UNL d   1     -41.999  14.309  21.080  0.00  0.00     0.021 C 
BRANCH  10  11
ATOM     11  C   UNL d   1     -41.218  14.308  20.838  0.00  0.00     0.004 A 
ATOM     12  C   UNL d   1     -41.041  14.385  20.040  0.00  0.00     0.026 A 
ATOM     13  C   UNL d   1     -40.253  14.384  19.795  0.00  0.00     0.116 A 
ATOM     14  C   UNL d   1     -39.646  14.305  20.352  0.00  0.00     0.116 A 
ATOM     15  C   UNL d   1     -39.828  14.228  21.150  0.00  0.00     0.026 A 
ATOM     16  C   UNL d   1     -40.616  14.229  21.394  0.00  0.00     0.002 A 
BRANCH  13  17
ATOM     17  O   UNL d   1     -40.068  14.462  18.991  0.00  0.00    -0.326 OA
ATOM     18  C   UNL d   1     -40.631  14.774  18.473  0.00  0.00     0.181 C 
ENDBRANCH  13  17
BRANCH  14  19
ATOM     19  O   UNL d   1     -38.861  14.304  20.107  0.00  0.00    -0.326 OA
ATOM     20  C   UNL d   1     -38.256  14.266  20.663  0.00  0.00     0.181 C 
ENDBRANCH  14  19
ENDBRANCH  10  11
ENDBRANCH   9  10
ENDBRANCH   8   9
ENDBRANCH   3   6
BRANCH   1  21
ATOM     21  C   UNL d   1     -46.251  13.600  22.451  0.00  0.00     0.034 A 
ATOM     22  C   UNL d   1     -46.268  14.339  22.825  0.00  0.00     0.004 A 
ATOM     23  C   UNL d   1     -46.986  14.734  22.918  0.00  0.00     0.024 A 
ATOM     24  C   UNL d   1     -47.681  14.398  22.642  0.00  0.00     0.128 A 
ATOM     25  C   UNL d   1     -47.664  13.659  22.269  0.00  0.00     0.035 A 
ATOM     26  C   UNL d   1     -46.951  13.259  22.172  0.00  0.00     0.061 A 
ATOM     27 CL   UNL d   1     -46.941  12.528  21.802  0.00  0.00    -0.082 Cl
BRANCH  24  28
ATOM     28  N   UNL d   1     -48.402  14.794  22.735  0.00  0.00    -0.114 N 
ATOM     29  O   UNL d   1     -48.613  15.402  22.221  0.00  0.00    -0.532 OA
ATOM     30  O   UNL d   1     -48.911  14.576  23.345  0.00  0.00    -0.532 OA
ENDBRANCH  24  28
ENDBRANCH   1  21
TORSDOF 8
ENDMDL
MODEL 2
REMARK VINA RESULT:      -5.8      1.871      6.789
REMARK  8 active torsions:
REMARK  status: ('A' for Active; 'I' for Inactive)
REMARK    1  A    between atoms: C_7  and  N_1 
REMARK    2  A    between atoms: C_2  and  C_5 
REMARK    3  A    between atoms: C_9  and  C_4 
REMARK       I    between atoms: N_20  and  C_9 
REMARK    4  A    between atoms: O_25  and  C_14 
REMARK    5  A    between atoms: O_26  and  C_16 
REMARK    6  A    between atoms: C_27  and  N_20 
REMARK    7  A    between atoms: C_23  and  C_28 
REMARK    8  A    between atoms: C_28  and  C_27 
ROOT
ATOM      1  C   UNL d   1     -41.700  13.935  21.044  0.00  0.00     0.101 A 
ATOM      2  O   UNL d   1     -42.235  13.694  21.624  0.00  0.00    -0.302 OA
ATOM      3  C   UNL d   1     -42.842  13.286  21.248  0.00  0.00     0.158 A 
ATOM      4  C   UNL d   1     -41.969  13.681  20.315  0.00  0.00     0.027 A 
ATOM      5  C   UNL d   1     -42.684  13.273  20.438  0.00  0.00     0.032 A 
ENDROOT
BRANCH   3   6
ATOM      6  C   UNL d   1     -43.498  12.945  21.615  0.00  0.00     0.302 C 
ATOM      7  O   UNL d   1     -43.487  12.152  21.829  0.00  0.00    -0.263 OA
ATOM      8  N   UNL d   1     -44.165  13.404  21.764  0.00  0.00    -0.205 NA
BRANCH   8   9
ATOM      9  C   UNL d   1     -44.824  13.062  22.132  0.00  0.00     0.102 C 
BRANCH   9  10
ATOM     10  C   UNL d   1     -45.428  13.539  22.426  0.00  0.00     0.021 C 
BRANCH  10  11
ATOM     11  C   UNL d   1     -46.133  13.204  22.671  0.00  0.00     0.004 A 
ATOM     12  C   UNL d   1     -46.834  13.622  22.579  0.00  0.00     0.026 A 
ATOM     13  C   UNL d   1     -47.545  13.284  22.826  0.00  0.00     0.116 A 
ATOM     14  C   UNL d   1     -47.551  12.529  23.165  0.00  0.00     0.116 A 
ATOM     15  C   UNL d   1     -46.846  12.114  23.256  0.00  0.00     0.026 A 
ATOM     16  C   UNL d   1     -46.135  12.453  23.008  0.00  0.00     0.002 A 
BRANCH  13  17
ATOM     17  O   UNL d   1     -48.256  13.701  22.735  0.00  0.00    -0.326 OA
ATOM     18  C   UNL d   1     -48.259  14.413  22.314  0.00  0.00     0.181 C 
ENDBRANCH  13  17
BRANCH  14  19
ATOM     19  O   UNL d   1     -48.260  12.194  23.410  0.00  0.00    -0.326 OA
ATOM     20  C   UNL d   1     -48.274  11.424  23.698  0.00  0.00     0.181 C 
ENDBRANCH  14  19
ENDBRANCH  10  11
ENDBRANCH   9  10
ENDBRANCH   8   9
ENDBRANCH   3   6
BRANCH   1  21
ATOM     21  C   UNL d   1     -41.009  14.363  21.186  0.00  0.00     0.034 A 
ATOM     22  C   UNL d   1     -40.324  13.983  21.454  0.00  0.00     0.004 A 
ATOM     23  C   UNL d   1     -39.639  14.423  21.593  0.00  0.00     0.024 A 
ATOM     24  C   UNL d   1     -39.636  15.233  21.465  0.00  0.00     0.128 A 
ATOM     25  C   UNL d   1     -40.322  15.612  21.197  0.00  0.00     0.035 A 
ATOM     26  C   UNL d   1     -41.007  15.180  21.057  0.00  0.00     0.061 A 
ATOM     27 CL   UNL d   1     -41.683  15.562  20.792  0.00  0.00    -0.082 Cl
BRANCH  24  28
ATOM     28  N   UNL d   1     -38.950  15.675  21.604  0.00  0.00    -0.114 N 
ATOM     29  O   UNL d   1     -38.452  15.878  20.981  0.00  0.00    -0.532 OA
ATOM     30  O   UNL d   1     -38.766  15.912  22.371  0.00  0.00    -0.532 OA
ENDBRANCH  24  28
ENDBRANCH   1  21
TORSDOF 8
ENDMDL
MODEL 3
REMARK VINA RESULT:      -5.3      1.879      6.734
REMARK  8 active torsions:
REMARK  status: ('A' for Active; 'I' for Inactive)
REMARK    1  A    between atoms: C_7  and  N_1 
REMARK    2  A    between atoms: C_2  and  C_5 
REMARK    3  A    between atoms: C_9  and  C_4 
REMARK       I    between atoms: N_20  and  C_9 
REMARK    4  A    between atoms: O_25  and  C_14 
REMARK    5  A    between atoms: O_26  and  C_16 
REMARK    6  A    between atoms: C_27  and  N_20 
REMARK    7  A    between atoms: C_23  and  C_28 
REMARK    8  A    between atoms: C_28  and  C_27 
ROOT
ATOM      1  C   UNL d   1     -41.623  13.927  20.730  0.00  0.00     0.101 A 
ATOM      2  O   UNL d   1     -42.415  13.713  20.648  0.00  0.00    -0.302 OA
ATOM      3  C   UNL d   1     -42.628  13.285  21.317  0.00  0.00     0.158 A 
ATOM      4  C   UNL d   1     -41.344  13.637  21.441  0.00  0.00     0.027 A 
ATOM      5  C   UNL d   1     -41.970  13.234  21.814  0.00  0.00     0.032 A 
ENDROOT
BRANCH   3   6
ATOM      6  C   UNL d   1     -43.371  12.961  21.471  0.00  0.00     0.302 C 
ATOM      7  O   UNL d   1     -43.517  12.168  21.316  0.00  0.00    -0.263 OA
ATOM      8  N   UNL d   1     -43.967  13.438  21.781  0.00  0.00    -0.205 NA
BRANCH   8   9
ATOM      9  C   UNL d   1     -44.713  13.113  21.935  0.00  0.00     0.102 C 
BRANCH   9  10
ATOM     10  C   UNL d   1     -45.319  13.587  22.232  0.00  0.00     0.021 C 
BRANCH  10  11
ATOM     11  C   UNL d   1     -45.985  13.244  22.561  0.00  0.00     0.004 A 
ATOM     12  C   UNL d   1     -46.729  13.501  22.327  0.00  0.00     0.026 A 
ATOM     13  C   UNL d   1     -47.402  13.156  22.658  0.00  0.00     0.116 A 
ATOM     14  C   UNL d   1     -47.325  12.555  23.222  0.00  0.00     0.116 A 
ATOM     15  C   UNL d   1     -46.577  12.301  23.453  0.00  0.00     0.026 A 
ATOM     16  C   UNL d   1     -45.906  12.647  23.121  0.00  0.00     0.002 A 
BRANCH  13  17
ATOM     17  O   UNL d   1     -48.156  13.411  22.427  0.00  0.00    -0.326 OA
ATOM     18  C   UNL d   1     -48.229  13.949  21.803  0.00  0.00     0.181 C 
ENDBRANCH  13  17
BRANCH  14  19
ATOM     19  O   UNL d   1     -47.996  12.212  23.551  0.00  0.00    -0.326 OA
ATOM     20  C   UNL d   1     -48.039  11.396  23.641  0.00  0.00     0.181 C 
ENDBRANCH  14  19
ENDBRANCH  10  11
ENDBRANCH   9  10
ENDBRANCH   8   9
ENDBRANCH   3   6
BRANCH   1  21
ATOM     21  C   UNL d   1     -41.191  14.363  20.179  0.00  0.00     0.034 A 
ATOM     22  C   UNL d   1     -40.911  14.008  19.485  0.00  0.00     0.004 A 
ATOM     23  C   UNL d   1     -40.480  14.455  18.941  0.00  0.00     0.024 A 
ATOM     24  C   UNL d   1     -40.329  15.248  19.087  0.00  0.00     0.128 A 
ATOM     25  C   UNL d   1     -40.609  15.602  19.781  0.00  0.00     0.035 A 
ATOM     26  C   UNL d   1     -41.039  15.163  20.327  0.00  0.00     0.061 A 
ATOM     27 CL   UNL d   1     -41.314  15.520  21.012  0.00  0.00    -0.082 Cl
BRANCH  24  28
ATOM     28  N   UNL d   1     -39.897  15.698  18.542  0.00  0.00    -0.114 N 
ATOM     29  O   UNL d   1     -40.235  15.922  17.825  0.00  0.00    -0.532 OA
ATOM     30  O   UNL d   1     -39.124  15.922  18.720  0.00  0.00    -0.532 OA
ENDBRANCH  24  28
ENDBRANCH   1  21
TORSDOF 8
ENDMDL
MODEL 4
REMARK VINA RESULT:      -5.2      1.603      2.085
REMARK  8 active torsions:
REMARK  status: ('A' for Active; 'I' for Inactive)
REMARK    1  A    between atoms: C_7  and  N_1 
REMARK    2  A    between atoms: C_2  and  C_5 
REMARK    3  A    between atoms: C_9  and  C_4 
REMARK       I    between atoms: N_20  and  C_9 
REMARK    4  A    between atoms: O_25  and  C_14 
REMARK    5  A    between atoms: O_26  and  C_16 
REMARK    6  A    between atoms: C_27  and  N_20 
REMARK    7  A    between atoms: C_23  and  C_28 
REMARK    8  A    between atoms: C_28  and  C_27 
ROOT
ATOM      1  C   UNL d   1     -46.772  12.910  22.725  0.00  0.00     0.101 A 
ATOM      2  O   UNL d   1     -46.111  12.451  22.546  0.00  0.00    -0.302 OA
ATOM      3  C   UNL d   1     -45.472  12.960  22.454  0.00  0.00     0.158 A 
ATOM      4  C   UNL d   1     -46.550  13.696  22.744  0.00  0.00     0.027 A 
ATOM      5  C   UNL d   1     -45.736  13.733  22.575  0.00  0.00     0.032 A 
ENDROOT
BRANCH   3   6
ATOM      6  C   UNL d   1     -44.697  12.740  22.272  0.00  0.00     0.302 C 
ATOM      7  O   UNL d   1     -44.377  12.052  22.586  0.00  0.00    -0.263 OA
ATOM      8  N   UNL d   1     -44.246  13.215  21.772  0.00  0.00    -0.205 NA
BRANCH   8   9
ATOM      9  C   UNL d   1     -43.469  12.995  21.589  0.00  0.00     0.102 C 
BRANCH   9  10
ATOM     10  C   UNL d   1     -43.066  13.369  20.975  0.00  0.00     0.021 C 
BRANCH  10  11
ATOM     11  C   UNL d   1     -42.286  13.597  21.074  0.00  0.00     0.004 A 
ATOM     12  C   UNL d   1     -42.059  14.360  20.873  0.00  0.00     0.026 A 
ATOM     13  C   UNL d   1     -41.273  14.590  20.972  0.00  0.00     0.116 A 
ATOM     14  C   UNL d   1     -40.719  14.055  21.272  0.00  0.00     0.116 A 
ATOM     15  C   UNL d   1     -40.951  13.291  21.472  0.00  0.00     0.026 A 
ATOM     16  C   UNL d   1     -41.737  13.062  21.372  0.00  0.00     0.002 A 
BRANCH  13  17
ATOM     17  O   UNL d   1     -41.038  15.359  20.772  0.00  0.00    -0.326 OA
ATOM     18  C   UNL d   1     -41.611  15.922  20.576  0.00  0.00     0.181 C 
ENDBRANCH  13  17
BRANCH  14  19
ATOM     19  O   UNL d   1     -39.936  14.286  21.371  0.00  0.00    -0.326 OA
ATOM     20  C   UNL d   1     -39.473  13.936  21.954  0.00  0.00     0.181 C 
ENDBRANCH  14  19
ENDBRANCH  10  11
ENDBRANCH   9  10
ENDBRANCH   8   9
ENDBRANCH   3   6
BRANCH   1  21
ATOM     21  C   UNL d   1     -47.530  12.614  22.860  0.00  0.00     0.034 A 
ATOM     22  C   UNL d   1     -47.713  12.225  23.568  0.00  0.00     0.004 A 
ATOM     23  C   UNL d   1     -48.475  11.934  23.691  0.00  0.00     0.024 A 
ATOM     24  C   UNL d   1     -49.051  12.030  23.115  0.00  0.00     0.128 A 
ATOM     25  C   UNL d   1     -48.869  12.419  22.408  0.00  0.00     0.035 A 
ATOM     26  C   UNL d   1     -48.111  12.712  22.278  0.00  0.00     0.061 A 
ATOM     27 CL   UNL d   1     -47.936  13.096  21.575  0.00  0.00    -0.082 Cl
BRANCH  24  28
ATOM     28  N   UNL d   1     -49.816  11.739  23.237  0.00  0.00    -0.114 N 
ATOM     29  O   UNL d   1     -49.936  11.052  23.675  0.00  0.00    -0.532 OA
ATOM     30  O   UNL d   1     -50.461  12.140  22.918  0.00  0.00    -0.532 OA
ENDBRANCH  24  28
ENDBRANCH   1  21
TORSDOF 8
ENDMDL
MODEL 5
REMARK VINA RESULT:      -5.1      1.857      6.820
REMARK  8 active torsions:
REMARK  status: ('A' for Active; 'I' for Inactive)
REMARK    1  A    between atoms: C_7  and  N_1 
REMARK    2  A    between atoms: C_2  and  C_5 
REMARK    3  A    between atoms: C_9  and  C_4 
REMARK       I    between atoms: N_20  and  C_9 
REMARK    4  A    between atoms: O_25  and  C_14 
REMARK    5  A    between atoms: O_26  and  C_16 
REMARK    6  A    between atoms: C_27  and  N_20 
REMARK    7  A    between atoms: C_23  and  C_28 
REMARK    8  A    between atoms: C_28  and  C_27 
ROOT
ATOM      1  C   UNL d   1     -41.818  13.776  21.096  0.00  0.00     0.101 A 
ATOM      2  O   UNL d   1     -42.365  13.621  21.693  0.00  0.00    -0.302 OA
ATOM      3  C   UNL d   1     -42.967  13.164  21.368  0.00  0.00     0.158 A 
ATOM      4  C   UNL d   1     -42.074  13.423  20.405  0.00  0.00     0.027 A 
ATOM      5  C   UNL d   1     -42.794  13.037  20.570  0.00  0.00     0.032 A 
ENDROOT
BRANCH   3   6
ATOM      6  C   UNL d   1     -43.631  12.880  21.766  0.00  0.00     0.302 C 
ATOM      7  O   UNL d   1     -43.597  12.168  22.173  0.00  0.00    -0.263 OA
ATOM      8  N   UNL d   1     -44.331  13.315  21.752  0.00  0.00    -0.205 NA
BRANCH   8   9
ATOM      9  C   UNL d   1     -44.998  13.030  22.151  0.00  0.00     0.102 C 
BRANCH   9  10
ATOM     10  C   UNL d   1     -45.482  13.547  22.572  0.00  0.00     0.021 C 
BRANCH  10  11
ATOM     11  C   UNL d   1     -46.272  13.369  22.688  0.00  0.00     0.004 A 
ATOM     12  C   UNL d   1     -46.477  12.688  23.099  0.00  0.00     0.026 A 
ATOM     13  C   UNL d   1     -47.274  12.507  23.216  0.00  0.00     0.116 A 
ATOM     14  C   UNL d   1     -47.861  13.010  22.920  0.00  0.00     0.116 A 
ATOM     15  C   UNL d   1     -47.651  13.690  22.509  0.00  0.00     0.026 A 
ATOM     16  C   UNL d   1     -46.854  13.870  22.392  0.00  0.00     0.002 A 
BRANCH  13  17
ATOM     17  O   UNL d   1     -47.488  11.822  23.630  0.00  0.00    -0.326 OA
ATOM     18  C   UNL d   1     -46.979  11.170  23.628  0.00  0.00     0.181 C 
ENDBRANCH  13  17
BRANCH  14  19
ATOM     19  O   UNL d   1     -48.654  12.828  23.037  0.00  0.00    -0.326 OA
ATOM     20  C   UNL d   1     -49.239  13.314  22.722  0.00  0.00     0.181 C 
ENDBRANCH  14  19
ENDBRANCH  10  11
ENDBRANCH   9  10
ENDBRANCH   8   9
ENDBRANCH   3   6
BRANCH   1  21
ATOM     21  C   UNL d   1     -41.128  14.219  21.190  0.00  0.00     0.034 A 
ATOM     22  C   UNL d   1     -40.437  13.868  21.481  0.00  0.00     0.004 A 
ATOM     23  C   UNL d   1     -39.754  14.321  21.570  0.00  0.00     0.024 A 
ATOM     24  C   UNL d   1     -39.757  15.117  21.371  0.00  0.00     0.128 A 
ATOM     25  C   UNL d   1     -40.449  15.467  21.080  0.00  0.00     0.035 A 
ATOM     26  C   UNL d   1     -41.133  15.021  20.988  0.00  0.00     0.061 A 
ATOM     27 CL   UNL d   1     -41.815  15.375  20.699  0.00  0.00    -0.082 Cl
BRANCH  24  28
ATOM     28  N   UNL d   1     -39.073  15.573  21.460  0.00  0.00    -0.114 N 
ATOM     29  O   UNL d   1     -38.558  15.680  20.827  0.00  0.00    -0.532 OA
ATOM     30  O   UNL d   1     -38.906  15.921  22.188  0.00  0.00    -0.532 OA
ENDBRANCH  24  28
ENDBRANCH   1  21
TORSDOF 8
ENDMDL
MODEL 6
REMARK VINA RESULT:      -5.0      2.588      7.112
REMARK  8 active torsions:
REMARK  status: ('A' for Active; 'I' for Inactive)
REMARK    1  A    between atoms: C_7  and  N_1 
REMARK    2  A    between atoms: C_2  and  C_5 
REMARK    3  A    between atoms: C_9  and  C_4 
REMARK       I    between atoms: N_20  and  C_9 
REMARK    4  A    between atoms: O_25  and  C_14 
REMARK    5  A    between atoms: O_26  and  C_16 
REMARK    6  A    between atoms: C_27  and  N_20 
REMARK    7  A    between atoms: C_23  and  C_28 
REMARK    8  A    between atoms: C_28  and  C_27 
ROOT
ATOM      1  C   UNL d   1     -40.409  14.622  19.422  0.00  0.00     0.101 A 
ATOM      2  O   UNL d   1     -40.800  14.007  19.807  0.00  0.00    -0.302 OA
ATOM      3  C   UNL d   1     -41.115  14.309  20.504  0.00  0.00     0.158 A 
ATOM      4  C   UNL d   1     -40.478  15.301  19.870  0.00  0.00     0.027 A 
ATOM      5  C   UNL d   1     -40.920  15.111  20.550  0.00  0.00     0.032 A 
ENDROOT
BRANCH   3   6
ATOM      6  C   UNL d   1     -41.552  13.889  21.063  0.00  0.00     0.302 C 
ATOM      7  O   UNL d   1     -41.223  13.704  21.792  0.00  0.00    -0.263 OA
ATOM      8  N   UNL d   1     -42.322  13.655  20.886  0.00  0.00    -0.205 NA
BRANCH   8   9
ATOM      9  C   UNL d   1     -42.761  13.233  21.448  0.00  0.00     0.102 C 
BRANCH   9  10
ATOM     10  C   UNL d   1     -43.426  12.803  21.217  0.00  0.00     0.021 C 
BRANCH  10  11
ATOM     11  C   UNL d   1     -44.025  12.654  21.754  0.00  0.00     0.004 A 
ATOM     12  C   UNL d   1     -43.974  11.998  22.245  0.00  0.00     0.026 A 
ATOM     13  C   UNL d   1     -44.578  11.847  22.787  0.00  0.00     0.116 A 
ATOM     14  C   UNL d   1     -45.230  12.355  22.833  0.00  0.00     0.116 A 
ATOM     15  C   UNL d   1     -45.277  13.011  22.339  0.00  0.00     0.026 A 
ATOM     16  C   UNL d   1     -44.672  13.161  21.798  0.00  0.00     0.002 A 
BRANCH  13  17
ATOM     17  O   UNL d   1     -44.533  11.187  23.285  0.00  0.00    -0.326 OA
ATOM     18  C   UNL d   1     -43.863  10.703  23.259  0.00  0.00     0.181 C 
ENDBRANCH  13  17
BRANCH  14  19
ATOM     19  O   UNL d   1     -45.831  12.203  23.373  0.00  0.00    -0.326 OA
ATOM     20  C   UNL d   1     -46.554  12.590  23.304  0.00  0.00     0.181 C 
ENDBRANCH  14  19
ENDBRANCH  10  11
ENDBRANCH   9  10
ENDBRANCH   8   9
ENDBRANCH   3   6
BRANCH   1  21
ATOM     21  C   UNL d   1     -40.015  14.553  18.700  0.00  0.00     0.034 A 
ATOM     22  C   UNL d   1     -40.423  14.637  17.985  0.00  0.00     0.004 A 
ATOM     23  C   UNL d   1     -40.017  14.566  17.270  0.00  0.00     0.024 A 
ATOM     24  C   UNL d   1     -39.211  14.413  17.267  0.00  0.00     0.128 A 
ATOM     25  C   UNL d   1     -38.803  14.329  17.982  0.00  0.00     0.035 A 
ATOM     26  C   UNL d   1     -39.202  14.398  18.698  0.00  0.00     0.061 A 
ATOM     27 CL   UNL d   1     -38.791  14.314  19.403  0.00  0.00    -0.082 Cl
BRANCH  24  28
ATOM     28  N   UNL d   1     -38.803  14.341  16.551  0.00  0.00    -0.114 N 
ATOM     29  O   UNL d   1     -38.669  15.002  16.079  0.00  0.00    -0.532 OA
ATOM     30  O   UNL d   1     -38.529  13.602  16.309  0.00  0.00    -0.532 OA
ENDBRANCH  24  28
ENDBRANCH   1  21
TORSDOF 8
ENDMDL
MODEL 7
REMARK VINA RESULT:      -3.2      1.781      7.261
REMARK  8 active torsions:
REMARK  status: ('A' for Active; 'I' for Inactive)
REMARK    1  A    between atoms: C_7  and  N_1 
REMARK    2  A    between atoms: C_2  and  C_5 
REMARK    3  A    between atoms: C_9  and  C_4 
REMARK       I    between atoms: N_20  and  C_9 
REMARK    4  A    between atoms: O_25  and  C_14 
REMARK    5  A    between atoms: O_26  and  C_16 
REMARK    6  A    between atoms: C_27  and  N_20 
REMARK    7  A    between atoms: C_23  and  C_28 
REMARK    8  A    between atoms: C_28  and  C_27 
ROOT
ATOM      1  C   UNL d   1     -43.992  13.256  21.648  0.00  0.00     0.101 A 
ATOM      2  O   UNL d   1     -44.495  13.731  22.097  0.00  0.00    -0.302 OA
ATOM      3  C   UNL d   1     -45.205  13.326  22.187  0.00  0.00     0.158 A 
ATOM      4  C   UNL d   1     -44.381  12.563  21.459  0.00  0.00     0.027 A 
ATOM      5  C   UNL d   1     -45.143  12.602  21.795  0.00  0.00     0.032 A 
ENDROOT
BRANCH   3   6
ATOM      6  C   UNL d   1     -45.869  13.593  22.598  0.00  0.00     0.302 C 
ATOM      7  O   UNL d   1     -45.806  13.822  23.384  0.00  0.00    -0.263 OA
ATOM      8  N   UNL d   1     -46.598  13.630  22.215  0.00  0.00    -0.205 NA
BRANCH   8   9
ATOM      9  C   UNL d   1     -47.264  13.898  22.627  0.00  0.00     0.102 C 
BRANCH   9  10
ATOM     10  C   UNL d   1     -48.017  13.651  22.402  0.00  0.00     0.021 C 
BRANCH  10  11
ATOM     11  C   UNL d   1     -48.680  14.008  22.725  0.00  0.00     0.004 A 
ATOM     12  C   UNL d   1     -49.315  13.543  22.959  0.00  0.00     0.026 A 
ATOM     13  C   UNL d   1     -49.984  13.902  23.284  0.00  0.00     0.116 A 
ATOM     14  C   UNL d   1     -50.011  14.724  23.374  0.00  0.00     0.116 A 
ATOM     15  C   UNL d   1     -49.372  15.185  23.138  0.00  0.00     0.026 A 
ATOM     16  C   UNL d   1     -48.704  14.825  22.812  0.00  0.00     0.002 A 
BRANCH  13  17
ATOM     17  O   UNL d   1     -50.629  13.439  23.522  0.00  0.00    -0.326 OA
ATOM     18  C   UNL d   1     -50.576  12.615  23.479  0.00  0.00     0.181 C 
ENDBRANCH  13  17
BRANCH  14  19
ATOM     19  O   UNL d   1     -50.678  15.080  23.698  0.00  0.00    -0.326 OA
ATOM     20  C   UNL d   1     -50.843  15.869  23.536  0.00  0.00     0.181 C 
ENDBRANCH  14  19
ENDBRANCH  10  11
ENDBRANCH   9  10
ENDBRANCH   8   9
ENDBRANCH   3   6
BRANCH   1  21
ATOM     21  C   UNL d   1     -43.222  13.457  21.430  0.00  0.00     0.034 A 
ATOM     22  C   UNL d   1     -43.043  14.220  21.162  0.00  0.00     0.004 A 
ATOM     23  C   UNL d   1     -42.269  14.408  20.946  0.00  0.00     0.024 A 
ATOM     24  C   UNL d   1     -41.678  13.842  20.997  0.00  0.00     0.128 A 
ATOM     25  C   UNL d   1     -41.857  13.079  21.265  0.00  0.00     0.035 A 
ATOM     26  C   UNL d   1     -42.626  12.885  21.481  0.00  0.00     0.061 A 
ATOM     27 CL   UNL d   1     -42.797  12.128  21.746  0.00  0.00    -0.082 Cl
BRANCH  24  28
ATOM     28  N   UNL d   1     -40.901  14.029  20.782  0.00  0.00    -0.114 N 
ATOM     29  O   UNL d   1     -40.690  14.080  19.988  0.00  0.00    -0.532 OA
ATOM     30  O   UNL d   1     -40.337  14.165  21.366  0.00  0.00    -0.532 OA
ENDBRANCH  24  28
ENDBRANCH   1  21
TORSDOF 8
ENDMDL
