MODEL 1
REMARK VINA RESULT:      55.0      0.000      0.000
REMARK  6 active torsions:
REMARK  status: ('A' for Active; 'I' for Inactive)
REMARK    1  A    between atoms: N_5  and  C_1 
REMARK    2  A    between atoms: N_14  and  C_3 
REMARK    3  A    between atoms: N_9  and  C_20 
REMARK    4  A    between atoms: C_22  and  N_14 
REMARK    5  A    between atoms: C_20  and  C_21 
REMARK    6  A    between atoms: C_21  and  C_22 
ROOT
ATOM      1  C   UNL d   1      58.329  49.668  51.639  0.00  0.00     0.200 A 
ATOM      2  C   UNL d   1      57.513  49.684  51.785  0.00  0.00     0.288 A 
ATOM      3  C   UNL d   1      58.618  49.659  50.864  0.00  0.00     0.109 A 
ATOM      4  N   UNL d   1      56.982  49.691  51.156  0.00  0.00    -0.270 N 
ATOM      5  C   UNL d   1      58.078  49.666  50.237  0.00  0.00     0.036 A 
ATOM      6  C   UNL d   1      57.265  49.682  50.377  0.00  0.00     0.069 A 
ATOM      7  O   UNL d   1      57.233  49.692  52.558  0.00  0.00    -0.265 OA
ATOM      8  C   UNL d   1      56.169  49.707  51.297  0.00  0.00     0.102 C 
ATOM      9  C   UNL d   1      58.357  49.658  49.459  0.00  0.00     0.003 A 
ATOM     10  C   UNL d   1      56.731  49.690  49.750  0.00  0.00     0.018 A 
ATOM     11  C   UNL d   1      57.827  49.665  48.830  0.00  0.00     0.000 A 
ATOM     12  C   UNL d   1      57.011  49.681  48.976  0.00  0.00     0.002 A 
ENDROOT
BRANCH   3  13
ATOM     13  N   UNL d   1      59.429  49.643  50.719  0.00  0.00    -0.242 NA
BRANCH  13  14
ATOM     14  C   UNL d   1      59.795  48.940  50.497  0.00  0.00     0.101 C 
BRANCH  14  15
ATOM     15  C   UNL d   1      60.581  48.798  50.711  0.00  0.00     0.040 C 
BRANCH  15  16
ATOM     16  C   UNL d   1      60.822  48.037  50.912  0.00  0.00     0.083 C 
BRANCH  16  17
ATOM     17  N   UNL d   1      61.333  47.617  50.411  0.00  0.00    -0.285 N 
ATOM     18  C   UNL d   1      61.981  47.928  50.011  0.00  0.00     0.183 A 
ATOM     19  N   UNL d   1      62.326  47.316  49.581  0.00  0.00    -0.222 NA
ATOM     20  C   UNL d   1      61.890  46.632  49.718  0.00  0.00     0.120 A 
ATOM     21  C   UNL d   1      61.279  46.814  50.228  0.00  0.00     0.102 A 
ENDBRANCH  16  17
ENDBRANCH  15  16
ENDBRANCH  14  15
ENDBRANCH  13  14
ENDBRANCH   3  13
BRANCH   1  22
ATOM     22  N   UNL d   1      58.857  49.660  52.276  0.00  0.00    -0.107 N 
ATOM     23  O   UNL d   1      59.668  49.612  52.144  0.00  0.00    -0.531 OA
ATOM     24  O   UNL d   1      58.564  49.703  53.050  0.00  0.00    -0.531 OA
ENDBRANCH   1  22
TORSDOF 6
ENDMDL
