MODEL 1
REMARK VINA RESULT:      -2.6      0.000      0.000
REMARK  3 active torsions:
REMARK  status: ('A' for Active; 'I' for Inactive)
REMARK    1  A    between atoms: C_8  and  C_6 
REMARK    2  A    between atoms: C_9  and  C_8 
REMARK       I    between atoms: N_10  and  C_9 
REMARK    3  A    between atoms: C_13  and  N_10 
ROOT
ATOM      1  N   UNL d   1      30.075  15.788 -22.982  0.00  0.00    -0.207 NA
ATOM      2  N   UNL d   1      30.598  17.034 -23.976  0.00  0.00    -0.240 NA
ATOM      3  C   UNL d   1      30.805  16.145 -23.086  0.00  0.00     0.297 A 
ATOM      4  C   UNL d   1      29.358  15.956 -23.361  0.00  0.00     0.086 A 
ATOM      5  C   UNL d   1      29.815  17.014 -24.201  0.00  0.00     0.083 A 
ATOM      6  C   UNL d   1      30.971  16.563 -23.421  0.00  0.00     0.144 A 
ATOM      7  C   UNL d   1      29.202  16.528 -23.941  0.00  0.00     0.035 A 
ATOM      8  O   UNL d   1      31.400  15.836 -22.613  0.00  0.00    -0.264 OA
ATOM      9  C   UNL d   1      28.444  16.600 -24.245  0.00  0.00     0.003 A 
ATOM     10  C   UNL d   1      28.747  15.463 -23.093  0.00  0.00     0.019 A 
ATOM     11  C   UNL d   1      29.662  17.586 -24.781  0.00  0.00     0.019 A 
ATOM     12  C   UNL d   1      28.895  17.666 -25.094  0.00  0.00     0.002 A 
ATOM     13  C   UNL d   1      27.988  15.545 -23.407  0.00  0.00     0.002 A 
ATOM     14  C   UNL d   1      28.287  17.173 -24.826  0.00  0.00     0.000 A 
ATOM     15  C   UNL d   1      27.836  16.107 -23.976  0.00  0.00     0.000 A 
ENDROOT
BRANCH   6  16
ATOM     16  C   UNL d   1      31.774  16.736 -23.332  0.00  0.00     0.086 C 
BRANCH  16  17
ATOM     17  C   UNL d   1      32.312  16.486 -23.914  0.00  0.00     0.281 C 
ATOM     18  N   UNL d   1      32.940  16.971 -24.125  0.00  0.00    -0.208 NA
ATOM     19  O   UNL d   1      32.221  15.752 -24.280  0.00  0.00    -0.265 OA
BRANCH  18  20
ATOM     20  C   UNL d   1      33.038  17.704 -23.764  0.00  0.00     0.085 A 
ATOM     21  C   UNL d   1      33.031  18.395 -24.215  0.00  0.00     0.019 A 
ATOM     22  C   UNL d   1      33.129  19.121 -23.853  0.00  0.00     0.002 A 
ATOM     23  C   UNL d   1      33.122  19.803 -24.301  0.00  0.00     0.000 C 
ATOM     24  C   UNL d   1      33.234  19.169 -23.038  0.00  0.00     0.000 A 
ATOM     25  C   UNL d   1      33.241  18.475 -22.584  0.00  0.00     0.002 A 
ATOM     26  C   UNL d   1      33.142  17.744 -22.952  0.00  0.00     0.019 A 
ENDBRANCH  18  20
ENDBRANCH  16  17
ENDBRANCH   6  16
TORSDOF 3
ENDMDL
MODEL 2
REMARK VINA RESULT:      -0.6      2.286      4.953
REMARK  3 active torsions:
REMARK  status: ('A' for Active; 'I' for Inactive)
REMARK    1  A    between atoms: C_8  and  C_6 
REMARK    2  A    between atoms: C_9  and  C_8 
REMARK       I    between atoms: N_10  and  C_9 
REMARK    3  A    between atoms: C_13  and  N_10 
ROOT
ATOM      1  N   UNL d   1      33.017  19.555 -21.717  0.00  0.00    -0.207 NA
ATOM      2  N   UNL d   1      32.861  20.199 -23.257  0.00  0.00    -0.240 NA
ATOM      3  C   UNL d   1      32.916  19.212 -22.453  0.00  0.00     0.297 A 
ATOM      4  C   UNL d   1      33.073  20.359 -21.523  0.00  0.00     0.086 A 
ATOM      5  C   UNL d   1      32.939  20.894 -22.838  0.00  0.00     0.083 A 
ATOM      6  C   UNL d   1      32.865  19.435 -22.965  0.00  0.00     0.144 A 
ATOM      7  C   UNL d   1      33.040  21.015 -22.030  0.00  0.00     0.035 A 
ATOM      8  O   UNL d   1      32.885  18.392 -22.438  0.00  0.00    -0.264 OA
ATOM      9  C   UNL d   1      33.107  21.771 -21.718  0.00  0.00     0.003 A 
ATOM     10  C   UNL d   1      33.174  20.472 -20.708  0.00  0.00     0.019 A 
ATOM     11  C   UNL d   1      32.905  21.548 -23.347  0.00  0.00     0.019 A 
ATOM     12  C   UNL d   1      32.973  22.318 -23.038  0.00  0.00     0.002 A 
ATOM     13  C   UNL d   1      33.241  21.237 -20.406  0.00  0.00     0.002 A 
ATOM     14  C   UNL d   1      33.074  22.428 -22.224  0.00  0.00     0.000 A 
ATOM     15  C   UNL d   1      33.208  21.881 -20.904  0.00  0.00     0.000 A 
ENDROOT
BRANCH   6  16
ATOM     16  C   UNL d   1      32.772  18.861 -23.551  0.00  0.00     0.086 C 
BRANCH  16  17
ATOM     17  C   UNL d   1      32.857  19.075 -24.349  0.00  0.00     0.281 C 
ATOM     18  N   UNL d   1      32.556  18.587 -24.937  0.00  0.00    -0.208 NA
ATOM     19  O   UNL d   1      33.241  19.775 -24.556  0.00  0.00    -0.265 OA
BRANCH  18  20
ATOM     20  C   UNL d   1      32.171  17.887 -24.739  0.00  0.00     0.085 A 
ATOM     21  C   UNL d   1      31.352  17.874 -24.644  0.00  0.00     0.019 A 
ATOM     22  C   UNL d   1      30.974  17.177 -24.448  0.00  0.00     0.002 A 
ATOM     23  C   UNL d   1      30.163  17.167 -24.354  0.00  0.00     0.000 C 
ATOM     24  C   UNL d   1      31.405  16.484 -24.343  0.00  0.00     0.000 A 
ATOM     25  C   UNL d   1      32.230  16.496 -24.437  0.00  0.00     0.002 A 
ATOM     26  C   UNL d   1      32.608  17.201 -24.636  0.00  0.00     0.019 A 
ENDBRANCH  18  20
ENDBRANCH  16  17
ENDBRANCH   6  16
TORSDOF 3
ENDMDL
