MODEL 1
REMARK VINA RESULT:       7.5      0.000      0.000
REMARK  5 active torsions:
REMARK  status: ('A' for Active; 'I' for Inactive)
REMARK    1  A    between atoms: N_2  and  C_1 
REMARK    2  A    between atoms: C_8  and  C_5 
REMARK    3  A    between atoms: C_6  and  C_9 
REMARK       I    between atoms: N_12  and  C_6 
REMARK    4  A    between atoms: C_9  and  C_8 
REMARK    5  A    between atoms: C_13  and  N_12 
ROOT
ATOM      1  C   UNL d   1      46.026 -17.202  44.165  0.00  0.00     0.279 C 
ATOM      2  N   UNL d   1      46.563 -17.688  43.780  0.00  0.00    -0.208 NA
ATOM      3  O   UNL d   1      45.439 -17.530  44.671  0.00  0.00    -0.265 OA
ENDROOT
BRANCH   1   4
ATOM      4  C   UNL d   1      46.057 -16.385  44.058  0.00  0.00     0.063 C 
BRANCH   4   5
ATOM      5  C   UNL d   1      45.618 -15.896  44.576  0.00  0.00     0.011 C 
BRANCH   5   6
ATOM      6  C   UNL d   1      45.691 -15.067  44.503  0.00  0.00     0.031 A 
ATOM      7  S   UNL d   1      45.282 -14.512  44.055  0.00  0.00    -0.064 SA
ATOM      8  C   UNL d   1      45.607 -13.794  44.220  0.00  0.00     0.156 A 
ATOM      9  C   UNL d   1      46.218 -13.888  44.767  0.00  0.00     0.031 A 
ATOM     10  C   UNL d   1      46.281 -14.668  44.950  0.00  0.00     0.009 A 
BRANCH   8  11
ATOM     11  N   UNL d   1      45.366 -13.062  43.890  0.00  0.00    -0.107 N 
ATOM     12  O   UNL d   1      44.889 -13.051  43.230  0.00  0.00    -0.531 OA
ATOM     13  O   UNL d   1      45.617 -12.351  44.240  0.00  0.00    -0.531 OA
ENDBRANCH   8  11
ENDBRANCH   5   6
ENDBRANCH   4   5
ENDBRANCH   1   4
BRANCH   2  14
ATOM     14  C   UNL d   1      46.533 -18.499  43.886  0.00  0.00     0.085 A 
ATOM     15  C   UNL d   1      46.418 -19.001  43.243  0.00  0.00     0.019 A 
ATOM     16  C   UNL d   1      46.387 -19.807  43.348  0.00  0.00     0.002 A 
ATOM     17  C   UNL d   1      46.268 -20.309  42.680  0.00  0.00     0.000 C 
ATOM     18  C   UNL d   1      46.471 -20.133  44.098  0.00  0.00     0.000 A 
ATOM     19  C   UNL d   1      46.587 -19.633  44.744  0.00  0.00     0.002 A 
ATOM     20  C   UNL d   1      46.618 -18.827  44.639  0.00  0.00     0.019 A 
ENDBRANCH   2  14
TORSDOF 5
ENDMDL
