MODEL 1
REMARK VINA RESULT:       1.0      0.000      0.000
REMARK  10 active torsions:
REMARK  status: ('A' for Active; 'I' for Inactive)
REMARK    1  A    between atoms: C_15  and  C_3 
REMARK       I    between atoms: C_8  and  N_7 
REMARK    2  A    between atoms: O_29  and  C_8 
REMARK       I    between atoms: N_9  and  C_11 
REMARK    3  A    between atoms: S_17  and  C_10 
REMARK    4  A    between atoms: C_11  and  C_23 
REMARK       I    between atoms: C_13  and  N_26 
REMARK    5  A    between atoms: C_16  and  C_13 
REMARK    6  A    between atoms: C_30  and  C_15 
REMARK    7  A    between atoms: C_23  and  S_17 
REMARK    8  A    between atoms: N_26  and  C_30 
REMARK    9  A    between atoms: C_35  and  O_29 
REMARK   10  A    between atoms: O_34  and  C_31 
ROOT
ATOM      1  N   UNL d   1      33.009  22.433 -22.499  0.00  0.00    -0.191 N 
ATOM      2  C   UNL d   1      32.784  22.877 -23.164  0.00  0.00     0.187 A 
ATOM      3  C   UNL d   1      33.038  22.941 -21.847  0.00  0.00     0.188 A 
ATOM      4  N   UNL d   1      33.158  21.624 -22.575  0.00  0.00    -0.156 NA
ATOM      5  N   UNL d   1      32.676  23.659 -22.915  0.00  0.00    -0.127 NA
ATOM      6  N   UNL d   1      32.831  23.702 -22.108  0.00  0.00    -0.127 NA
ATOM      7  C   UNL d   1      33.082  21.259 -23.316  0.00  0.00     0.131 A 
ATOM      8  C   UNL d   1      32.712  22.508 -23.892  0.00  0.00     0.043 A 
ATOM      9  C   UNL d   1      32.859  21.700 -23.974  0.00  0.00     0.031 A 
ENDROOT
BRANCH   7  10
ATOM     10  S   UNL d   1      33.233  20.445 -23.388  0.00  0.00    -0.061 SA
BRANCH  10  11
ATOM     11  C   UNL d   1      32.629  19.896 -23.221  0.00  0.00     0.098 C 
BRANCH  11  12
ATOM     12  C   UNL d   1      32.794  19.243 -22.733  0.00  0.00     0.272 C 
ATOM     13  N   UNL d   1      32.544  18.499 -22.967  0.00  0.00    -0.269 N 
ATOM     14  C   UNL d   1      32.140  18.415 -23.673  0.00  0.00     0.102 A 
ATOM     15  C   UNL d   1      32.699  17.844 -22.498  0.00  0.00     0.102 A 
ATOM     16  C   UNL d   1      31.889  17.655 -23.904  0.00  0.00     0.104 A 
ATOM     17  N   UNL d   1      32.053  17.003 -23.419  0.00  0.00    -0.249 N 
ATOM     18  C   UNL d   1      32.456  17.102 -22.722  0.00  0.00     0.104 A 
ATOM     19  C   UNL d   1      31.799  16.249 -23.659  0.00  0.00     0.378 C 
ATOM     20  O   UNL d   1      31.963  15.597 -23.174  0.00  0.00    -0.237 OA
ATOM     21  O   UNL d   1      33.202  19.344 -22.026  0.00  0.00    -0.266 OA
BRANCH  19  22
ATOM     22  O   UNL d   1      31.394  16.160 -24.363  0.00  0.00    -0.257 OA
BRANCH  22  23
ATOM     23  C   UNL d   1      30.702  15.719 -24.371  0.00  0.00     0.128 C 
ATOM     24  C   UNL d   1      30.346  15.527 -25.088  0.00  0.00     0.029 C 
ENDBRANCH  22  23
ENDBRANCH  19  22
ENDBRANCH  11  12
ENDBRANCH  10  11
ENDBRANCH   7  10
BRANCH   3  25
ATOM     25  C   UNL d   1      33.239  22.723 -21.075  0.00  0.00     0.061 C 
BRANCH  25  26
ATOM     26  C   UNL d   1      32.646  22.580 -20.514  0.00  0.00     0.105 C 
BRANCH  26  27
ATOM     27  N   UNL d   1      32.729  22.881 -19.749  0.00  0.00    -0.206 NA
ATOM     28  C   UNL d   1      32.458  22.436 -19.099  0.00  0.00     0.279 C 
ATOM     29  O   UNL d   1      32.107  21.694 -19.230  0.00  0.00    -0.265 OA
BRANCH  28  30
ATOM     30  C   UNL d   1      32.539  22.734 -18.337  0.00  0.00     0.058 A 
ATOM     31  C   UNL d   1      33.014  23.396 -18.207  0.00  0.00     0.007 A 
ATOM     32  C   UNL d   1      33.099  23.698 -17.445  0.00  0.00     0.024 A 
ATOM     33  C   UNL d   1      32.707  23.334 -16.814  0.00  0.00     0.094 A 
ATOM     34  C   UNL d   1      32.232  22.671 -16.944  0.00  0.00     0.024 A 
ATOM     35  C   UNL d   1      32.151  22.372 -17.713  0.00  0.00     0.007 A 
BRANCH  33  36
ATOM     36  O   UNL d   1      32.790  23.633 -16.054  0.00  0.00    -0.328 OA
ATOM     37  C   UNL d   1      33.241  23.234 -15.499  0.00  0.00     0.181 C 
ENDBRANCH  33  36
ENDBRANCH  28  30
ENDBRANCH  26  27
ENDBRANCH  25  26
ENDBRANCH   3  25
TORSDOF 10
ENDMDL
MODEL 2
REMARK VINA RESULT:       1.6      1.567      7.353
REMARK  10 active torsions:
REMARK  status: ('A' for Active; 'I' for Inactive)
REMARK    1  A    between atoms: C_15  and  C_3 
REMARK       I    between atoms: C_8  and  N_7 
REMARK    2  A    between atoms: O_29  and  C_8 
REMARK       I    between atoms: N_9  and  C_11 
REMARK    3  A    between atoms: S_17  and  C_10 
REMARK    4  A    between atoms: C_11  and  C_23 
REMARK       I    between atoms: C_13  and  N_26 
REMARK    5  A    between atoms: C_16  and  C_13 
REMARK    6  A    between atoms: C_30  and  C_15 
REMARK    7  A    between atoms: C_23  and  S_17 
REMARK    8  A    between atoms: N_26  and  C_30 
REMARK    9  A    between atoms: C_35  and  O_29 
REMARK   10  A    between atoms: O_34  and  C_31 
ROOT
ATOM      1  N   UNL d   1      32.853  18.155 -23.445  0.00  0.00    -0.191 N 
ATOM      2  C   UNL d   1      33.062  17.777 -22.735  0.00  0.00     0.187 A 
ATOM      3  C   UNL d   1      32.705  17.573 -24.014  0.00  0.00     0.188 A 
ATOM      4  N   UNL d   1      32.825  18.980 -23.479  0.00  0.00    -0.156 NA
ATOM      5  N   UNL d   1      33.041  16.962 -22.874  0.00  0.00    -0.127 NA
ATOM      6  N   UNL d   1      32.822  16.833 -23.657  0.00  0.00    -0.127 NA
ATOM      7  C   UNL d   1      33.006  19.426 -22.804  0.00  0.00     0.131 A 
ATOM      8  C   UNL d   1      33.239  18.226 -22.073  0.00  0.00     0.043 A 
ATOM      9  C   UNL d   1      33.213  19.051 -22.102  0.00  0.00     0.031 A 
ENDROOT
BRANCH   7  10
ATOM     10  S   UNL d   1      32.976  20.257 -22.843  0.00  0.00    -0.061 SA
BRANCH  10  11
ATOM     11  C   UNL d   1      32.606  20.686 -22.233  0.00  0.00     0.098 C 
BRANCH  11  12
ATOM     12  C   UNL d   1      32.730  21.507 -22.179  0.00  0.00     0.272 C 
ATOM     13  N   UNL d   1      32.826  21.846 -21.439  0.00  0.00    -0.269 N 
ATOM     14  C   UNL d   1      32.797  21.372 -20.774  0.00  0.00     0.102 A 
ATOM     15  C   UNL d   1      32.949  22.654 -21.368  0.00  0.00     0.102 A 
ATOM     16  C   UNL d   1      32.896  21.725 -20.025  0.00  0.00     0.104 A 
ATOM     17  N   UNL d   1      33.020  22.543 -19.969  0.00  0.00    -0.249 N 
ATOM     18  C   UNL d   1      33.046  22.999 -20.639  0.00  0.00     0.104 A 
ATOM     19  C   UNL d   1      33.117  22.884 -19.218  0.00  0.00     0.378 C 
ATOM     20  O   UNL d   1      33.241  23.702 -19.162  0.00  0.00    -0.237 OA
ATOM     21  O   UNL d   1      32.756  21.970 -22.858  0.00  0.00    -0.266 OA
BRANCH  19  22
ATOM     22  O   UNL d   1      33.089  22.415 -18.550  0.00  0.00    -0.257 OA
BRANCH  22  23
ATOM     23  C   UNL d   1      33.090  22.773 -17.811  0.00  0.00     0.128 C 
ATOM     24  C   UNL d   1      33.066  22.311 -17.131  0.00  0.00     0.029 C 
ENDBRANCH  22  23
ENDBRANCH  19  22
ENDBRANCH  11  12
ENDBRANCH  10  11
ENDBRANCH   7  10
BRANCH   3  25
ATOM     25  C   UNL d   1      32.480  17.713 -24.797  0.00  0.00     0.061 C 
BRANCH  25  26
ATOM     26  C   UNL d   1      31.688  17.873 -24.983  0.00  0.00     0.105 C 
BRANCH  26  27
ATOM     27  N   UNL d   1      31.101  17.337 -24.760  0.00  0.00    -0.206 NA
ATOM     28  C   UNL d   1      30.311  17.591 -24.702  0.00  0.00     0.279 C 
ATOM     29  O   UNL d   1      30.123  18.384 -24.869  0.00  0.00    -0.265 OA
BRANCH  28  30
ATOM     30  C   UNL d   1      29.724  17.059 -24.480  0.00  0.00     0.058 A 
ATOM     31  C   UNL d   1      29.440  17.065 -23.705  0.00  0.00     0.007 A 
ATOM     32  C   UNL d   1      28.853  16.534 -23.477  0.00  0.00     0.024 A 
ATOM     33  C   UNL d   1      28.551  15.996 -24.030  0.00  0.00     0.094 A 
ATOM     34  C   UNL d   1      28.835  15.990 -24.804  0.00  0.00     0.024 A 
ATOM     35  C   UNL d   1      29.426  16.527 -25.027  0.00  0.00     0.007 A 
BRANCH  33  36
ATOM     36  O   UNL d   1      27.966  15.467 -23.805  0.00  0.00    -0.328 OA
ATOM     37  C   UNL d   1      27.256  15.739 -23.500  0.00  0.00     0.181 C 
ENDBRANCH  33  36
ENDBRANCH  28  30
ENDBRANCH  26  27
ENDBRANCH  25  26
ENDBRANCH   3  25
TORSDOF 10
ENDMDL
