MODEL 1
REMARK VINA RESULT:      -3.1      0.000      0.000
REMARK  2 active torsions:
REMARK  status: ('A' for Active; 'I' for Inactive)
REMARK       I    between atoms: N_2  and  C_1 
REMARK       I    between atoms: N_3  and  C_1 
REMARK    1  A    between atoms: C_6  and  N_2 
REMARK    2  A    between atoms: C_5  and  N_3 
ROOT
ATOM      1  C   UNL d   1      31.354  16.177 -24.363  0.00  0.00     0.369 C 
ATOM      2  N   UNL d   1      30.747  15.643 -24.433  0.00  0.00    -0.191 NA
ATOM      3  N   UNL d   1      31.267  16.830 -23.891  0.00  0.00    -0.191 NA
ATOM      4  O   UNL d   1      32.106  16.101 -24.766  0.00  0.00    -0.242 OA
ENDROOT
BRANCH   2   5
ATOM      5  C   UNL d   1      30.052  15.769 -24.024  0.00  0.00     0.086 A 
ATOM      6  C   UNL d   1      29.953  15.453 -23.274  0.00  0.00     0.019 A 
ATOM      7  C   UNL d   1      29.254  15.569 -22.842  0.00  0.00     0.002 A 
ATOM      8  C   UNL d   1      28.638  16.019 -23.182  0.00  0.00     0.000 A 
ATOM      9  C   UNL d   1      28.741  16.338 -23.943  0.00  0.00     0.002 A 
ATOM     10  C   UNL d   1      29.442  16.214 -24.361  0.00  0.00     0.019 A 
ENDBRANCH   2   5
BRANCH   3  11
ATOM     11  C   UNL d   1      31.874  17.367 -23.819  0.00  0.00     0.086 A 
ATOM     12  C   UNL d   1      32.433  17.276 -23.227  0.00  0.00     0.019 A 
ATOM     13  C   UNL d   1      33.052  17.816 -23.146  0.00  0.00     0.002 A 
ATOM     14  C   UNL d   1      33.107  18.462 -23.673  0.00  0.00     0.000 A 
ATOM     15  C   UNL d   1      32.541  18.551 -24.268  0.00  0.00     0.002 A 
ATOM     16  C   UNL d   1      31.928  18.004 -24.339  0.00  0.00     0.019 A 
ENDBRANCH   3  11
TORSDOF 2
ENDMDL
MODEL 2
REMARK VINA RESULT:      -2.6      0.651      3.461
REMARK  2 active torsions:
REMARK  status: ('A' for Active; 'I' for Inactive)
REMARK       I    between atoms: N_2  and  C_1 
REMARK       I    between atoms: N_3  and  C_1 
REMARK    1  A    between atoms: C_6  and  N_2 
REMARK    2  A    between atoms: C_5  and  N_3 
ROOT
ATOM      1  C   UNL d   1      31.069  16.314 -24.600  0.00  0.00     0.369 C 
ATOM      2  N   UNL d   1      31.827  16.560 -24.752  0.00  0.00    -0.191 NA
ATOM      3  N   UNL d   1      30.674  16.596 -23.951  0.00  0.00    -0.191 NA
ATOM      4  O   UNL d   1      30.638  15.760 -25.090  0.00  0.00    -0.242 OA
ENDROOT
BRANCH   2   5
ATOM      5  C   UNL d   1      32.187  17.091 -24.248  0.00  0.00     0.086 A 
ATOM      6  C   UNL d   1      32.120  17.897 -24.385  0.00  0.00     0.019 A 
ATOM      7  C   UNL d   1      32.478  18.453 -23.883  0.00  0.00     0.002 A 
ATOM      8  C   UNL d   1      32.916  18.183 -23.226  0.00  0.00     0.000 A 
ATOM      9  C   UNL d   1      32.982  17.365 -23.090  0.00  0.00     0.002 A 
ATOM     10  C   UNL d   1      32.621  16.824 -23.597  0.00  0.00     0.019 A 
ENDBRANCH   2   5
BRANCH   3  11
ATOM     11  C   UNL d   1      29.914  16.352 -23.794  0.00  0.00     0.086 A 
ATOM     12  C   UNL d   1      29.783  15.708 -23.306  0.00  0.00     0.019 A 
ATOM     13  C   UNL d   1      29.016  15.452 -23.142  0.00  0.00     0.002 A 
ATOM     14  C   UNL d   1      28.367  15.856 -23.478  0.00  0.00     0.000 A 
ATOM     15  C   UNL d   1      28.502  16.505 -23.970  0.00  0.00     0.002 A 
ATOM     16  C   UNL d   1      29.274  16.751 -24.126  0.00  0.00     0.019 A 
ENDBRANCH   3  11
TORSDOF 2
ENDMDL
