MODEL 1
REMARK VINA RESULT:      -4.0      0.000      0.000
REMARK  2 active torsions:
REMARK  status: ('A' for Active; 'I' for Inactive)
REMARK    1  A    between atoms: N_6  and  C_1 
REMARK    2  A    between atoms: C_7  and  C_2 
REMARK       I    between atoms: C_8  and  N_6 
ROOT
ATOM      1  C   UNL d   1      58.370  -0.956  29.794  0.00  0.00     0.119 A 
ATOM      2  C   UNL d   1      58.334  -0.163  29.912  0.00  0.00     0.084 A 
ATOM      3  S   UNL d   1      57.880  -1.329  30.357  0.00  0.00    -0.068 SA
ATOM      4  C   UNL d   1      57.836  -0.020  30.534  0.00  0.00     0.013 A 
ATOM      5  C   UNL d   1      57.552  -0.750  30.812  0.00  0.00     0.031 A 
ATOM      6  C   UNL d   1      57.596   0.682  30.893  0.00  0.00     0.001 A 
ATOM      7  C   UNL d   1      57.029  -0.755  31.450  0.00  0.00     0.006 A 
ATOM      8  C   UNL d   1      57.068   0.660  31.535  0.00  0.00     0.000 A 
ATOM      9  C   UNL d   1      56.801  -0.051  31.795  0.00  0.00     0.001 A 
ENDROOT
BRANCH   1  10
ATOM     10  N   UNL d   1      58.836  -1.339  29.189  0.00  0.00    -0.201 NA
ATOM     11  C   UNL d   1      58.883  -2.158  29.137  0.00  0.00     0.280 C 
ATOM     12  O   UNL d   1      58.470  -2.643  29.684  0.00  0.00    -0.265 OA
ATOM     13  C   UNL d   1      59.337  -2.516  28.548  0.00  0.00     0.068 C 
ENDBRANCH   1  10
BRANCH   2  14
ATOM     14  C   UNL d   1      58.756   0.405  29.451  0.00  0.00     0.299 C 
ATOM     15  O   UNL d   1      58.396   0.682  28.755  0.00  0.00    -0.264 OA
ATOM     16  N   UNL d   1      59.495   0.680  29.673  0.00  0.00    -0.102 N 
ENDBRANCH   2  14
TORSDOF 2
ENDMDL
MODEL 2
REMARK VINA RESULT:      -3.7      1.492      3.328
REMARK  2 active torsions:
REMARK  status: ('A' for Active; 'I' for Inactive)
REMARK    1  A    between atoms: N_6  and  C_1 
REMARK    2  A    between atoms: C_7  and  C_2 
REMARK       I    between atoms: C_8  and  N_6 
ROOT
ATOM      1  C   UNL d   1      59.171  -1.030  29.293  0.00  0.00     0.119 A 
ATOM      2  C   UNL d   1      59.913  -1.265  29.100  0.00  0.00     0.084 A 
ATOM      3  S   UNL d   1      58.660  -1.688  29.225  0.00  0.00    -0.068 SA
ATOM      4  C   UNL d   1      59.892  -2.052  28.911  0.00  0.00     0.013 A 
ATOM      5  C   UNL d   1      59.108  -2.316  28.989  0.00  0.00     0.031 A 
ATOM      6  C   UNL d   1      60.483  -2.574  28.675  0.00  0.00     0.001 A 
ATOM      7  C   UNL d   1      58.938  -3.107  28.826  0.00  0.00     0.006 A 
ATOM      8  C   UNL d   1      60.296  -3.368  28.514  0.00  0.00     0.000 A 
ATOM      9  C   UNL d   1      59.535  -3.612  28.593  0.00  0.00     0.001 A 
ENDROOT
BRANCH   1  10
ATOM     10  N   UNL d   1      58.953  -0.239  29.527  0.00  0.00    -0.201 NA
ATOM     11  C   UNL d   1      58.265  -0.088  29.951  0.00  0.00     0.280 C 
ATOM     12  O   UNL d   1      57.754  -0.718  30.167  0.00  0.00    -0.265 OA
ATOM     13  C   UNL d   1      58.066   0.682  30.172  0.00  0.00     0.068 C 
ENDBRANCH   1  10
BRANCH   2  14
ATOM     14  C   UNL d   1      60.586  -0.756  29.102  0.00  0.00     0.299 C 
ATOM     15  O   UNL d   1      61.062  -0.746  29.784  0.00  0.00    -0.264 OA
ATOM     16  N   UNL d   1      60.775  -0.283  28.459  0.00  0.00    -0.102 N 
ENDBRANCH   2  14
TORSDOF 2
ENDMDL
MODEL 3
REMARK VINA RESULT:      -3.4      1.642      3.239
REMARK  2 active torsions:
REMARK  status: ('A' for Active; 'I' for Inactive)
REMARK    1  A    between atoms: N_6  and  C_1 
REMARK    2  A    between atoms: C_7  and  C_2 
REMARK       I    between atoms: C_8  and  N_6 
ROOT
ATOM      1  C   UNL d   1      58.747  -0.299  29.949  0.00  0.00     0.119 A 
ATOM      2  C   UNL d   1      59.064  -0.763  29.377  0.00  0.00     0.084 A 
ATOM      3  S   UNL d   1      59.269   0.338  30.092  0.00  0.00    -0.068 SA
ATOM      4  C   UNL d   1      59.771  -0.441  29.150  0.00  0.00     0.013 A 
ATOM      5  C   UNL d   1      59.899   0.247  29.597  0.00  0.00     0.031 A 
ATOM      6  C   UNL d   1      60.327  -0.680  28.590  0.00  0.00     0.001 A 
ATOM      7  C   UNL d   1      60.589   0.681  29.469  0.00  0.00     0.006 A 
ATOM      8  C   UNL d   1      61.017  -0.232  28.473  0.00  0.00     0.000 A 
ATOM      9  C   UNL d   1      61.130   0.431  28.911  0.00  0.00     0.001 A 
ENDROOT
BRANCH   1  10
ATOM     10  N   UNL d   1      58.001  -0.444  30.339  0.00  0.00    -0.201 NA
ATOM     11  C   UNL d   1      57.751   0.014  30.974  0.00  0.00     0.280 C 
ATOM     12  O   UNL d   1      58.230   0.642  31.259  0.00  0.00    -0.265 OA
ATOM     13  C   UNL d   1      57.028  -0.137  31.343  0.00  0.00     0.068 C 
ENDBRANCH   1  10
BRANCH   2  14
ATOM     14  C   UNL d   1      58.700  -1.463  29.079  0.00  0.00     0.299 C 
ATOM     15  O   UNL d   1      58.154  -1.381  28.457  0.00  0.00    -0.264 OA
ATOM     16  N   UNL d   1      58.871  -2.205  29.384  0.00  0.00    -0.102 N 
ENDBRANCH   2  14
TORSDOF 2
ENDMDL
MODEL 4
REMARK VINA RESULT:      -3.4      1.331      2.065
REMARK  2 active torsions:
REMARK  status: ('A' for Active; 'I' for Inactive)
REMARK    1  A    between atoms: N_6  and  C_1 
REMARK    2  A    between atoms: C_7  and  C_2 
REMARK       I    between atoms: C_8  and  N_6 
ROOT
ATOM      1  C   UNL d   1      59.155   0.157  29.984  0.00  0.00     0.119 A 
ATOM      2  C   UNL d   1      58.546  -0.364  29.975  0.00  0.00     0.084 A 
ATOM      3  S   UNL d   1      59.068   0.653  30.650  0.00  0.00    -0.068 SA
ATOM      4  C   UNL d   1      58.073  -0.216  30.615  0.00  0.00     0.013 A 
ATOM      5  C   UNL d   1      58.400   0.421  31.038  0.00  0.00     0.031 A 
ATOM      6  C   UNL d   1      57.379  -0.575  30.879  0.00  0.00     0.001 A 
ATOM      7  C   UNL d   1      58.018   0.682  31.720  0.00  0.00     0.006 A 
ATOM      8  C   UNL d   1      57.006  -0.300  31.568  0.00  0.00     0.000 A 
ATOM      9  C   UNL d   1      57.331   0.315  31.968  0.00  0.00     0.001 A 
ENDROOT
BRANCH   1  10
ATOM     10  N   UNL d   1      59.780   0.188  29.404  0.00  0.00    -0.201 NA
ATOM     11  C   UNL d   1      60.537   0.443  29.599  0.00  0.00     0.280 C 
ATOM     12  O   UNL d   1      60.715   0.682  30.384  0.00  0.00    -0.265 OA
ATOM     13  C   UNL d   1      61.133   0.468  29.029  0.00  0.00     0.068 C 
ENDBRANCH   1  10
BRANCH   2  14
ATOM     14  C   UNL d   1      58.439  -0.958  29.385  0.00  0.00     0.299 C 
ATOM     15  O   UNL d   1      58.039  -0.744  28.688  0.00  0.00    -0.264 OA
ATOM     16  N   UNL d   1      58.715  -1.724  29.485  0.00  0.00    -0.102 N 
ENDBRANCH   2  14
TORSDOF 2
ENDMDL
MODEL 5
REMARK VINA RESULT:      -3.1      1.726      2.605
REMARK  2 active torsions:
REMARK  status: ('A' for Active; 'I' for Inactive)
REMARK    1  A    between atoms: N_6  and  C_1 
REMARK    2  A    between atoms: C_7  and  C_2 
REMARK       I    between atoms: C_8  and  N_6 
ROOT
ATOM      1  C   UNL d   1      59.248  -1.673  29.095  0.00  0.00     0.119 A 
ATOM      2  C   UNL d   1      59.020  -0.983  29.436  0.00  0.00     0.084 A 
ATOM      3  S   UNL d   1      60.067  -1.633  28.939  0.00  0.00    -0.068 SA
ATOM      4  C   UNL d   1      59.670  -0.504  29.501  0.00  0.00     0.013 A 
ATOM      5  C   UNL d   1      60.325  -0.911  29.190  0.00  0.00     0.031 A 
ATOM      6  C   UNL d   1      59.760   0.257  29.804  0.00  0.00     0.001 A 
ATOM      7  C   UNL d   1      61.060  -0.538  29.192  0.00  0.00     0.006 A 
ATOM      8  C   UNL d   1      60.508   0.619  29.799  0.00  0.00     0.000 A 
ATOM      9  C   UNL d   1      61.133   0.216  29.496  0.00  0.00     0.001 A 
ENDROOT
BRANCH   1  10
ATOM     10  N   UNL d   1      58.729  -2.330  28.927  0.00  0.00    -0.201 NA
ATOM     11  C   UNL d   1      59.017  -3.043  28.635  0.00  0.00     0.280 C 
ATOM     12  O   UNL d   1      59.838  -3.143  28.494  0.00  0.00    -0.265 OA
ATOM     13  C   UNL d   1      58.505  -3.670  28.477  0.00  0.00     0.068 C 
ENDBRANCH   1  10
BRANCH   2  14
ATOM     14  C   UNL d   1      58.230  -0.812  29.676  0.00  0.00     0.299 C 
ATOM     15  O   UNL d   1      57.745  -0.398  29.142  0.00  0.00    -0.264 OA
ATOM     16  N   UNL d   1      57.939  -1.040  30.408  0.00  0.00    -0.102 N 
ENDBRANCH   2  14
TORSDOF 2
ENDMDL
MODEL 6
REMARK VINA RESULT:      -2.7      1.887      3.091
REMARK  2 active torsions:
REMARK  status: ('A' for Active; 'I' for Inactive)
REMARK    1  A    between atoms: N_6  and  C_1 
REMARK    2  A    between atoms: C_7  and  C_2 
REMARK       I    between atoms: C_8  and  N_6 
ROOT
ATOM      1  C   UNL d   1      58.234   0.352  30.984  0.00  0.00     0.119 A 
ATOM      2  C   UNL d   1      58.531   0.266  30.244  0.00  0.00     0.084 A 
ATOM      3  S   UNL d   1      58.866   0.520  31.504  0.00  0.00    -0.068 SA
ATOM      4  C   UNL d   1      59.333   0.374  30.276  0.00  0.00     0.013 A 
ATOM      5  C   UNL d   1      59.542   0.533  31.064  0.00  0.00     0.031 A 
ATOM      6  C   UNL d   1      59.912   0.350  29.690  0.00  0.00     0.001 A 
ATOM      7  C   UNL d   1      60.336   0.665  31.244  0.00  0.00     0.006 A 
ATOM      8  C   UNL d   1      60.707   0.486  29.888  0.00  0.00     0.000 A 
ATOM      9  C   UNL d   1      60.898   0.638  30.652  0.00  0.00     0.001 A 
ENDROOT
BRANCH   1  10
ATOM     10  N   UNL d   1      57.409   0.280  31.191  0.00  0.00    -0.201 NA
ATOM     11  C   UNL d   1      57.153   0.352  31.969  0.00  0.00     0.280 C 
ATOM     12  O   UNL d   1      57.703   0.499  32.586  0.00  0.00    -0.265 OA
ATOM     13  C   UNL d   1      56.352   0.281  32.157  0.00  0.00     0.068 C 
ENDBRANCH   1  10
BRANCH   2  14
ATOM     14  C   UNL d   1      58.063   0.092  29.563  0.00  0.00     0.299 C 
ATOM     15  O   UNL d   1      57.892  -0.706  29.405  0.00  0.00    -0.264 OA
ATOM     16  N   UNL d   1      57.782   0.682  29.067  0.00  0.00    -0.102 N 
ENDBRANCH   2  14
TORSDOF 2
ENDMDL
MODEL 7
REMARK VINA RESULT:      -2.3      9.476      9.862
REMARK  2 active torsions:
REMARK  status: ('A' for Active; 'I' for Inactive)
REMARK    1  A    between atoms: N_6  and  C_1 
REMARK    2  A    between atoms: C_7  and  C_2 
REMARK       I    between atoms: C_8  and  N_6 
ROOT
ATOM      1  C   UNL d   1      59.318  -9.235  34.034  0.00  0.00     0.119 A 
ATOM      2  C   UNL d   1      59.839  -9.319  33.430  0.00  0.00     0.084 A 
ATOM      3  S   UNL d   1      58.548  -9.358  33.737  0.00  0.00    -0.068 SA
ATOM      4  C   UNL d   1      59.424  -9.490  32.756  0.00  0.00     0.013 A 
ATOM      5  C   UNL d   1      58.616  -9.515  32.949  0.00  0.00     0.031 A 
ATOM      6  C   UNL d   1      59.670  -9.631  31.982  0.00  0.00     0.001 A 
ATOM      7  C   UNL d   1      58.071  -9.681  32.352  0.00  0.00     0.006 A 
ATOM      8  C   UNL d   1      59.108  -9.797  31.393  0.00  0.00     0.000 A 
ATOM      9  C   UNL d   1      58.331  -9.818  31.590  0.00  0.00     0.001 A 
ENDROOT
BRANCH   1  10
ATOM     10  N   UNL d   1      59.531  -9.052  34.840  0.00  0.00    -0.201 NA
ATOM     11  C   UNL d   1      58.975  -9.067  35.446  0.00  0.00     0.280 C 
ATOM     12  O   UNL d   1      58.176  -9.266  35.284  0.00  0.00    -0.265 OA
ATOM     13  C   UNL d   1      59.193  -8.888  36.222  0.00  0.00     0.068 C 
ENDBRANCH   1  10
BRANCH   2  14
ATOM     14  C   UNL d   1      60.675  -9.236  33.510  0.00  0.00     0.299 C 
ATOM     15  O   UNL d   1      61.031  -8.564  33.174  0.00  0.00    -0.264 OA
ATOM     16  N   UNL d   1      61.131  -9.792  33.904  0.00  0.00    -0.102 N 
ENDBRANCH   2  14
TORSDOF 2
ENDMDL
MODEL 8
REMARK VINA RESULT:      -2.3      9.241      9.387
REMARK  2 active torsions:
REMARK  status: ('A' for Active; 'I' for Inactive)
REMARK    1  A    between atoms: N_6  and  C_1 
REMARK    2  A    between atoms: C_7  and  C_2 
REMARK       I    between atoms: C_8  and  N_6 
ROOT
ATOM      1  C   UNL d   1      59.211  -9.134  33.589  0.00  0.00     0.119 A 
ATOM      2  C   UNL d   1      59.909  -8.968  33.947  0.00  0.00     0.084 A 
ATOM      3  S   UNL d   1      58.591  -8.905  34.100  0.00  0.00    -0.068 SA
ATOM      4  C   UNL d   1      59.753  -8.641  34.671  0.00  0.00     0.013 A 
ATOM      5  C   UNL d   1      58.929  -8.602  34.767  0.00  0.00     0.031 A 
ATOM      6  C   UNL d   1      60.253  -8.369  35.268  0.00  0.00     0.001 A 
ATOM      7  C   UNL d   1      58.625  -8.287  35.466  0.00  0.00     0.006 A 
ATOM      8  C   UNL d   1      59.931  -8.055  35.966  0.00  0.00     0.000 A 
ATOM      9  C   UNL d   1      59.133  -8.022  36.047  0.00  0.00     0.001 A 
ENDROOT
BRANCH   1  10
ATOM     10  N   UNL d   1      59.130  -9.484  32.815  0.00  0.00    -0.201 NA
ATOM     11  C   UNL d   1      58.415  -9.470  32.408  0.00  0.00     0.280 C 
ATOM     12  O   UNL d   1      57.740  -9.107  32.749  0.00  0.00    -0.265 OA
ATOM     13  C   UNL d   1      58.349  -9.813  31.660  0.00  0.00     0.068 C 
ENDBRANCH   1  10
BRANCH   2  14
ATOM     14  C   UNL d   1      60.665  -9.120  33.604  0.00  0.00     0.299 C 
ATOM     15  O   UNL d   1      60.991  -8.534  33.113  0.00  0.00    -0.264 OA
ATOM     16  N   UNL d   1      61.073  -9.817  33.744  0.00  0.00    -0.102 N 
ENDBRANCH   2  14
TORSDOF 2
ENDMDL
MODEL 9
REMARK VINA RESULT:      -2.1      2.508      3.250
REMARK  2 active torsions:
REMARK  status: ('A' for Active; 'I' for Inactive)
REMARK    1  A    between atoms: N_6  and  C_1 
REMARK    2  A    between atoms: C_7  and  C_2 
REMARK       I    between atoms: C_8  and  N_6 
ROOT
ATOM      1  C   UNL d   1      56.842  -0.239  32.284  0.00  0.00     0.119 A 
ATOM      2  C   UNL d   1      57.029   0.205  32.926  0.00  0.00     0.084 A 
ATOM      3  S   UNL d   1      56.035  -0.447  32.333  0.00  0.00    -0.068 SA
ATOM      4  C   UNL d   1      56.365   0.286  33.383  0.00  0.00     0.013 A 
ATOM      5  C   UNL d   1      55.743  -0.122  33.011  0.00  0.00     0.031 A 
ATOM      6  C   UNL d   1      56.235   0.679  34.095  0.00  0.00     0.001 A 
ATOM      7  C   UNL d   1      55.000  -0.124  33.369  0.00  0.00     0.006 A 
ATOM      8  C   UNL d   1      55.480   0.667  34.443  0.00  0.00     0.000 A 
ATOM      9  C   UNL d   1      54.888   0.270  34.075  0.00  0.00     0.001 A 
ENDROOT
BRANCH   1  10
ATOM     10  N   UNL d   1      57.388  -0.454  31.664  0.00  0.00    -0.201 NA
ATOM     11  C   UNL d   1      57.251  -1.101  31.175  0.00  0.00     0.280 C 
ATOM     12  O   UNL d   1      56.562  -1.570  31.276  0.00  0.00    -0.265 OA
ATOM     13  C   UNL d   1      57.786  -1.298  30.578  0.00  0.00     0.068 C 
ENDBRANCH   1  10
BRANCH   2  14
ATOM     14  C   UNL d   1      57.796   0.522  33.077  0.00  0.00     0.299 C 
ATOM     15  O   UNL d   1      58.006   0.670  33.867  0.00  0.00    -0.264 OA
ATOM     16  N   UNL d   1      58.326   0.682  32.471  0.00  0.00    -0.102 N 
ENDBRANCH   2  14
TORSDOF 2
ENDMDL
