MODEL 1
REMARK VINA RESULT:      -1.3      0.000      0.000
REMARK  3 active torsions:
REMARK  status: ('A' for Active; 'I' for Inactive)
REMARK    1  A    between atoms: C_5  and  N_1 
REMARK    2  A    between atoms: C_13  and  C_3 
REMARK    3  A    between atoms: C_4  and  C_5 
ROOT
ATOM      1  N   UNL d   1     -41.343-121.962 -51.224  0.00  0.00    -0.286 N 
ATOM      2  N   UNL d   1     -41.177-121.340 -52.413  0.00  0.00    -0.224 NA
ATOM      3  C   UNL d   1     -41.263-121.223 -51.588  0.00  0.00     0.191 A 
ATOM      4  C   UNL d   1     -41.307-122.547 -51.818  0.00  0.00     0.083 A 
ATOM      5  C   UNL d   1     -41.205-122.164 -52.546  0.00  0.00     0.099 A 
ATOM      6  C   UNL d   1     -41.354-123.380 -51.797  0.00  0.00     0.019 A 
ATOM      7  C   UNL d   1     -41.149-122.602 -53.253  0.00  0.00     0.021 A 
ATOM      8  C   UNL d   1     -41.299-123.817 -52.495  0.00  0.00     0.002 A 
ATOM      9  C   UNL d   1     -41.197-123.429 -53.221  0.00  0.00     0.002 A 
ENDROOT
BRANCH   1  10
ATOM     10  C   UNL d   1     -41.433-121.929 -50.405  0.00  0.00     0.082 C 
BRANCH  10  11
ATOM     11  C   UNL d   1     -42.053-122.329 -50.045  0.00  0.00     0.018 A 
ATOM     12  C   UNL d   1     -41.897-122.873 -49.440  0.00  0.00     0.001 A 
ATOM     13  C   UNL d   1     -42.516-123.274 -49.080  0.00  0.00     0.000 A 
ATOM     14  C   UNL d   1     -41.123-123.012 -49.203  0.00  0.00     0.000 C 
ATOM     15  C   UNL d   1     -42.361-123.817 -48.477  0.00  0.00     0.000 C 
ATOM     16  C   UNL d   1     -43.291-123.136 -49.317  0.00  0.00     0.000 A 
ATOM     17  C   UNL d   1     -43.444-122.592 -49.922  0.00  0.00     0.000 A 
ATOM     18  C   UNL d   1     -42.823-122.191 -50.282  0.00  0.00     0.001 A 
ATOM     19  C   UNL d   1     -44.214-122.443 -50.170  0.00  0.00     0.000 C 
ATOM     20  C   UNL d   1     -42.969-121.650 -50.882  0.00  0.00     0.000 C 
ENDBRANCH  10  11
ENDBRANCH   1  10
BRANCH   3  21
ATOM     21  C   UNL d   1     -41.267-120.494 -51.207  0.00  0.00     0.271 C 
ATOM     22  O   UNL d   1     -41.123-119.804 -51.630  0.00  0.00    -0.280 OA
ENDBRANCH   3  21
TORSDOF 3
ENDMDL
MODEL 2
REMARK VINA RESULT:       0.4      1.449      3.404
REMARK  3 active torsions:
REMARK  status: ('A' for Active; 'I' for Inactive)
REMARK    1  A    between atoms: C_5  and  N_1 
REMARK    2  A    between atoms: C_13  and  C_3 
REMARK    3  A    between atoms: C_4  and  C_5 
ROOT
ATOM      1  N   UNL d   1     -42.057-122.644 -49.800  0.00  0.00    -0.286 N 
ATOM      2  N   UNL d   1     -42.747-123.271 -48.821  0.00  0.00    -0.224 NA
ATOM      3  C   UNL d   1     -41.981-123.088 -49.106  0.00  0.00     0.191 A 
ATOM      4  C   UNL d   1     -42.871-122.546 -49.956  0.00  0.00     0.083 A 
ATOM      5  C   UNL d   1     -43.292-122.932 -49.354  0.00  0.00     0.099 A 
ATOM      6  C   UNL d   1     -43.290-122.158 -50.564  0.00  0.00     0.019 A 
ATOM      7  C   UNL d   1     -44.126-122.934 -49.354  0.00  0.00     0.021 A 
ATOM      8  C   UNL d   1     -44.115-122.158 -50.567  0.00  0.00     0.002 A 
ATOM      9  C   UNL d   1     -44.532-122.545 -49.962  0.00  0.00     0.002 A 
ENDROOT
BRANCH   1  10
ATOM     10  C   UNL d   1     -41.340-122.423 -50.143  0.00  0.00     0.082 C 
BRANCH  10  11
ATOM     11  C   UNL d   1     -41.269-122.390 -50.960  0.00  0.00     0.018 A 
ATOM     12  C   UNL d   1     -41.232-123.091 -51.400  0.00  0.00     0.001 A 
ATOM     13  C   UNL d   1     -41.161-123.060 -52.217  0.00  0.00     0.000 A 
ATOM     14  C   UNL d   1     -41.265-123.817 -51.017  0.00  0.00     0.000 C 
ATOM     15  C   UNL d   1     -41.124-123.759 -52.655  0.00  0.00     0.000 C 
ATOM     16  C   UNL d   1     -41.128-122.333 -52.601  0.00  0.00     0.000 A 
ATOM     17  C   UNL d   1     -41.166-121.634 -52.159  0.00  0.00     0.000 A 
ATOM     18  C   UNL d   1     -41.237-121.667 -51.341  0.00  0.00     0.001 A 
ATOM     19  C   UNL d   1     -41.135-120.900 -52.528  0.00  0.00     0.000 C 
ATOM     20  C   UNL d   1     -41.275-120.977 -50.897  0.00  0.00     0.000 C 
ENDBRANCH  10  11
ENDBRANCH   1  10
BRANCH   3  21
ATOM     21  C   UNL d   1     -41.273-123.313 -48.752  0.00  0.00     0.271 C 
ATOM     22  O   UNL d   1     -41.248-123.492 -47.950  0.00  0.00    -0.280 OA
ENDBRANCH   3  21
TORSDOF 3
ENDMDL
