MODEL 1
REMARK VINA RESULT:      -6.0      0.000      0.000
REMARK  6 active torsions:
REMARK  status: ('A' for Active; 'I' for Inactive)
REMARK    1  A    between atoms: C_13  and  C_3 
REMARK    2  A    between atoms: S_12  and  C_4 
REMARK    3  A    between atoms: C_8  and  C_6 
REMARK    4  A    between atoms: O_17  and  C_8 
REMARK    5  A    between atoms: C_10  and  C_16 
REMARK    6  A    between atoms: C_16  and  S_12 
ROOT
ATOM      1  O   UNL d   1     -41.539-122.804 -50.065  0.00  0.00    -0.263 OA
ATOM      2  N   UNL d   1     -42.856-122.670 -49.910  0.00  0.00    -0.120 NA
ATOM      3  C   UNL d   1     -42.163-122.849 -49.518  0.00  0.00     0.205 A 
ATOM      4  C   UNL d   1     -41.865-122.595 -50.795  0.00  0.00     0.236 A 
ATOM      5  N   UNL d   1     -42.675-122.512 -50.700  0.00  0.00    -0.114 NA
ENDROOT
BRANCH   4   6
ATOM      6  S   UNL d   1     -41.451-122.483 -51.511  0.00  0.00    -0.039 SA
BRANCH   6   7
ATOM      7  C   UNL d   1     -41.221-123.136 -51.962  0.00  0.00     0.064 C 
BRANCH   7   8
ATOM      8  C   UNL d   1     -41.304-123.115 -52.781  0.00  0.00     0.107 A 
ATOM      9  O   UNL d   1     -41.550-122.520 -53.299  0.00  0.00    -0.301 OA
ATOM     10  C   UNL d   1     -41.520-122.827 -54.075  0.00  0.00     0.163 A 
ATOM     11  C   UNL d   1     -41.256-123.604 -54.022  0.00  0.00     0.032 A 
ATOM     12  C   UNL d   1     -41.123-123.786 -53.237  0.00  0.00     0.027 A 
BRANCH  10  13
ATOM     13  C   UNL d   1     -41.719-122.424 -54.771  0.00  0.00     0.319 C 
ATOM     14  O   UNL d   1     -41.123-122.066 -55.223  0.00  0.00    -0.257 OA
BRANCH  13  15
ATOM     15  O   UNL d   1     -42.504-122.376 -55.020  0.00  0.00    -0.294 OA
ATOM     16  C   UNL d   1     -42.709-121.936 -55.692  0.00  0.00     0.185 C 
ENDBRANCH  13  15
ENDBRANCH  10  13
ENDBRANCH   7   8
ENDBRANCH   6   7
ENDBRANCH   4   6
BRANCH   3  17
ATOM     17  C   UNL d   1     -42.040-123.048 -48.725  0.00  0.00     0.046 A 
ATOM     18  C   UNL d   1     -42.678-123.265 -48.257  0.00  0.00     0.024 A 
ATOM     19  C   UNL d   1     -42.564-123.464 -47.466  0.00  0.00     0.099 A 
ATOM     20  N   UNL d   1     -41.807-123.447 -47.136  0.00  0.00    -0.242 NA
ATOM     21  C   UNL d   1     -41.162-123.227 -47.610  0.00  0.00     0.099 A 
ATOM     22  C   UNL d   1     -41.282-123.030 -48.399  0.00  0.00     0.024 A 
ENDBRANCH   3  17
TORSDOF 6
ENDMDL
MODEL 2
REMARK VINA RESULT:      -5.4      1.832      5.661
REMARK  6 active torsions:
REMARK  status: ('A' for Active; 'I' for Inactive)
REMARK    1  A    between atoms: C_13  and  C_3 
REMARK    2  A    between atoms: S_12  and  C_4 
REMARK    3  A    between atoms: C_8  and  C_6 
REMARK    4  A    between atoms: O_17  and  C_8 
REMARK    5  A    between atoms: C_10  and  C_16 
REMARK    6  A    between atoms: C_16  and  S_12 
ROOT
ATOM      1  O   UNL d   1     -41.700-122.544 -52.811  0.00  0.00    -0.263 OA
ATOM      2  N   UNL d   1     -41.217-123.578 -53.501  0.00  0.00    -0.120 NA
ATOM      3  C   UNL d   1     -41.569-122.845 -53.574  0.00  0.00     0.205 A 
ATOM      4  C   UNL d   1     -41.421-123.106 -52.273  0.00  0.00     0.236 A 
ATOM      5  N   UNL d   1     -41.124-123.742 -52.696  0.00  0.00    -0.114 NA
ENDROOT
BRANCH   4   6
ATOM      6  S   UNL d   1     -41.434-123.047 -51.440  0.00  0.00    -0.039 SA
BRANCH   6   7
ATOM      7  C   UNL d   1     -41.539-123.723 -50.979  0.00  0.00     0.064 C 
BRANCH   7   8
ATOM      8  C   UNL d   1     -41.774-123.648 -50.193  0.00  0.00     0.107 A 
ATOM      9  O   UNL d   1     -41.350-123.513 -49.497  0.00  0.00    -0.301 OA
ATOM     10  C   UNL d   1     -41.895-123.492 -48.865  0.00  0.00     0.163 A 
ATOM     11  C   UNL d   1     -42.644-123.614 -49.181  0.00  0.00     0.032 A 
ATOM     12  C   UNL d   1     -42.578-123.710 -49.989  0.00  0.00     0.027 A 
BRANCH  10  13
ATOM     13  C   UNL d   1     -41.715-123.370 -48.065  0.00  0.00     0.319 C 
ATOM     14  O   UNL d   1     -41.123-122.830 -47.855  0.00  0.00    -0.257 OA
BRANCH  13  15
ATOM     15  O   UNL d   1     -42.121-123.781 -47.475  0.00  0.00    -0.294 OA
ATOM     16  C   UNL d   1     -41.938-123.663 -46.676  0.00  0.00     0.185 C 
ENDBRANCH  13  15
ENDBRANCH  10  13
ENDBRANCH   7   8
ENDBRANCH   6   7
ENDBRANCH   4   6
BRANCH   3  17
ATOM     17  C   UNL d   1     -41.782-122.426 -54.255  0.00  0.00     0.046 A 
ATOM     18  C   UNL d   1     -41.292-122.446 -54.913  0.00  0.00     0.024 A 
ATOM     19  C   UNL d   1     -41.498-122.032 -55.595  0.00  0.00     0.099 A 
ATOM     20  N   UNL d   1     -42.197-121.593 -55.623  0.00  0.00    -0.242 NA
ATOM     21  C   UNL d   1     -42.692-121.574 -54.957  0.00  0.00     0.099 A 
ATOM     22  C   UNL d   1     -42.482-121.990 -54.279  0.00  0.00     0.024 A 
ENDBRANCH   3  17
TORSDOF 6
ENDMDL
