MODEL 1
REMARK VINA RESULT:      40.5      0.000      0.000
REMARK  5 active torsions:
REMARK  status: ('A' for Active; 'I' for Inactive)
REMARK    1  A    between atoms: C_6  and  N_1 
REMARK    2  A    between atoms: C_8  and  C_3 
REMARK    3  A    between atoms: C_7  and  C_6 
REMARK    4  A    between atoms: C_9  and  C_7 
REMARK    5  A    between atoms: C_14  and  C_8 
ROOT
ATOM      1  N   UNL d   1     -51.002  24.880  33.830  0.00  0.00    -0.289 N 
ATOM      2  N   UNL d   1     -50.809  23.638  33.357  0.00  0.00    -0.227 NA
ATOM      3  C   UNL d   1     -50.434  24.360  33.526  0.00  0.00     0.148 A 
ATOM      4  C   UNL d   1     -51.728  24.482  33.850  0.00  0.00     0.083 A 
ATOM      5  C   UNL d   1     -51.612  23.718  33.560  0.00  0.00     0.099 A 
ATOM      6  C   UNL d   1     -52.488  24.712  34.096  0.00  0.00     0.019 A 
ATOM      7  C   UNL d   1     -52.241  23.188  33.513  0.00  0.00     0.021 A 
ATOM      8  C   UNL d   1     -53.113  24.182  34.048  0.00  0.00     0.002 A 
ATOM      9  C   UNL d   1     -52.990  23.420  33.757  0.00  0.00     0.002 A 
ENDROOT
BRANCH   1  10
ATOM     10  C   UNL d   1     -50.871  25.651  34.069  0.00  0.00     0.082 C 
BRANCH  10  11
ATOM     11  C   UNL d   1     -51.341  26.149  33.604  0.00  0.00     0.019 C 
BRANCH  11  12
ATOM     12  C   UNL d   1     -51.132  26.940  33.512  0.00  0.00     0.002 A 
ATOM     13  C   UNL d   1     -51.723  27.512  33.432  0.00  0.00     0.000 A 
ATOM     14  C   UNL d   1     -51.511  28.305  33.341  0.00  0.00     0.000 A 
ATOM     15  C   UNL d   1     -50.720  28.519  33.330  0.00  0.00     0.000 A 
ATOM     16  C   UNL d   1     -50.135  27.942  33.410  0.00  0.00     0.000 A 
ATOM     17  C   UNL d   1     -50.344  27.158  33.501  0.00  0.00     0.000 A 
ENDBRANCH  11  12
ENDBRANCH  10  11
ENDBRANCH   1  10
BRANCH   3  18
ATOM     18  C   UNL d   1     -49.639  24.525  33.410  0.00  0.00     0.037 C 
BRANCH  18  19
ATOM     19  C   UNL d   1     -49.063  24.017  33.720  0.00  0.00     0.003 C 
ATOM     20  C   UNL d   1     -48.277  24.133  33.531  0.00  0.00     0.000 C 
ENDBRANCH  18  19
ENDBRANCH   3  18
TORSDOF 5
ENDMDL
