MODEL 1
REMARK VINA RESULT:      -3.3      0.000      0.000
REMARK  5 active torsions:
REMARK  status: ('A' for Active; 'I' for Inactive)
REMARK    1  A    between atoms: C_12  and  C_4 
REMARK    2  A    between atoms: S_10  and  C_5 
REMARK    3  A    between atoms: C_15  and  S_10 
REMARK    4  A    between atoms: C_11  and  C_15 
REMARK       I    between atoms: N_13  and  C_11 
REMARK    5  A    between atoms: C_16  and  N_13 
ROOT
ATOM      1  N   UNL d   1      58.647  -1.204  29.631  0.00  0.00    -0.206 N 
ATOM      2  C   UNL d   1      59.300  -1.687  29.480  0.00  0.00     0.166 A 
ATOM      3  N   UNL d   1      57.809  -2.332  29.594  0.00  0.00    -0.163 NA
ATOM      4  C   UNL d   1      59.208  -2.486  29.387  0.00  0.00     0.055 A 
ATOM      5  C   UNL d   1      58.761  -0.411  29.721  0.00  0.00     0.116 A 
ATOM      6  C   UNL d   1      58.450  -2.807  29.446  0.00  0.00     0.104 A 
ATOM      7  N   UNL d   1      60.047  -1.364  29.423  0.00  0.00    -0.227 NA
ATOM      8  C   UNL d   1      59.501  -0.072  29.667  0.00  0.00     0.045 A 
ATOM      9  C   UNL d   1      60.149  -0.553  29.517  0.00  0.00     0.085 A 
ATOM     10  C   UNL d   1      58.362  -3.603  29.352  0.00  0.00     0.023 C 
ATOM     11  C   UNL d   1      60.930  -0.215  29.458  0.00  0.00     0.021 C 
ENDROOT
BRANCH   5  12
ATOM     12  S   UNL d   1      58.088   0.087  29.876  0.00  0.00    -0.062 SA
BRANCH  12  13
ATOM     13  C   UNL d   1      57.799   0.682  30.392  0.00  0.00     0.099 C 
BRANCH  13  14
ATOM     14  C   UNL d   1      57.212   0.492  30.966  0.00  0.00     0.286 C 
ATOM     15  N   UNL d   1      57.436   0.281  31.756  0.00  0.00    -0.208 NA
ATOM     16  O   UNL d   1      56.393   0.511  30.758  0.00  0.00    -0.265 OA
BRANCH  15  17
ATOM     17  C   UNL d   1      56.845   0.091  32.328  0.00  0.00     0.085 A 
ATOM     18  C   UNL d   1      56.617   0.669  32.898  0.00  0.00     0.022 A 
ATOM     19  C   UNL d   1      56.017   0.471  33.475  0.00  0.00     0.044 A 
ATOM     20  C   UNL d   1      55.664  -0.289  33.470  0.00  0.00     0.196 A 
ATOM     21  C   UNL d   1      55.893  -0.866  32.900  0.00  0.00     0.044 A 
ATOM     22  O   UNL d   1      55.073  -0.478  34.041  0.00  0.00    -0.287 OA
ATOM     23  C   UNL d   1      56.486  -0.674  32.327  0.00  0.00     0.022 A 
ENDBRANCH  15  17
ENDBRANCH  13  14
ENDBRANCH  12  13
ENDBRANCH   5  12
BRANCH   4  24
ATOM     24  C   UNL d   1      59.850  -2.962  29.239  0.00  0.00     0.004 A 
ATOM     25  C   UNL d   1      59.843  -3.466  28.611  0.00  0.00     0.000 A 
ATOM     26  C   UNL d   1      60.485  -3.942  28.463  0.00  0.00     0.000 A 
ATOM     27  C   UNL d   1      61.133  -3.914  28.942  0.00  0.00     0.000 A 
ATOM     28  C   UNL d   1      61.133  -3.394  29.584  0.00  0.00     0.000 A 
ATOM     29  C   UNL d   1      60.495  -2.931  29.719  0.00  0.00     0.000 A 
ENDBRANCH   4  24
TORSDOF 5
ENDMDL
