MODEL 1
REMARK VINA RESULT:      -4.0      0.000      0.000
REMARK  3 active torsions:
REMARK  status: ('A' for Active; 'I' for Inactive)
REMARK    1  A    between atoms: S_6  and  C_2 
REMARK    2  A    between atoms: C_9  and  S_6 
REMARK    3  A    between atoms: C_7  and  C_9 
ROOT
ATOM      1  N   UNL d   1      60.837  -6.543  36.326  0.00  0.00    -0.196 NA
ATOM      2  C   UNL d   1      60.047  -6.590  36.067  0.00  0.00     0.213 A 
ATOM      3  N   UNL d   1      60.466  -5.323  35.905  0.00  0.00    -0.123 NA
ATOM      4  N   UNL d   1      59.820  -5.838  35.808  0.00  0.00    -0.120 NA
ATOM      5  C   UNL d   1      61.090  -5.755  36.222  0.00  0.00     0.224 A 
ENDROOT
BRANCH   2   6
ATOM      6  S   UNL d   1      59.578  -7.267  36.070  0.00  0.00    -0.062 SA
BRANCH   6   7
ATOM      7  C   UNL d   1      59.880  -7.986  35.789  0.00  0.00     0.162 C 
BRANCH   7   8
ATOM      8  C   UNL d   1      59.389  -8.644  35.703  0.00  0.00     0.197 C 
ATOM      9  O   UNL d   1      59.409  -9.082  34.995  0.00  0.00    -0.647 OA
ATOM     10  O   UNL d   1      58.883  -8.865  36.315  0.00  0.00    -0.647 OA
ENDBRANCH   7   8
ENDBRANCH   6   7
ENDBRANCH   2   6
TORSDOF 3
ENDMDL
MODEL 2
REMARK VINA RESULT:      -3.9      8.542      8.941
REMARK  3 active torsions:
REMARK  status: ('A' for Active; 'I' for Inactive)
REMARK    1  A    between atoms: S_6  and  C_2 
REMARK    2  A    between atoms: C_9  and  S_6 
REMARK    3  A    between atoms: C_7  and  C_9 
ROOT
ATOM      1  N   UNL d   1      56.737  -0.009  32.174  0.00  0.00    -0.196 NA
ATOM      2  C   UNL d   1      56.266  -0.527  32.627  0.00  0.00     0.213 A 
ATOM      3  N   UNL d   1      56.719  -1.201  31.557  0.00  0.00    -0.123 NA
ATOM      4  N   UNL d   1      56.257  -1.259  32.245  0.00  0.00    -0.120 NA
ATOM      5  C   UNL d   1      57.015  -0.434  31.513  0.00  0.00     0.224 A 
ENDROOT
BRANCH   2   6
ATOM      6  S   UNL d   1      55.880  -0.337  33.330  0.00  0.00    -0.062 SA
BRANCH   6   7
ATOM      7  C   UNL d   1      55.329   0.283  33.350  0.00  0.00     0.162 C 
BRANCH   7   8
ATOM      8  C   UNL d   1      54.956   0.490  34.056  0.00  0.00     0.197 C 
ATOM      9  O   UNL d   1      54.146   0.682  34.052  0.00  0.00    -0.647 OA
ATOM     10  O   UNL d   1      55.384   0.508  34.761  0.00  0.00    -0.647 OA
ENDBRANCH   7   8
ENDBRANCH   6   7
ENDBRANCH   2   6
TORSDOF 3
ENDMDL
MODEL 3
REMARK VINA RESULT:      -3.7      8.537      8.997
REMARK  3 active torsions:
REMARK  status: ('A' for Active; 'I' for Inactive)
REMARK    1  A    between atoms: S_6  and  C_2 
REMARK    2  A    between atoms: C_9  and  S_6 
REMARK    3  A    between atoms: C_7  and  C_9 
ROOT
ATOM      1  N   UNL d   1      55.984  -0.316  32.735  0.00  0.00    -0.196 NA
ATOM      2  C   UNL d   1      56.587  -0.514  32.195  0.00  0.00     0.213 A 
ATOM      3  N   UNL d   1      56.068  -1.655  32.679  0.00  0.00    -0.123 NA
ATOM      4  N   UNL d   1      56.637  -1.338  32.163  0.00  0.00    -0.120 NA
ATOM      5  C   UNL d   1      55.667  -1.028  33.031  0.00  0.00     0.224 A 
ENDROOT
BRANCH   2   6
ATOM      6  S   UNL d   1      57.049   0.020  31.771  0.00  0.00    -0.062 SA
BRANCH   6   7
ATOM      7  C   UNL d   1      57.389  -0.202  31.048  0.00  0.00     0.162 C 
BRANCH   7   8
ATOM      8  C   UNL d   1      57.792   0.350  30.586  0.00  0.00     0.197 C 
ATOM      9  O   UNL d   1      57.427   0.663  29.906  0.00  0.00    -0.647 OA
ATOM     10  O   UNL d   1      58.553   0.590  30.797  0.00  0.00    -0.647 OA
ENDBRANCH   7   8
ENDBRANCH   6   7
ENDBRANCH   2   6
TORSDOF 3
ENDMDL
MODEL 4
REMARK VINA RESULT:      -3.6      8.307      8.664
REMARK  3 active torsions:
REMARK  status: ('A' for Active; 'I' for Inactive)
REMARK    1  A    between atoms: S_6  and  C_2 
REMARK    2  A    between atoms: C_9  and  S_6 
REMARK    3  A    between atoms: C_7  and  C_9 
ROOT
ATOM      1  N   UNL d   1      57.453   0.682  31.206  0.00  0.00    -0.196 NA
ATOM      2  C   UNL d   1      57.222  -0.083  31.445  0.00  0.00     0.213 A 
ATOM      3  N   UNL d   1      57.790  -0.177  30.230  0.00  0.00    -0.123 NA
ATOM      4  N   UNL d   1      57.431  -0.609  30.843  0.00  0.00    -0.120 NA
ATOM      5  C   UNL d   1      57.804   0.616  30.452  0.00  0.00     0.224 A 
ENDROOT
BRANCH   2   6
ATOM      6  S   UNL d   1      56.853  -0.274  32.155  0.00  0.00    -0.062 SA
BRANCH   6   7
ATOM      7  C   UNL d   1      56.306  -0.897  32.188  0.00  0.00     0.162 C 
BRANCH   7   8
ATOM      8  C   UNL d   1      55.961  -1.117  32.904  0.00  0.00     0.197 C 
ATOM      9  O   UNL d   1      55.432  -0.597  33.282  0.00  0.00    -0.647 OA
ATOM     10  O   UNL d   1      56.140  -1.847  33.244  0.00  0.00    -0.647 OA
ENDBRANCH   7   8
ENDBRANCH   6   7
ENDBRANCH   2   6
TORSDOF 3
ENDMDL
MODEL 5
REMARK VINA RESULT:      -3.5      8.514      8.893
REMARK  3 active torsions:
REMARK  status: ('A' for Active; 'I' for Inactive)
REMARK    1  A    between atoms: S_6  and  C_2 
REMARK    2  A    between atoms: C_9  and  S_6 
REMARK    3  A    between atoms: C_7  and  C_9 
ROOT
ATOM      1  N   UNL d   1      54.686   0.505  33.835  0.00  0.00    -0.196 NA
ATOM      2  C   UNL d   1      55.511   0.390  33.799  0.00  0.00     0.213 A 
ATOM      3  N   UNL d   1      55.183   0.676  35.070  0.00  0.00    -0.123 NA
ATOM      4  N   UNL d   1      55.814   0.496  34.561  0.00  0.00    -0.120 NA
ATOM      5  C   UNL d   1      54.490   0.682  34.627  0.00  0.00     0.224 A 
ENDROOT
BRANCH   2   6
ATOM      6  S   UNL d   1      55.942   0.205  33.122  0.00  0.00    -0.062 SA
BRANCH   6   7
ATOM      7  C   UNL d   1      55.987  -0.580  32.857  0.00  0.00     0.162 C 
BRANCH   7   8
ATOM      8  C   UNL d   1      56.453  -0.777  32.205  0.00  0.00     0.197 C 
ATOM      9  O   UNL d   1      56.772  -0.173  31.730  0.00  0.00    -0.647 OA
ATOM     10  O   UNL d   1      56.600  -1.569  32.026  0.00  0.00    -0.647 OA
ENDBRANCH   7   8
ENDBRANCH   6   7
ENDBRANCH   2   6
TORSDOF 3
ENDMDL
MODEL 6
REMARK VINA RESULT:      -2.8      1.103      1.556
REMARK  3 active torsions:
REMARK  status: ('A' for Active; 'I' for Inactive)
REMARK    1  A    between atoms: S_6  and  C_2 
REMARK    2  A    between atoms: C_9  and  S_6 
REMARK    3  A    between atoms: C_7  and  C_9 
ROOT
ATOM      1  N   UNL d   1      59.317  -7.200  36.169  0.00  0.00    -0.196 NA
ATOM      2  C   UNL d   1      59.881  -7.643  35.745  0.00  0.00     0.213 A 
ATOM      3  N   UNL d   1      60.386  -6.416  35.958  0.00  0.00    -0.123 NA
ATOM      4  N   UNL d   1      60.539  -7.159  35.617  0.00  0.00    -0.120 NA
ATOM      5  C   UNL d   1      59.637  -6.440  36.297  0.00  0.00     0.224 A 
ENDROOT
BRANCH   2   6
ATOM      6  S   UNL d   1      59.795  -8.425  35.501  0.00  0.00    -0.062 SA
BRANCH   6   7
ATOM      7  C   UNL d   1      59.638  -8.599  34.706  0.00  0.00     0.162 C 
BRANCH   7   8
ATOM      8  C   UNL d   1      59.528  -9.380  34.460  0.00  0.00     0.197 C 
ATOM      9  O   UNL d   1      58.886  -9.818  34.758  0.00  0.00    -0.647 OA
ATOM     10  O   UNL d   1      60.052  -9.722  33.923  0.00  0.00    -0.647 OA
ENDBRANCH   7   8
ENDBRANCH   6   7
ENDBRANCH   2   6
TORSDOF 3
ENDMDL
MODEL 7
REMARK VINA RESULT:      -2.3      2.742      3.283
REMARK  3 active torsions:
REMARK  status: ('A' for Active; 'I' for Inactive)
REMARK    1  A    between atoms: S_6  and  C_2 
REMARK    2  A    between atoms: C_9  and  S_6 
REMARK    3  A    between atoms: C_7  and  C_9 
ROOT
ATOM      1  N   UNL d   1      60.578  -9.198  33.584  0.00  0.00    -0.196 NA
ATOM      2  C   UNL d   1      59.987  -9.091  34.162  0.00  0.00     0.213 A 
ATOM      3  N   UNL d   1      59.416  -9.638  33.076  0.00  0.00    -0.123 NA
ATOM      4  N   UNL d   1      59.273  -9.363  33.847  0.00  0.00    -0.120 NA
ATOM      5  C   UNL d   1      60.216  -9.537  32.913  0.00  0.00     0.224 A 
ENDROOT
BRANCH   2   6
ATOM      6  S   UNL d   1      60.100  -8.772  34.913  0.00  0.00    -0.062 SA
BRANCH   6   7
ATOM      7  C   UNL d   1      59.604  -8.167  35.188  0.00  0.00     0.162 C 
BRANCH   7   8
ATOM      8  C   UNL d   1      59.708  -7.851  35.944  0.00  0.00     0.197 C 
ATOM      9  O   UNL d   1      59.064  -7.490  36.330  0.00  0.00    -0.647 OA
ATOM     10  O   UNL d   1      60.444  -7.892  36.313  0.00  0.00    -0.647 OA
ENDBRANCH   7   8
ENDBRANCH   6   7
ENDBRANCH   2   6
TORSDOF 3
ENDMDL
MODEL 8
REMARK VINA RESULT:      -1.9      2.535      3.022
REMARK  3 active torsions:
REMARK  status: ('A' for Active; 'I' for Inactive)
REMARK    1  A    between atoms: S_6  and  C_2 
REMARK    2  A    between atoms: C_9  and  S_6 
REMARK    3  A    between atoms: C_7  and  C_9 
ROOT
ATOM      1  N   UNL d   1      59.422  -8.131  35.247  0.00  0.00    -0.196 NA
ATOM      2  C   UNL d   1      59.875  -8.775  34.972  0.00  0.00     0.213 A 
ATOM      3  N   UNL d   1      59.968  -8.740  36.311  0.00  0.00    -0.123 NA
ATOM      4  N   UNL d   1      60.210  -9.148  35.629  0.00  0.00    -0.120 NA
ATOM      5  C   UNL d   1      59.485  -8.116  36.079  0.00  0.00     0.224 A 
ENDROOT
BRANCH   2   6
ATOM      6  S   UNL d   1      59.969  -8.996  34.184  0.00  0.00    -0.062 SA
BRANCH   6   7
ATOM      7  C   UNL d   1      60.728  -9.097  33.866  0.00  0.00     0.162 C 
BRANCH   7   8
ATOM      8  C   UNL d   1      60.840  -9.128  33.049  0.00  0.00     0.197 C 
ATOM      9  O   UNL d   1      61.133  -8.459  32.649  0.00  0.00    -0.647 OA
ATOM     10  O   UNL d   1      60.663  -9.817  32.631  0.00  0.00    -0.647 OA
ENDBRANCH   7   8
ENDBRANCH   6   7
ENDBRANCH   2   6
TORSDOF 3
ENDMDL
MODEL 9
REMARK VINA RESULT:      -1.6      4.470      5.186
REMARK  3 active torsions:
REMARK  status: ('A' for Active; 'I' for Inactive)
REMARK    1  A    between atoms: S_6  and  C_2 
REMARK    2  A    between atoms: C_9  and  S_6 
REMARK    3  A    between atoms: C_7  and  C_9 
ROOT
ATOM      1  N   UNL d   1      58.102  -9.790  31.130  0.00  0.00    -0.196 NA
ATOM      2  C   UNL d   1      58.292  -9.795  31.942  0.00  0.00     0.213 A 
ATOM      3  N   UNL d   1      56.953  -9.818  31.824  0.00  0.00    -0.123 NA
ATOM      4  N   UNL d   1      57.583  -9.812  32.367  0.00  0.00    -0.120 NA
ATOM      5  C   UNL d   1      57.270  -9.804  31.065  0.00  0.00     0.224 A 
ENDROOT
BRANCH   2   6
ATOM      6  S   UNL d   1      59.052  -9.785  32.259  0.00  0.00    -0.062 SA
BRANCH   6   7
ATOM      7  C   UNL d   1      59.167  -9.616  33.062  0.00  0.00     0.162 C 
BRANCH   7   8
ATOM      8  C   UNL d   1      59.917  -9.420  33.347  0.00  0.00     0.197 C 
ATOM      9  O   UNL d   1      59.995  -8.824  33.923  0.00  0.00    -0.647 OA
ATOM     10  O   UNL d   1      60.584  -9.813  33.062  0.00  0.00    -0.647 OA
ENDBRANCH   7   8
ENDBRANCH   6   7
ENDBRANCH   2   6
TORSDOF 3
ENDMDL
