MODEL 1
REMARK VINA RESULT:      17.3      0.000      0.000
REMARK  0 active torsions:
REMARK  status: ('A' for Active; 'I' for Inactive)
ROOT
ATOM      1  N   UNL d   1     -54.801-101.202 -37.933  0.00  0.00    -0.242 NA
ATOM      2  N   UNL d   1     -54.817-102.838 -37.902  0.00  0.00    -0.242 NA
ATOM      3  C   UNL d   1     -54.793-102.438 -38.630  0.00  0.00     0.101 A 
ATOM      4  C   UNL d   1     -54.785-101.628 -38.646  0.00  0.00     0.101 A 
ATOM      5  C   UNL d   1     -54.778-102.865 -39.323  0.00  0.00     0.043 A 
ATOM      6  C   UNL d   1     -54.762-101.221 -39.355  0.00  0.00     0.043 A 
ATOM      7  C   UNL d   1     -54.746-101.638 -40.067  0.00  0.00     0.124 A 
ATOM      8  C   UNL d   1     -54.754-102.465 -40.052  0.00  0.00     0.124 A 
ATOM      9  C   UNL d   1     -54.832-102.410 -37.195  0.00  0.00     0.099 A 
ATOM     10  C   UNL d   1     -54.824-101.600 -37.211  0.00  0.00     0.099 A 
ATOM     11  N   UNL d   1     -54.723-101.248 -40.776  0.00  0.00    -0.146 N 
ATOM     12  N   UNL d   1     -54.739-102.879 -40.731  0.00  0.00    -0.146 N 
ATOM     13  C   UNL d   1     -54.840-101.175 -36.505  0.00  0.00     0.021 A 
ATOM     14  C   UNL d   1     -54.856-102.810 -36.474  0.00  0.00     0.021 A 
ATOM     15  C   UNL d   1     -54.872-102.383 -35.761  0.00  0.00     0.002 A 
ATOM     16  C   UNL d   1     -54.864-101.573 -35.777  0.00  0.00     0.002 A 
ENDROOT
TORSDOF 0
ENDMDL
MODEL 2
REMARK VINA RESULT:      19.7      6.650      7.804
REMARK  0 active torsions:
REMARK  status: ('A' for Active; 'I' for Inactive)
ROOT
ATOM      1  N   UNL d   1     -57.113 -98.762 -45.176  0.00  0.00    -0.242 NA
ATOM      2  N   UNL d   1     -56.973 -98.762 -43.546  0.00  0.00    -0.242 NA
ATOM      3  C   UNL d   1     -57.727 -98.761 -43.897  0.00  0.00     0.101 A 
ATOM      4  C   UNL d   1     -57.796 -98.761 -44.704  0.00  0.00     0.101 A 
ATOM      5  C   UNL d   1     -58.390 -98.761 -43.424  0.00  0.00     0.043 A 
ATOM      6  C   UNL d   1     -58.531 -98.760 -45.063  0.00  0.00     0.043 A 
ATOM      7  C   UNL d   1     -59.215 -98.760 -44.600  0.00  0.00     0.124 A 
ATOM      8  C   UNL d   1     -59.144 -98.760 -43.775  0.00  0.00     0.124 A 
ATOM      9  C   UNL d   1     -56.296 -98.762 -44.020  0.00  0.00     0.099 A 
ATOM     10  C   UNL d   1     -56.366 -98.762 -44.827  0.00  0.00     0.099 A 
ATOM     11  N   UNL d   1     -59.948 -98.759 -44.941  0.00  0.00    -0.146 N 
ATOM     12  N   UNL d   1     -59.794 -98.759 -43.317  0.00  0.00    -0.146 N 
ATOM     13  C   UNL d   1     -55.690 -98.763 -45.299  0.00  0.00     0.021 A 
ATOM     14  C   UNL d   1     -55.549 -98.763 -43.669  0.00  0.00     0.021 A 
ATOM     15  C   UNL d   1     -54.866 -98.764 -44.143  0.00  0.00     0.002 A 
ATOM     16  C   UNL d   1     -54.936 -98.763 -44.950  0.00  0.00     0.002 A 
ENDROOT
TORSDOF 0
ENDMDL
