MODEL 1
REMARK VINA RESULT:      67.9      0.000      0.000
REMARK  4 active torsions:
REMARK  status: ('A' for Active; 'I' for Inactive)
REMARK    1  A    between atoms: C_2  and  C_1 
REMARK    2  A    between atoms: N_12  and  C_6 
REMARK    3  A    between atoms: C_16  and  N_12 
REMARK    4  A    between atoms: O_25  and  C_17 
ROOT
ATOM      1  C   UNL d   1      59.504  49.320  50.878  0.00  0.00     0.082 A 
ATOM      2  C   UNL d   1      59.288  49.426  51.669  0.00  0.00     0.302 A 
ATOM      3  C   UNL d   1      58.921  49.333  50.278  0.00  0.00     0.009 A 
ATOM      4  O   UNL d   1      58.494  49.545  51.875  0.00  0.00    -0.273 OA
ATOM      5  C   UNL d   1      58.130  49.452  50.489  0.00  0.00     0.025 A 
ATOM      6  C   UNL d   1      57.912  49.559  51.288  0.00  0.00     0.103 A 
ATOM      7  O   UNL d   1      59.869  49.412  52.259  0.00  0.00    -0.259 OA
ATOM      8  C   UNL d   1      57.553  49.465  49.900  0.00  0.00     0.026 A 
ATOM      9  C   UNL d   1      57.121  49.676  51.483  0.00  0.00     0.027 A 
ATOM     10  C   UNL d   1      56.763  49.584  50.107  0.00  0.00     0.094 A 
ATOM     11  C   UNL d   1      56.548  49.689  50.895  0.00  0.00     0.026 A 
ENDROOT
BRANCH   1  12
ATOM     12  C   UNL d   1      60.293  49.202  50.678  0.00  0.00     0.095 A 
ATOM     13  N   UNL d   1      60.593  48.576  50.249  0.00  0.00    -0.221 NA
ATOM     14  C   UNL d   1      61.405  48.678  50.179  0.00  0.00     0.194 A 
ATOM     15  S   UNL d   1      61.607  49.373  50.567  0.00  0.00    -0.046 SA
ATOM     16  C   UNL d   1      60.913  49.702  50.880  0.00  0.00     0.058 A 
BRANCH  14  17
ATOM     17  N   UNL d   1      61.922  48.172  49.787  0.00  0.00    -0.221 NA
BRANCH  17  18
ATOM     18  C   UNL d   1      61.767  47.360  49.783  0.00  0.00     0.084 A 
ATOM     19  C   UNL d   1      61.298  47.034  50.382  0.00  0.00     0.022 A 
ATOM     20  C   UNL d   1      61.139  46.232  50.386  0.00  0.00     0.044 A 
ATOM     21  C   UNL d   1      61.450  45.754  49.785  0.00  0.00     0.196 A 
ATOM     22  C   UNL d   1      61.918  46.084  49.188  0.00  0.00     0.044 A 
ATOM     23  O   UNL d   1      61.290  44.943  49.787  0.00  0.00    -0.287 OA
ATOM     24  C   UNL d   1      62.071  46.890  49.194  0.00  0.00     0.022 A 
ENDBRANCH  17  18
ENDBRANCH  14  17
ENDBRANCH   1  12
BRANCH  10  25
ATOM     25  O   UNL d   1      56.189  49.596  49.519  0.00  0.00    -0.328 OA
ATOM     26  C   UNL d   1      56.237  49.073  48.886  0.00  0.00     0.181 C 
ENDBRANCH  10  25
TORSDOF 4
ENDMDL
