MODEL 1
REMARK VINA RESULT:      -8.7      0.000      0.000
REMARK  1 active torsions:
REMARK  status: ('A' for Active; 'I' for Inactive)
REMARK    1  A    between atoms: C_6  and  C_1 
ROOT
ATOM      1  C   UNL d   1      52.717  32.711  53.351  0.00  0.00     0.085 A 
ATOM      2  C   UNL d   1      52.976  31.931  53.246  0.00  0.00     0.137 A 
ATOM      3  C   UNL d   1      53.227  33.091  53.849  0.00  0.00     0.013 A 
ATOM      4  C   UNL d   1      53.806  32.549  54.056  0.00  0.00     0.031 A 
ATOM      5  S   UNL d   1      53.639  31.835  53.676  0.00  0.00    -0.066 SA
ATOM      6  C   UNL d   1      53.249  33.861  54.147  0.00  0.00     0.001 A 
ATOM      7  C   UNL d   1      54.401  32.765  54.553  0.00  0.00     0.006 A 
ATOM      8  N   UNL d   1      52.604  31.321  52.761  0.00  0.00    -0.141 N 
ATOM      9  C   UNL d   1      53.837  34.089  54.643  0.00  0.00     0.000 A 
ATOM     10  C   UNL d   1      54.436  33.516  54.853  0.00  0.00     0.001 A 
ATOM     11  C   UNL d   1      55.079  33.746  55.389  0.00  0.00     0.000 C 
ENDROOT
BRANCH   1  12
ATOM     12  C   UNL d   1      52.029  33.036  52.988  0.00  0.00     0.299 C 
ATOM     13  O   UNL d   1      52.083  33.393  52.252  0.00  0.00    -0.264 OA
ATOM     14  N   UNL d   1      51.275  32.998  53.377  0.00  0.00    -0.102 N 
ENDBRANCH   1  12
TORSDOF 1
ENDMDL
MODEL 2
REMARK VINA RESULT:      -8.6      1.526      2.499
REMARK  1 active torsions:
REMARK  status: ('A' for Active; 'I' for Inactive)
REMARK    1  A    between atoms: C_6  and  C_1 
ROOT
ATOM      1  C   UNL d   1      53.599  32.692  53.860  0.00  0.00     0.085 A 
ATOM      2  C   UNL d   1      53.427  31.941  53.555  0.00  0.00     0.137 A 
ATOM      3  C   UNL d   1      53.053  33.219  53.582  0.00  0.00     0.013 A 
ATOM      4  C   UNL d   1      52.539  32.797  53.102  0.00  0.00     0.031 A 
ATOM      5  S   UNL d   1      52.782  32.008  53.094  0.00  0.00    -0.066 SA
ATOM      6  C   UNL d   1      52.948  34.030  53.697  0.00  0.00     0.001 A 
ATOM      7  C   UNL d   1      51.927  33.173  52.739  0.00  0.00     0.006 A 
ATOM      8  N   UNL d   1      53.861  31.209  53.703  0.00  0.00    -0.141 N 
ATOM      9  C   UNL d   1      52.342  34.416  53.340  0.00  0.00     0.000 A 
ATOM     10  C   UNL d   1      51.812  33.968  52.842  0.00  0.00     0.001 A 
ATOM     11  C   UNL d   1      51.150  34.370  52.449  0.00  0.00     0.000 C 
ENDROOT
BRANCH   1  12
ATOM     12  C   UNL d   1      54.244  32.859  54.377  0.00  0.00     0.299 C 
ATOM     13  O   UNL d   1      54.971  33.078  54.068  0.00  0.00    -0.264 OA
ATOM     14  N   UNL d   1      54.150  32.804  55.220  0.00  0.00    -0.102 N 
ENDBRANCH   1  12
TORSDOF 1
ENDMDL
MODEL 3
REMARK VINA RESULT:      -8.6      1.766      2.920
REMARK  1 active torsions:
REMARK  status: ('A' for Active; 'I' for Inactive)
REMARK    1  A    between atoms: C_6  and  C_1 
ROOT
ATOM      1  C   UNL d   1      53.763  32.800  53.982  0.00  0.00     0.085 A 
ATOM      2  C   UNL d   1      53.221  33.313  53.621  0.00  0.00     0.137 A 
ATOM      3  C   UNL d   1      53.596  32.042  53.758  0.00  0.00     0.013 A 
ATOM      4  C   UNL d   1      52.949  32.080  53.256  0.00  0.00     0.031 A 
ATOM      5  S   UNL d   1      52.727  32.871  53.180  0.00  0.00    -0.066 SA
ATOM      6  C   UNL d   1      53.943  31.315  53.940  0.00  0.00     0.001 A 
ATOM      7  C   UNL d   1      52.647  31.405  52.937  0.00  0.00     0.006 A 
ATOM      8  N   UNL d   1      53.187  34.172  53.700  0.00  0.00    -0.141 N 
ATOM      9  C   UNL d   1      53.651  30.636  53.628  0.00  0.00     0.000 A 
ATOM     10  C   UNL d   1      52.976  30.686  53.106  0.00  0.00     0.001 A 
ATOM     11  C   UNL d   1      52.647  29.960  52.760  0.00  0.00     0.000 C 
ENDROOT
BRANCH   1  12
ATOM     12  C   UNL d   1      54.382  33.049  54.497  0.00  0.00     0.299 C 
ATOM     13  O   UNL d   1      55.122  33.231  54.193  0.00  0.00    -0.264 OA
ATOM     14  N   UNL d   1      54.250  33.115  55.334  0.00  0.00    -0.102 N 
ENDBRANCH   1  12
TORSDOF 1
ENDMDL
