MODEL 1
REMARK VINA RESULT:      16.8      0.000      0.000
REMARK  3 active torsions:
REMARK  status: ('A' for Active; 'I' for Inactive)
REMARK    1  A    between atoms: S_3  and  N_1 
REMARK    2  A    between atoms: C_7  and  C_4 
REMARK    3  A    between atoms: C_11  and  C_5 
ROOT
ATOM      1  N   UNL d   1      45.922 -17.955  42.978  0.00  0.00    -0.155 N 
ATOM      2  N   UNL d   1      45.771 -17.149  43.008  0.00  0.00    -0.156 NA
ATOM      3  C   UNL d   1      46.125 -18.219  43.745  0.00  0.00     0.102 A 
ATOM      4  C   UNL d   1      45.881 -16.903  43.802  0.00  0.00     0.104 A 
ATOM      5  C   UNL d   1      46.096 -17.565  44.240  0.00  0.00     0.041 A 
ENDROOT
BRANCH   4   6
ATOM      6  C   UNL d   1      45.788 -16.129  44.095  0.00  0.00     0.019 A 
ATOM      7  C   UNL d   1      46.346 -15.541  43.893  0.00  0.00     0.002 A 
ATOM      8  C   UNL d   1      46.254 -14.764  44.187  0.00  0.00     0.000 A 
ATOM      9  C   UNL d   1      45.612 -14.577  44.677  0.00  0.00     0.000 A 
ATOM     10  C   UNL d   1      45.074 -15.172  44.864  0.00  0.00     0.000 A 
ATOM     11  C   UNL d   1      45.530 -13.835  44.953  0.00  0.00     0.000 C 
ATOM     12  C   UNL d   1      45.146 -15.942  44.585  0.00  0.00     0.002 A 
ENDBRANCH   4   6
BRANCH   1  13
ATOM     13  S   UNL d   1      45.874 -18.427  42.275  0.00  0.00     0.266 S 
ATOM     14  O   UNL d   1      45.860 -18.879  41.572  0.00  0.00    -0.203 OA
ATOM     15  O   UNL d   1      45.159 -18.740  42.524  0.00  0.00    -0.203 OA
ATOM     16  C   UNL d   1      46.627 -18.089  42.030  0.00  0.00     0.165 C 
ENDBRANCH   1  13
BRANCH   3  17
ATOM     17  C   UNL d   1      46.319 -19.007  43.951  0.00  0.00     0.048 A 
ATOM     18  S   UNL d   1      46.376 -19.299  44.731  0.00  0.00    -0.085 SA
ATOM     19  C   UNL d   1      46.579 -20.099  44.657  0.00  0.00     0.035 A 
ATOM     20  C   UNL d   1      46.647 -20.303  43.882  0.00  0.00     0.007 A 
ATOM     21  C   UNL d   1      46.486 -19.630  43.437  0.00  0.00     0.009 A 
ENDBRANCH   3  17
TORSDOF 3
ENDMDL
