MODEL 1
REMARK VINA RESULT:      -6.3      0.000      0.000
REMARK  5 active torsions:
REMARK  status: ('A' for Active; 'I' for Inactive)
REMARK    1  A    between atoms: C_3  and  S_1 
REMARK    2  A    between atoms: N_6  and  S_1 
REMARK    3  A    between atoms: S_2  and  N_4 
REMARK    4  A    between atoms: C_10  and  S_2 
REMARK    5  A    between atoms: N_4  and  C_5 
ROOT
ATOM      1  C   UNL d   1     -46.612  13.508  22.724  0.00  0.00     0.105 A 
ATOM      2  C   UNL d   1     -47.820  14.149  22.326  0.00  0.00     0.076 A 
ATOM      3  C   UNL d   1     -47.398  13.462  22.452  0.00  0.00     0.031 A 
ATOM      4  C   UNL d   1     -46.275  14.246  22.863  0.00  0.00     0.012 A 
ATOM      5  C   UNL d   1     -47.482  14.889  22.465  0.00  0.00     0.017 A 
ATOM      6  C   UNL d   1     -46.710  14.944  22.733  0.00  0.00     0.002 A 
ATOM      7  C   UNL d   1     -47.917  15.587  22.335  0.00  0.00     0.002 C 
ATOM      8  C   UNL d   1     -45.490  14.293  23.135  0.00  0.00     0.001 C 
ENDROOT
BRANCH   2   9
ATOM      9  N   UNL d   1     -48.599  14.075  22.055  0.00  0.00    -0.229 N 
ATOM     10  C   UNL d   1     -48.859  14.562  21.462  0.00  0.00     0.111 C 
BRANCH   9  11
ATOM     11  S   UNL d   1     -49.090  13.517  22.386  0.00  0.00     0.271 S 
ATOM     12  O   UNL d   1     -48.998  13.041  21.723  0.00  0.00    -0.200 OA
ATOM     13  O   UNL d   1     -49.194  13.986  23.065  0.00  0.00    -0.200 OA
BRANCH  11  14
ATOM     14  C   UNL d   1     -49.594  12.937  22.722  0.00  0.00     0.104 A 
ATOM     15  C   UNL d   1     -50.147  13.152  23.295  0.00  0.00     0.013 A 
ATOM     16  C   UNL d   1     -50.634  12.586  23.618  0.00  0.00     0.001 A 
ATOM     17  C   UNL d   1     -50.565  11.799  23.362  0.00  0.00     0.000 A 
ATOM     18  C   UNL d   1     -50.026  11.590  22.802  0.00  0.00     0.001 A 
ATOM     19  C   UNL d   1     -51.063  11.208  23.688  0.00  0.00     0.000 C 
ATOM     20  C   UNL d   1     -49.530  12.154  22.471  0.00  0.00     0.013 A 
ENDBRANCH  11  14
ENDBRANCH   9  11
ENDBRANCH   2   9
BRANCH   1  21
ATOM     21  S   UNL d   1     -46.167  12.822  22.858  0.00  0.00     0.271 S 
ATOM     22  O   UNL d   1     -45.898  12.830  22.063  0.00  0.00    -0.200 OA
ATOM     23  O   UNL d   1     -46.434  12.810  23.655  0.00  0.00    -0.200 OA
BRANCH  21  24
ATOM     24  N   UNL d   1     -45.723  12.136  22.995  0.00  0.00    -0.229 N 
ATOM     25  C   UNL d   1     -46.069  11.483  23.350  0.00  0.00     0.092 A 
ATOM     26  C   UNL d   1     -45.635  10.787  23.494  0.00  0.00     0.020 A 
ATOM     27  C   UNL d   1     -44.846  10.758  23.274  0.00  0.00     0.003 A 
ATOM     28  C   UNL d   1     -44.499  11.418  22.915  0.00  0.00     0.020 A 
ATOM     29  C   UNL d   1     -44.409  10.088  23.407  0.00  0.00     0.000 C 
ATOM     30  C   UNL d   1     -44.930  12.084  22.782  0.00  0.00     0.092 A 
ENDBRANCH  21  24
ENDBRANCH   1  21
TORSDOF 5
ENDMDL
MODEL 2
REMARK VINA RESULT:      -3.6      6.731      9.219
REMARK  5 active torsions:
REMARK  status: ('A' for Active; 'I' for Inactive)
REMARK    1  A    between atoms: C_3  and  S_1 
REMARK    2  A    between atoms: N_6  and  S_1 
REMARK    3  A    between atoms: S_2  and  N_4 
REMARK    4  A    between atoms: C_10  and  S_2 
REMARK    5  A    between atoms: N_4  and  C_5 
ROOT
ATOM      1  C   UNL d   1     -40.125  14.791  20.756  0.00  0.00     0.105 A 
ATOM      2  C   UNL d   1     -39.051  15.139  19.887  0.00  0.00     0.076 A 
ATOM      3  C   UNL d   1     -39.769  14.768  20.003  0.00  0.00     0.031 A 
ATOM      4  C   UNL d   1     -39.746  15.187  21.370  0.00  0.00     0.012 A 
ATOM      5  C   UNL d   1     -38.672  15.536  20.503  0.00  0.00     0.017 A 
ATOM      6  C   UNL d   1     -39.015  15.564  21.247  0.00  0.00     0.002 A 
ATOM      7  C   UNL d   1     -37.940  15.914  20.380  0.00  0.00     0.002 C 
ATOM      8  C   UNL d   1     -40.101  15.210  22.123  0.00  0.00     0.001 C 
ENDROOT
BRANCH   2   9
ATOM      9  N   UNL d   1     -38.719  15.101  19.129  0.00  0.00    -0.229 N 
ATOM     10  C   UNL d   1     -38.539  15.790  18.742  0.00  0.00     0.111 C 
BRANCH   9  11
ATOM     11  S   UNL d   1     -38.579  14.377  18.786  0.00  0.00     0.271 S 
ATOM     12  O   UNL d   1     -39.160  14.530  18.226  0.00  0.00    -0.200 OA
ATOM     13  O   UNL d   1     -37.988  14.207  19.346  0.00  0.00    -0.200 OA
BRANCH  11  14
ATOM     14  C   UNL d   1     -38.440  13.632  18.428  0.00  0.00     0.104 A 
ATOM     15  C   UNL d   1     -38.668  13.500  17.646  0.00  0.00     0.013 A 
ATOM     16  C   UNL d   1     -38.531  12.775  17.303  0.00  0.00     0.001 A 
ATOM     17  C   UNL d   1     -38.162  12.179  17.749  0.00  0.00     0.000 A 
ATOM     18  C   UNL d   1     -37.940  12.309  18.511  0.00  0.00     0.001 A 
ATOM     19  C   UNL d   1     -38.017  11.429  17.405  0.00  0.00     0.000 C 
ATOM     20  C   UNL d   1     -38.074  13.036  18.866  0.00  0.00     0.013 A 
ENDBRANCH  11  14
ENDBRANCH   9  11
ENDBRANCH   2   9
BRANCH   1  21
ATOM     21  S   UNL d   1     -40.853  14.420  20.893  0.00  0.00     0.271 S 
ATOM     22  O   UNL d   1     -41.259  15.073  20.560  0.00  0.00    -0.200 OA
ATOM     23  O   UNL d   1     -40.449  13.763  21.229  0.00  0.00    -0.200 OA
BRANCH  21  24
ATOM     24  N   UNL d   1     -41.579  14.046  21.032  0.00  0.00    -0.229 N 
ATOM     25  C   UNL d   1     -41.611  13.237  21.163  0.00  0.00     0.092 A 
ATOM     26  C   UNL d   1     -42.334  12.849  21.304  0.00  0.00     0.020 A 
ATOM     27  C   UNL d   1     -43.026  13.287  21.312  0.00  0.00     0.003 A 
ATOM     28  C   UNL d   1     -42.992  14.104  21.179  0.00  0.00     0.020 A 
ATOM     29  C   UNL d   1     -43.738  12.924  21.447  0.00  0.00     0.000 C 
ATOM     30  C   UNL d   1     -42.286  14.466  21.045  0.00  0.00     0.092 A 
ENDBRANCH  21  24
ENDBRANCH   1  21
TORSDOF 5
ENDMDL
