MODEL 1
REMARK VINA RESULT:      -5.7      0.000      0.000
REMARK  6 active torsions:
REMARK  status: ('A' for Active; 'I' for Inactive)
REMARK    1  A    between atoms: S_6  and  C_1 
REMARK    2  A    between atoms: C_7  and  S_6 
REMARK    3  A    between atoms: C_8  and  C_7 
REMARK    4  A    between atoms: O_14  and  C_9 
REMARK    5  A    between atoms: C_17  and  O_14 
REMARK    6  A    between atoms: C_18  and  C_17 
ROOT
ATOM      1  C   UNL d   1     -41.123-123.145 -50.884  0.00  0.00     0.038 C 
ENDROOT
BRANCH   1   2
ATOM      2  S   UNL d   1     -41.791-122.925 -50.452  0.00  0.00    -0.048 SA
BRANCH   2   3
ATOM      3  C   UNL d   1     -41.834-123.091 -49.645  0.00  0.00     0.194 A 
ATOM      4  N   UNL d   1     -41.203-123.228 -49.136  0.00  0.00    -0.220 NA
ATOM      5  C   UNL d   1     -41.521-123.373 -48.369  0.00  0.00     0.101 A 
ATOM      6  C   UNL d   1     -41.147-123.540 -47.653  0.00  0.00     0.021 A 
ATOM      7  C   UNL d   1     -42.340-123.325 -48.402  0.00  0.00     0.101 A 
ATOM      8  C   UNL d   1     -41.593-123.655 -46.997  0.00  0.00     0.002 A 
ATOM      9  C   UNL d   1     -42.412-123.608 -47.031  0.00  0.00     0.002 A 
ATOM     10  C   UNL d   1     -42.788-123.445 -47.721  0.00  0.00     0.021 A 
ATOM     11  N   UNL d   1     -42.543-123.151 -49.191  0.00  0.00    -0.220 NA
ENDBRANCH   2   3
ENDBRANCH   1   2
BRANCH   1  12
ATOM     12  C   UNL d   1     -41.128-123.013 -51.699  0.00  0.00     0.007 A 
ATOM     13  C   UNL d   1     -41.123-123.671 -52.197  0.00  0.00     0.003 A 
ATOM     14  C   UNL d   1     -41.128-123.569 -53.015  0.00  0.00     0.025 A 
ATOM     15  C   UNL d   1     -41.139-122.808 -53.336  0.00  0.00     0.100 A 
ATOM     16  C   UNL d   1     -41.144-122.180 -52.842  0.00  0.00     0.025 A 
ATOM     17  C   UNL d   1     -41.139-122.282 -52.023  0.00  0.00     0.003 A 
BRANCH  15  18
ATOM     18  O   UNL d   1     -41.144-122.706 -54.155  0.00  0.00    -0.305 OA
BRANCH  18  19
ATOM     19  C   UNL d   1     -41.833-122.457 -54.535  0.00  0.00     0.123 C 
BRANCH  19  20
ATOM     20  C   UNL d   1     -41.790-122.119 -55.286  0.00  0.00     0.027 C 
ATOM     21  C   UNL d   1     -42.485-121.885 -55.674  0.00  0.00     0.002 C 
ENDBRANCH  19  20
ENDBRANCH  18  19
ENDBRANCH  15  18
ENDBRANCH   1  12
TORSDOF 6
ENDMDL
MODEL 2
REMARK VINA RESULT:      -5.0      1.990      5.653
REMARK  6 active torsions:
REMARK  status: ('A' for Active; 'I' for Inactive)
REMARK    1  A    between atoms: S_6  and  C_1 
REMARK    2  A    between atoms: C_7  and  S_6 
REMARK    3  A    between atoms: C_8  and  C_7 
REMARK    4  A    between atoms: O_14  and  C_9 
REMARK    5  A    between atoms: C_17  and  O_14 
REMARK    6  A    between atoms: C_18  and  C_17 
ROOT
ATOM      1  C   UNL d   1     -41.924-122.704 -51.706  0.00  0.00     0.038 C 
ENDROOT
BRANCH   1   2
ATOM      2  S   UNL d   1     -41.317-122.628 -52.260  0.00  0.00    -0.048 SA
BRANCH   2   3
ATOM      3  C   UNL d   1     -41.497-122.495 -53.054  0.00  0.00     0.194 A 
ATOM      4  N   UNL d   1     -41.166-122.874 -53.705  0.00  0.00    -0.220 NA
ATOM      5  C   UNL d   1     -41.525-122.554 -54.397  0.00  0.00     0.101 A 
ATOM      6  C   UNL d   1     -41.406-122.726 -55.194  0.00  0.00     0.021 A 
ATOM      7  C   UNL d   1     -42.073-121.983 -54.177  0.00  0.00     0.101 A 
ATOM      8  C   UNL d   1     -41.831-122.330 -55.746  0.00  0.00     0.002 A 
ATOM      9  C   UNL d   1     -42.379-121.759 -55.527  0.00  0.00     0.002 A 
ATOM     10  C   UNL d   1     -42.504-121.583 -54.755  0.00  0.00     0.021 A 
ATOM     11  N   UNL d   1     -42.062-121.940 -53.346  0.00  0.00    -0.220 NA
ENDBRANCH   2   3
ENDBRANCH   1   2
BRANCH   1  12
ATOM     12  C   UNL d   1     -41.719-122.920 -50.936  0.00  0.00     0.007 A 
ATOM     13  C   UNL d   1     -41.853-122.372 -50.333  0.00  0.00     0.003 A 
ATOM     14  C   UNL d   1     -41.658-122.560 -49.554  0.00  0.00     0.025 A 
ATOM     15  C   UNL d   1     -41.330-123.297 -49.377  0.00  0.00     0.100 A 
ATOM     16  C   UNL d   1     -41.206-123.818 -49.971  0.00  0.00     0.025 A 
ATOM     17  C   UNL d   1     -41.401-123.629 -50.751  0.00  0.00     0.003 A 
BRANCH  15  18
ATOM     18  O   UNL d   1     -41.135-123.485 -48.598  0.00  0.00    -0.305 OA
BRANCH  18  19
ATOM     19  C   UNL d   1     -41.697-123.397 -48.000  0.00  0.00     0.123 C 
BRANCH  19  20
ATOM     20  C   UNL d   1     -41.510-123.608 -47.225  0.00  0.00     0.027 C 
ATOM     21  C   UNL d   1     -42.116-123.778 -46.685  0.00  0.00     0.002 C 
ENDBRANCH  19  20
ENDBRANCH  18  19
ENDBRANCH  15  18
ENDBRANCH   1  12
TORSDOF 6
ENDMDL
