MODEL 1
REMARK VINA RESULT:      -5.1      0.000      0.000
REMARK  4 active torsions:
REMARK  status: ('A' for Active; 'I' for Inactive)
REMARK    1  A    between atoms: N_4  and  S_1 
REMARK    2  A    between atoms: C_5  and  S_1 
REMARK    3  A    between atoms: C_3  and  C_9 
REMARK    4  A    between atoms: C_14  and  N_4 
ROOT
ATOM      1  S   UNL d   1     -42.139-122.689 -50.353  0.00  0.00     0.285 S 
ATOM      2  O   UNL d   1     -42.824-122.252 -50.484  0.00  0.00    -0.198 OA
ATOM      3  O   UNL d   1     -41.423-123.094 -50.428  0.00  0.00    -0.198 OA
ENDROOT
BRANCH   1   4
ATOM      4  N   UNL d   1     -41.616-122.845 -50.969  0.00  0.00    -0.158 NA
BRANCH   4   5
ATOM      5  C   UNL d   1     -41.514-122.289 -51.572  0.00  0.00     0.094 A 
ATOM      6  C   UNL d   1     -41.700-122.484 -52.354  0.00  0.00     0.021 A 
ATOM      7  C   UNL d   1     -41.596-121.929 -52.948  0.00  0.00     0.020 A 
ATOM      8  C   UNL d   1     -41.306-121.172 -52.769  0.00  0.00     0.002 A 
ATOM      9  C   UNL d   1     -41.123-120.979 -51.998  0.00  0.00     0.002 A 
ATOM     10  C   UNL d   1     -41.224-121.533 -51.392  0.00  0.00     0.020 A 
BRANCH   7  11
ATOM     11  C   UNL d   1     -41.782-122.123 -53.730  0.00  0.00     0.088 A 
ATOM     12  N   UNL d   1     -42.490-121.475 -54.788  0.00  0.00    -0.238 NA
ATOM     13  C   UNL d   1     -42.343-122.131 -55.289  0.00  0.00     0.111 A 
ATOM     14  C   UNL d   1     -42.624-122.130 -56.063  0.00  0.00     0.028 C 
ATOM     15  S   UNL d   1     -41.915-122.783 -55.013  0.00  0.00    -0.066 SA
ATOM     16  C   UNL d   1     -41.635-122.775 -54.228  0.00  0.00     0.056 A 
ENDBRANCH   7  11
ENDBRANCH   4   5
ENDBRANCH   1   4
BRANCH   1  17
ATOM     17  C   UNL d   1     -41.979-122.972 -49.594  0.00  0.00     0.105 A 
ATOM     18  C   UNL d   1     -42.473-122.761 -48.968  0.00  0.00     0.013 A 
ATOM     19  C   UNL d   1     -42.309-123.048 -48.203  0.00  0.00     0.001 A 
ATOM     20  C   UNL d   1     -42.808-122.834 -47.578  0.00  0.00     0.000 A 
ATOM     21  C   UNL d   1     -41.660-123.536 -48.074  0.00  0.00     0.000 A 
ATOM     22  C   UNL d   1     -42.645-123.119 -46.821  0.00  0.00     0.000 A 
ATOM     23  C   UNL d   1     -41.994-123.609 -46.689  0.00  0.00     0.000 A 
ATOM     24  C   UNL d   1     -41.503-123.817 -47.313  0.00  0.00     0.000 A 
ATOM     25  C   UNL d   1     -41.172-123.741 -48.704  0.00  0.00     0.001 A 
ATOM     26  C   UNL d   1     -41.328-123.462 -49.462  0.00  0.00     0.013 A 
ENDBRANCH   1  17
TORSDOF 4
ENDMDL
MODEL 2
REMARK VINA RESULT:      -3.1      1.385      5.643
REMARK  4 active torsions:
REMARK  status: ('A' for Active; 'I' for Inactive)
REMARK    1  A    between atoms: N_4  and  S_1 
REMARK    2  A    between atoms: C_5  and  S_1 
REMARK    3  A    between atoms: C_3  and  C_9 
REMARK    4  A    between atoms: C_14  and  N_4 
ROOT
ATOM      1  S   UNL d   1     -41.587-122.067 -52.513  0.00  0.00     0.285 S 
ATOM      2  O   UNL d   1     -41.123-121.409 -52.347  0.00  0.00    -0.198 OA
ATOM      3  O   UNL d   1     -42.067-122.738 -52.469  0.00  0.00    -0.198 OA
ENDROOT
BRANCH   1   4
ATOM      4  N   UNL d   1     -41.920-122.510 -51.905  0.00  0.00    -0.158 NA
BRANCH   4   5
ATOM      5  C   UNL d   1     -41.781-122.297 -51.118  0.00  0.00     0.094 A 
ATOM      6  C   UNL d   1     -42.159-122.703 -50.504  0.00  0.00     0.021 A 
ATOM      7  C   UNL d   1     -42.017-122.488 -49.726  0.00  0.00     0.020 A 
ATOM      8  C   UNL d   1     -41.497-121.866 -49.551  0.00  0.00     0.002 A 
ATOM      9  C   UNL d   1     -41.123-121.465 -50.155  0.00  0.00     0.002 A 
ATOM     10  C   UNL d   1     -41.260-121.676 -50.943  0.00  0.00     0.020 A 
BRANCH   7  11
ATOM     11  C   UNL d   1     -42.395-122.893 -49.112  0.00  0.00     0.088 A 
ATOM     12  N   UNL d   1     -42.306-122.871 -47.685  0.00  0.00    -0.238 NA
ATOM     13  C   UNL d   1     -42.898-123.462 -47.639  0.00  0.00     0.111 A 
ATOM     14  C   UNL d   1     -43.144-123.742 -46.905  0.00  0.00     0.028 C 
ATOM     15  S   UNL d   1     -43.239-123.771 -48.327  0.00  0.00    -0.066 SA
ATOM     16  C   UNL d   1     -42.983-123.481 -49.066  0.00  0.00     0.056 A 
ENDBRANCH   7  11
ENDBRANCH   4   5
ENDBRANCH   1   4
BRANCH   1  17
ATOM     17  C   UNL d   1     -41.718-122.282 -53.299  0.00  0.00     0.105 A 
ATOM     18  C   UNL d   1     -42.135-121.774 -53.797  0.00  0.00     0.013 A 
ATOM     19  C   UNL d   1     -42.266-121.993 -54.590  0.00  0.00     0.001 A 
ATOM     20  C   UNL d   1     -42.685-121.479 -55.086  0.00  0.00     0.000 A 
ATOM     21  C   UNL d   1     -41.981-122.711 -54.873  0.00  0.00     0.000 A 
ATOM     22  C   UNL d   1     -42.814-121.698 -55.871  0.00  0.00     0.000 A 
ATOM     23  C   UNL d   1     -42.528-122.418 -56.157  0.00  0.00     0.000 A 
ATOM     24  C   UNL d   1     -42.113-122.922 -55.661  0.00  0.00     0.000 A 
ATOM     25  C   UNL d   1     -41.565-123.212 -54.370  0.00  0.00     0.001 A 
ATOM     26  C   UNL d   1     -41.433-123.002 -53.586  0.00  0.00     0.013 A 
ENDBRANCH   1  17
TORSDOF 4
ENDMDL
