MODEL 1
REMARK VINA RESULT:      -6.0      0.000      0.000
REMARK  3 active torsions:
REMARK  status: ('A' for Active; 'I' for Inactive)
REMARK    1  A    between atoms: N_9  and  C_3 
REMARK    2  A    between atoms: C_14  and  C_5 
REMARK       I    between atoms: C_10  and  N_11 
REMARK    3  A    between atoms: C_13  and  C_10 
ROOT
ATOM      1  N   UNL d   1     -39.347  14.813  19.070  0.00  0.00    -0.196 N 
ATOM      2  C   UNL d   1     -39.716  14.816  19.802  0.00  0.00     0.167 A 
ATOM      3  C   UNL d   1     -39.707  15.173  18.421  0.00  0.00     0.152 A 
ATOM      4  N   UNL d   1     -38.633  14.416  19.146  0.00  0.00    -0.163 NA
ATOM      5  C   UNL d   1     -39.233  14.422  20.335  0.00  0.00     0.055 A 
ATOM      6  C   UNL d   1     -38.570  14.177  19.932  0.00  0.00     0.104 A 
ATOM      7  N   UNL d   1     -40.452  15.179  19.896  0.00  0.00    -0.227 NA
ATOM      8  C   UNL d   1     -40.449  15.540  18.511  0.00  0.00     0.057 A 
ATOM      9  C   UNL d   1     -40.818  15.543  19.243  0.00  0.00     0.086 A 
ATOM     10  C   UNL d   1     -37.940  13.757  20.268  0.00  0.00     0.023 C 
ATOM     11  C   UNL d   1     -41.566  15.916  19.326  0.00  0.00     0.021 C 
ENDROOT
BRANCH   3  12
ATOM     12  N   UNL d   1     -39.337  15.170  17.688  0.00  0.00    -0.286 N 
ATOM     13  C   UNL d   1     -39.234  14.462  17.271  0.00  0.00     0.101 A 
ATOM     14  C   UNL d   1     -38.864  14.463  16.540  0.00  0.00     0.102 A 
ATOM     15  N   UNL d   1     -38.590  15.177  16.213  0.00  0.00    -0.267 N 
ATOM     16  C   UNL d   1     -38.213  15.187  15.469  0.00  0.00     0.288 C 
ATOM     17  C   UNL d   1     -38.693  15.875  16.624  0.00  0.00     0.102 A 
ATOM     18  O   UNL d   1     -37.940  15.883  15.137  0.00  0.00    -0.264 OA
ATOM     19  C   UNL d   1     -39.067  15.874  17.365  0.00  0.00     0.101 A 
BRANCH  16  20
ATOM     20  C   UNL d   1     -38.113  14.471  15.056  0.00  0.00     0.156 A 
ATOM     21  O   UNL d   1     -38.010  13.699  15.311  0.00  0.00    -0.300 OA
ATOM     22  C   UNL d   1     -37.941  13.225  14.641  0.00  0.00     0.123 A 
ATOM     23  C   UNL d   1     -37.998  13.689  13.985  0.00  0.00     0.029 A 
ATOM     24  C   UNL d   1     -38.107  14.475  14.236  0.00  0.00     0.032 A 
ENDBRANCH  16  20
ENDBRANCH   3  12
BRANCH   5  25
ATOM     25  C   UNL d   1     -39.313  14.253  21.138  0.00  0.00     0.004 A 
ATOM     26  C   UNL d   1     -38.939  14.742  21.701  0.00  0.00     0.001 A 
ATOM     27  C   UNL d   1     -39.019  14.574  22.504  0.00  0.00     0.011 A 
ATOM     28  C   UNL d   1     -39.467  13.927  22.752  0.00  0.00     0.058 A 
ATOM     29  C   UNL d   1     -39.840  13.440  22.194  0.00  0.00     0.011 A 
ATOM     30 CL   UNL d   1     -39.544  13.764  23.559  0.00  0.00    -0.082 Cl
ATOM     31  C   UNL d   1     -39.760  13.607  21.390  0.00  0.00     0.001 A 
ENDBRANCH   5  25
TORSDOF 3
ENDMDL
MODEL 2
REMARK VINA RESULT:      -4.4      2.754      5.610
REMARK  3 active torsions:
REMARK  status: ('A' for Active; 'I' for Inactive)
REMARK    1  A    between atoms: N_9  and  C_3 
REMARK    2  A    between atoms: C_14  and  C_5 
REMARK       I    between atoms: C_10  and  N_11 
REMARK    3  A    between atoms: C_13  and  C_10 
ROOT
ATOM      1  N   UNL d   1     -39.631  14.426  18.120  0.00  0.00    -0.196 N 
ATOM      2  C   UNL d   1     -39.637  14.605  17.320  0.00  0.00     0.167 A 
ATOM      3  C   UNL d   1     -40.208  14.739  18.621  0.00  0.00     0.152 A 
ATOM      4  N   UNL d   1     -38.996  13.929  18.266  0.00  0.00    -0.163 NA
ATOM      5  C   UNL d   1     -39.005  14.219  16.967  0.00  0.00     0.055 A 
ATOM      6  C   UNL d   1     -38.614  13.806  17.547  0.00  0.00     0.104 A 
ATOM      7  N   UNL d   1     -40.220  15.100  17.007  0.00  0.00    -0.227 NA
ATOM      8  C   UNL d   1     -40.797  15.239  18.310  0.00  0.00     0.057 A 
ATOM      9  C   UNL d   1     -40.803  15.417  17.510  0.00  0.00     0.086 A 
ATOM     10  C   UNL d   1     -37.939  13.339  17.423  0.00  0.00     0.023 C 
ATOM     11  C   UNL d   1     -41.400  15.922  17.204  0.00  0.00     0.021 C 
ENDROOT
BRANCH   3  12
ATOM     12  N   UNL d   1     -40.202  14.560  19.422  0.00  0.00    -0.286 N 
ATOM     13  C   UNL d   1     -39.651  14.913  19.928  0.00  0.00     0.101 A 
ATOM     14  C   UNL d   1     -39.648  14.732  20.728  0.00  0.00     0.102 A 
ATOM     15  N   UNL d   1     -40.201  14.191  21.033  0.00  0.00    -0.267 N 
ATOM     16  C   UNL d   1     -40.205  14.002  21.845  0.00  0.00     0.288 C 
ATOM     17  C   UNL d   1     -40.745  13.844  20.533  0.00  0.00     0.102 A 
ATOM     18  O   UNL d   1     -40.744  13.471  22.158  0.00  0.00    -0.264 OA
ATOM     19  C   UNL d   1     -40.748  14.027  19.724  0.00  0.00     0.101 A 
BRANCH  16  20
ATOM     20  C   UNL d   1     -39.647  14.360  22.349  0.00  0.00     0.156 A 
ATOM     21  O   UNL d   1     -39.460  15.145  22.491  0.00  0.00    -0.300 OA
ATOM     22  C   UNL d   1     -38.856  15.157  23.050  0.00  0.00     0.123 A 
ATOM     23  C   UNL d   1     -38.671  14.400  23.253  0.00  0.00     0.029 A 
ATOM     24  C   UNL d   1     -39.164  13.890  22.816  0.00  0.00     0.032 A 
ENDBRANCH  16  20
ENDBRANCH   3  12
BRANCH   5  25
ATOM     25  C   UNL d   1     -38.737  14.192  16.187  0.00  0.00     0.004 A 
ATOM     26  C   UNL d   1     -39.002  13.586  15.681  0.00  0.00     0.001 A 
ATOM     27  C   UNL d   1     -38.734  13.558  14.901  0.00  0.00     0.011 A 
ATOM     28  C   UNL d   1     -38.206  14.127  14.623  0.00  0.00     0.058 A 
ATOM     29  C   UNL d   1     -37.940  14.732  15.125  0.00  0.00     0.011 A 
ATOM     30 CL   UNL d   1     -37.940  14.095  13.840  0.00  0.00    -0.082 Cl
ATOM     31  C   UNL d   1     -38.208  14.760  15.905  0.00  0.00     0.001 A 
ENDBRANCH   5  25
TORSDOF 3
ENDMDL
MODEL 3
REMARK VINA RESULT:      -4.0      7.701      9.860
REMARK  3 active torsions:
REMARK  status: ('A' for Active; 'I' for Inactive)
REMARK    1  A    between atoms: N_9  and  C_3 
REMARK    2  A    between atoms: C_14  and  C_5 
REMARK       I    between atoms: C_10  and  N_11 
REMARK    3  A    between atoms: C_13  and  C_10 
ROOT
ATOM      1  N   UNL d   1     -46.253  12.681  22.797  0.00  0.00    -0.196 N 
ATOM      2  C   UNL d   1     -45.493  12.373  22.775  0.00  0.00     0.167 A 
ATOM      3  C   UNL d   1     -46.404  13.438  22.504  0.00  0.00     0.152 A 
ATOM      4  N   UNL d   1     -46.746  12.121  23.136  0.00  0.00    -0.163 NA
ATOM      5  C   UNL d   1     -45.513  11.621  23.101  0.00  0.00     0.055 A 
ATOM      6  C   UNL d   1     -46.280  11.467  23.322  0.00  0.00     0.104 A 
ATOM      7  N   UNL d   1     -44.873  12.817  22.460  0.00  0.00    -0.227 NA
ATOM      8  C   UNL d   1     -45.781  13.889  22.185  0.00  0.00     0.057 A 
ATOM      9  C   UNL d   1     -45.022  13.581  22.163  0.00  0.00     0.086 A 
ATOM     10  C   UNL d   1     -46.540  10.764  23.675  0.00  0.00     0.023 C 
ATOM     11  C   UNL d   1     -44.398  14.042  21.840  0.00  0.00     0.021 C 
ENDROOT
BRANCH   3  12
ATOM     12  N   UNL d   1     -47.165  13.746  22.526  0.00  0.00    -0.286 N 
ATOM     13  C   UNL d   1     -47.795  13.337  22.179  0.00  0.00     0.101 A 
ATOM     14  C   UNL d   1     -48.553  13.648  22.203  0.00  0.00     0.102 A 
ATOM     15  N   UNL d   1     -48.691  14.378  22.577  0.00  0.00    -0.267 N 
ATOM     16  C   UNL d   1     -49.460  14.701  22.605  0.00  0.00     0.288 C 
ATOM     17  C   UNL d   1     -48.069  14.781  22.919  0.00  0.00     0.102 A 
ATOM     18  O   UNL d   1     -49.609  15.418  22.970  0.00  0.00    -0.264 OA
ATOM     19  C   UNL d   1     -47.301  14.467  22.895  0.00  0.00     0.101 A 
BRANCH  16  20
ATOM     20  C   UNL d   1     -50.089  14.284  22.254  0.00  0.00     0.156 A 
ATOM     21  O   UNL d   1     -50.493  13.607  22.480  0.00  0.00    -0.300 OA
ATOM     22  C   UNL d   1     -51.064  13.459  21.906  0.00  0.00     0.123 A 
ATOM     23  C   UNL d   1     -51.019  14.028  21.337  0.00  0.00     0.029 A 
ATOM     24  C   UNL d   1     -50.407  14.552  21.548  0.00  0.00     0.032 A 
ENDBRANCH  16  20
ENDBRANCH   3  12
BRANCH   5  25
ATOM     25  C   UNL d   1     -44.926  11.054  23.225  0.00  0.00     0.004 A 
ATOM     26  C   UNL d   1     -45.126  10.323  23.572  0.00  0.00     0.001 A 
ATOM     27  C   UNL d   1     -44.540   9.756  23.696  0.00  0.00     0.011 A 
ATOM     28  C   UNL d   1     -43.759   9.910  23.478  0.00  0.00     0.058 A 
ATOM     29  C   UNL d   1     -43.558  10.638  23.132  0.00  0.00     0.011 A 
ATOM     30 CL   UNL d   1     -43.176   9.339  23.605  0.00  0.00    -0.082 Cl
ATOM     31  C   UNL d   1     -44.144  11.204  23.008  0.00  0.00     0.001 A 
ENDBRANCH   5  25
TORSDOF 3
ENDMDL
MODEL 4
REMARK VINA RESULT:      -3.8      6.996      8.691
REMARK  3 active torsions:
REMARK  status: ('A' for Active; 'I' for Inactive)
REMARK    1  A    between atoms: N_9  and  C_3 
REMARK    2  A    between atoms: C_14  and  C_5 
REMARK       I    between atoms: C_10  and  N_11 
REMARK    3  A    between atoms: C_13  and  C_10 
ROOT
ATOM      1  N   UNL d   1     -46.607  12.875  22.439  0.00  0.00    -0.196 N 
ATOM      2  C   UNL d   1     -47.374  13.100  22.619  0.00  0.00     0.167 A 
ATOM      3  C   UNL d   1     -46.009  13.442  22.385  0.00  0.00     0.152 A 
ATOM      4  N   UNL d   1     -46.595  12.061  22.342  0.00  0.00    -0.163 NA
ATOM      5  C   UNL d   1     -47.841  12.426  22.634  0.00  0.00     0.055 A 
ATOM      6  C   UNL d   1     -47.363  11.791  22.465  0.00  0.00     0.104 A 
ATOM      7  N   UNL d   1     -47.557  13.895  22.748  0.00  0.00    -0.227 NA
ATOM      8  C   UNL d   1     -46.188  14.244  22.514  0.00  0.00     0.057 A 
ATOM      9  C   UNL d   1     -46.956  14.469  22.694  0.00  0.00     0.086 A 
ATOM     10  C   UNL d   1     -47.619  11.003  22.424  0.00  0.00     0.023 C 
ATOM     11  C   UNL d   1     -47.129  15.280  22.823  0.00  0.00     0.021 C 
ENDROOT
BRANCH   3  12
ATOM     12  N   UNL d   1     -45.240  13.216  22.205  0.00  0.00    -0.286 N 
ATOM     13  C   UNL d   1     -44.771  13.681  21.706  0.00  0.00     0.101 A 
ATOM     14  C   UNL d   1     -44.004  13.453  21.529  0.00  0.00     0.102 A 
ATOM     15  N   UNL d   1     -43.694  12.752  21.851  0.00  0.00    -0.267 N 
ATOM     16  C   UNL d   1     -42.914  12.513  21.675  0.00  0.00     0.288 C 
ATOM     17  C   UNL d   1     -44.157  12.293  22.343  0.00  0.00     0.102 A 
ATOM     18  O   UNL d   1     -42.598  11.825  21.986  0.00  0.00    -0.264 OA
ATOM     19  C   UNL d   1     -44.934  12.524  22.523  0.00  0.00     0.101 A 
BRANCH  16  20
ATOM     20  C   UNL d   1     -42.448  12.985  21.172  0.00  0.00     0.156 A 
ATOM     21  O   UNL d   1     -42.515  13.173  20.377  0.00  0.00    -0.300 OA
ATOM     22  C   UNL d   1     -41.885  13.668  20.188  0.00  0.00     0.123 A 
ATOM     23  C   UNL d   1     -41.436  13.786  20.846  0.00  0.00     0.029 A 
ATOM     24  C   UNL d   1     -41.783  13.360  21.472  0.00  0.00     0.032 A 
ENDBRANCH  16  20
ENDBRANCH   3  12
BRANCH   5  25
ATOM     25  C   UNL d   1     -48.645  12.311  22.782  0.00  0.00     0.004 A 
ATOM     26  C   UNL d   1     -49.191  12.364  22.154  0.00  0.00     0.001 A 
ATOM     27  C   UNL d   1     -49.994  12.249  22.301  0.00  0.00     0.011 A 
ATOM     28  C   UNL d   1     -50.258  12.081  23.064  0.00  0.00     0.058 A 
ATOM     29  C   UNL d   1     -49.716  12.027  23.690  0.00  0.00     0.011 A 
ATOM     30 CL   UNL d   1     -51.064  11.967  23.206  0.00  0.00    -0.082 Cl
ATOM     31  C   UNL d   1     -48.913  12.142  23.544  0.00  0.00     0.001 A 
ENDBRANCH   5  25
TORSDOF 3
ENDMDL
MODEL 5
REMARK VINA RESULT:      -3.1      8.552     10.272
REMARK  3 active torsions:
REMARK  status: ('A' for Active; 'I' for Inactive)
REMARK    1  A    between atoms: N_9  and  C_3 
REMARK    2  A    between atoms: C_14  and  C_5 
REMARK       I    between atoms: C_10  and  N_11 
REMARK    3  A    between atoms: C_13  and  C_10 
ROOT
ATOM      1  N   UNL d   1     -47.402  13.117  23.120  0.00  0.00    -0.196 N 
ATOM      2  C   UNL d   1     -47.752  13.848  22.993  0.00  0.00     0.167 A 
ATOM      3  C   UNL d   1     -46.583  13.034  23.067  0.00  0.00     0.152 A 
ATOM      4  N   UNL d   1     -47.994  12.576  23.287  0.00  0.00    -0.163 NA
ATOM      5  C   UNL d   1     -48.563  13.762  23.082  0.00  0.00     0.055 A 
ATOM      6  C   UNL d   1     -48.710  12.983  23.262  0.00  0.00     0.104 A 
ATOM      7  N   UNL d   1     -47.289  14.507  22.812  0.00  0.00    -0.227 NA
ATOM      8  C   UNL d   1     -46.111  13.695  22.885  0.00  0.00     0.057 A 
ATOM      9  C   UNL d   1     -46.461  14.426  22.758  0.00  0.00     0.086 A 
ATOM     10  C   UNL d   1     -49.462  12.661  23.396  0.00  0.00     0.023 C 
ATOM     11  C   UNL d   1     -45.980  15.089  22.574  0.00  0.00     0.021 C 
ENDROOT
BRANCH   3  12
ATOM     12  N   UNL d   1     -46.232  12.303  23.194  0.00  0.00    -0.286 N 
ATOM     13  C   UNL d   1     -45.408  12.228  23.209  0.00  0.00     0.101 A 
ATOM     14  C   UNL d   1     -45.062  11.495  23.335  0.00  0.00     0.102 A 
ATOM     15  N   UNL d   1     -45.538  10.824  23.450  0.00  0.00    -0.267 N 
ATOM     16  C   UNL d   1     -45.194  10.076  23.580  0.00  0.00     0.288 C 
ATOM     17  C   UNL d   1     -46.352  10.899  23.435  0.00  0.00     0.102 A 
ATOM     18  O   UNL d   1     -45.652   9.408  23.694  0.00  0.00    -0.264 OA
ATOM     19  C   UNL d   1     -46.703  11.640  23.307  0.00  0.00     0.101 A 
BRANCH  16  20
ATOM     20  C   UNL d   1     -44.364  10.008  23.593  0.00  0.00     0.156 A 
ATOM     21  O   UNL d   1     -43.766  10.567  23.552  0.00  0.00    -0.300 OA
ATOM     22  C   UNL d   1     -43.049  10.164  23.592  0.00  0.00     0.123 A 
ATOM     23  C   UNL d   1     -43.195   9.375  23.657  0.00  0.00     0.029 A 
ATOM     24  C   UNL d   1     -44.020   9.266  23.659  0.00  0.00     0.032 A 
ENDBRANCH  16  20
ENDBRANCH   3  12
BRANCH   5  25
ATOM     25  C   UNL d   1     -49.188  14.297  23.021  0.00  0.00     0.004 A 
ATOM     26  C   UNL d   1     -49.400  14.759  23.681  0.00  0.00     0.001 A 
ATOM     27  C   UNL d   1     -50.025  15.294  23.621  0.00  0.00     0.011 A 
ATOM     28  C   UNL d   1     -50.439  15.373  22.912  0.00  0.00     0.058 A 
ATOM     29  C   UNL d   1     -50.229  14.913  22.253  0.00  0.00     0.011 A 
ATOM     30 CL   UNL d   1     -51.064  15.911  22.857  0.00  0.00    -0.082 Cl
ATOM     31  C   UNL d   1     -49.605  14.378  22.313  0.00  0.00     0.001 A 
ENDBRANCH   5  25
TORSDOF 3
ENDMDL
