MODEL 1
REMARK VINA RESULT:      50.0      0.000      0.000
REMARK  5 active torsions:
REMARK  status: ('A' for Active; 'I' for Inactive)
REMARK       I    between atoms: C_2  and  N_1 
REMARK    1  A    between atoms: C_4  and  N_1 
REMARK    2  A    between atoms: C_14  and  C_2 
REMARK       I    between atoms: C_3  and  N_6 
REMARK    3  A    between atoms: C_5  and  C_3 
REMARK    4  A    between atoms: N_8  and  C_4 
REMARK    5  A    between atoms: N_6  and  N_8 
ROOT
ATOM      1  C   UNL d   1      60.787  48.774  50.933  0.00  0.00     0.243 C 
ATOM      2  S   UNL d   1      61.259  49.422  51.095  0.00  0.00    -0.035 SA
ENDROOT
BRANCH   1   3
ATOM      3  N   UNL d   1      60.035  48.877  50.603  0.00  0.00    -0.177 NA
ATOM      4  C   UNL d   1      59.476  49.340  50.993  0.00  0.00     0.281 C 
ATOM      5  O   UNL d   1      59.669  49.700  51.714  0.00  0.00    -0.265 OA
BRANCH   4   6
ATOM      6  C   UNL d   1      58.731  49.441  50.664  0.00  0.00     0.058 A 
ATOM      7  C   UNL d   1      58.652  49.604  49.864  0.00  0.00     0.005 A 
ATOM      8  C   UNL d   1      57.904  49.706  49.532  0.00  0.00     0.000 A 
ATOM      9  C   UNL d   1      57.235  49.643  50.009  0.00  0.00     0.000 A 
ATOM     10  C   UNL d   1      57.314  49.478  50.820  0.00  0.00     0.000 A 
ATOM     11  C   UNL d   1      58.064  49.377  51.146  0.00  0.00     0.005 A 
ENDBRANCH   4   6
ENDBRANCH   1   3
BRANCH   1  12
ATOM     12  N   UNL d   1      61.061  48.014  51.099  0.00  0.00    -0.114 NA
BRANCH  12  13
ATOM     13  N   UNL d   1      61.266  47.501  50.490  0.00  0.00    -0.103 NA
ATOM     14  C   UNL d   1      61.259  46.685  50.608  0.00  0.00     0.303 C 
ATOM     15  O   UNL d   1      61.046  46.382  51.338  0.00  0.00    -0.263 OA
BRANCH  14  16
ATOM     16  C   UNL d   1      61.465  46.182  49.993  0.00  0.00     0.089 A 
ATOM     17  S   UNL d   1      61.161  45.383  49.871  0.00  0.00    -0.082 SA
ATOM     18  C   UNL d   1      61.533  45.061  49.152  0.00  0.00     0.036 A 
ATOM     19  C   UNL d   1      62.063  45.663  48.836  0.00  0.00     0.008 A 
ATOM     20  C   UNL d   1      62.024  46.352  49.348  0.00  0.00     0.012 A 
ENDBRANCH  14  16
ENDBRANCH  12  13
ENDBRANCH   1  12
TORSDOF 5
ENDMDL
