MODEL 1
REMARK VINA RESULT:      34.2      0.000      0.000
REMARK  5 active torsions:
REMARK  status: ('A' for Active; 'I' for Inactive)
REMARK    1  A    between atoms: C_2  and  N_1 
REMARK    2  A    between atoms: C_5  and  N_1 
REMARK    3  A    between atoms: C_7  and  C_2 
REMARK    4  A    between atoms: C_4  and  O_6 
REMARK    5  A    between atoms: O_6  and  C_8 
ROOT
ATOM      1  C   UNL d   1      59.487  49.244  50.892  0.00  0.00     0.020 A 
ATOM      2  C   UNL d   1      60.816  48.325  51.230  0.00  0.00     0.105 A 
ATOM      3  C   UNL d   1      59.391  48.462  51.143  0.00  0.00     0.004 A 
ATOM      4  C   UNL d   1      60.231  49.573  50.806  0.00  0.00     0.004 A 
ATOM      5  C   UNL d   1      60.054  48.011  51.310  0.00  0.00     0.025 A 
ATOM      6  C   UNL d   1      60.895  49.122  50.973  0.00  0.00     0.025 A 
ENDROOT
BRANCH   1   7
ATOM      7  C   UNL d   1      58.805  49.707  50.720  0.00  0.00     0.108 C 
BRANCH   7   8
ATOM      8  N   UNL d   1      58.490  49.688  49.953  0.00  0.00    -0.184 N 
ATOM      9  O   UNL d   1      58.982  49.706  49.292  0.00  0.00    -0.080 OA
BRANCH   8  10
ATOM     10  C   UNL d   1      57.674  49.651  49.860  0.00  0.00     0.090 A 
ATOM     11  C   UNL d   1      57.195  49.595  50.536  0.00  0.00     0.020 A 
ATOM     12  C   UNL d   1      56.376  49.557  50.443  0.00  0.00     0.002 A 
ATOM     13  C   UNL d   1      56.033  49.576  49.673  0.00  0.00     0.000 A 
ATOM     14  C   UNL d   1      56.536  49.632  49.014  0.00  0.00     0.002 A 
ATOM     15  C   UNL d   1      57.355  49.670  49.108  0.00  0.00     0.020 A 
ENDBRANCH   8  10
ENDBRANCH   7   8
ENDBRANCH   1   7
BRANCH   2  16
ATOM     16  O   UNL d   1      61.473  47.868  51.399  0.00  0.00    -0.260 OA
BRANCH  16  17
ATOM     17  C   UNL d   1      61.671  47.242  50.911  0.00  0.00     0.391 C 
ATOM     18  F   UNL d   1      61.472  46.475  51.141  0.00  0.00    -0.145 F 
ATOM     19  F   UNL d   1      62.062  47.378  50.204  0.00  0.00    -0.145 F 
ENDBRANCH  16  17
ENDBRANCH   2  16
TORSDOF 5
ENDMDL
