MODEL 1
REMARK VINA RESULT:      61.1      0.000      0.000
REMARK  5 active torsions:
REMARK  status: ('A' for Active; 'I' for Inactive)
REMARK       I    between atoms: N_2  and  C_1 
REMARK    1  A    between atoms: C_3  and  C_1 
REMARK    2  A    between atoms: C_5  and  N_2 
REMARK    3  A    between atoms: C_6  and  C_3 
REMARK    4  A    between atoms: C_7  and  C_3 
REMARK    5  A    between atoms: C_9  and  C_5 
ROOT
ATOM      1  C   UNL d   1     -51.626  25.401  34.198  0.00  0.00     0.058 C 
ENDROOT
BRANCH   1   2
ATOM      2  C   UNL d   1     -52.018  26.107  34.832  0.00  0.00     0.275 C 
ATOM      3  N   UNL d   1     -52.179  26.463  35.497  0.00  0.00    -0.231 NA
ATOM      4  O   UNL d   1     -52.278  26.398  34.152  0.00  0.00    -0.266 OA
BRANCH   3   5
ATOM      5  C   UNL d   1     -51.915  26.167  36.194  0.00  0.00     0.146 C 
ATOM      6  C   UNL d   1     -51.242  26.562  36.110  0.00  0.00     0.033 C 
ATOM      7  C   UNL d   1     -52.603  25.772  36.266  0.00  0.00     0.033 C 
BRANCH   5   8
ATOM      8  C   UNL d   1     -51.664  25.864  36.892  0.00  0.00     0.229 C 
ATOM      9  O   UNL d   1     -51.997  26.130  37.571  0.00  0.00    -0.286 OA
ENDBRANCH   5   8
ENDBRANCH   3   5
ENDBRANCH   1   2
BRANCH   1  10
ATOM     10  C   UNL d   1     -50.879  25.509  33.903  0.00  0.00     0.005 A 
ATOM     11  C   UNL d   1     -50.653  26.230  33.606  0.00  0.00     0.000 A 
ATOM     12  C   UNL d   1     -49.890  26.334  33.307  0.00  0.00     0.000 A 
ATOM     13  C   UNL d   1     -49.354  25.707  33.308  0.00  0.00     0.000 A 
ATOM     14  C   UNL d   1     -49.588  24.970  33.613  0.00  0.00     0.000 A 
ATOM     15  C   UNL d   1     -50.347  24.867  33.910  0.00  0.00     0.000 A 
ENDBRANCH   1  10
BRANCH   1  16
ATOM     16  C   UNL d   1     -51.929  24.706  33.909  0.00  0.00     0.005 A 
ATOM     17  C   UNL d   1     -51.459  24.026  33.865  0.00  0.00     0.000 A 
ATOM     18  C   UNL d   1     -51.770  23.312  33.568  0.00  0.00     0.000 A 
ATOM     19  C   UNL d   1     -52.562  23.280  33.312  0.00  0.00     0.000 A 
ATOM     20  C   UNL d   1     -53.037  23.969  33.357  0.00  0.00     0.000 A 
ATOM     21  C   UNL d   1     -52.714  24.673  33.656  0.00  0.00     0.000 A 
ENDBRANCH   1  16
TORSDOF 5
ENDMDL
MODEL 2
REMARK VINA RESULT:      63.1      1.193      2.745
REMARK  5 active torsions:
REMARK  status: ('A' for Active; 'I' for Inactive)
REMARK       I    between atoms: N_2  and  C_1 
REMARK    1  A    between atoms: C_3  and  C_1 
REMARK    2  A    between atoms: C_5  and  N_2 
REMARK    3  A    between atoms: C_6  and  C_3 
REMARK    4  A    between atoms: C_7  and  C_3 
REMARK    5  A    between atoms: C_9  and  C_5 
ROOT
ATOM      1  C   UNL d   1     -52.084  25.520  34.130  0.00  0.00     0.058 C 
ENDROOT
BRANCH   1   2
ATOM      2  C   UNL d   1     -51.759  26.355  33.629  0.00  0.00     0.275 C 
ATOM      3  N   UNL d   1     -51.264  26.850  33.306  0.00  0.00    -0.231 NA
ATOM      4  O   UNL d   1     -52.530  26.497  33.614  0.00  0.00    -0.266 OA
BRANCH   3   5
ATOM      5  C   UNL d   1     -50.475  26.706  33.319  0.00  0.00     0.146 C 
ATOM      6  C   UNL d   1     -50.331  27.478  33.330  0.00  0.00     0.033 C 
ATOM      7  C   UNL d   1     -50.635  25.926  33.308  0.00  0.00     0.033 C 
BRANCH   5   8
ATOM      8  C   UNL d   1     -49.689  26.548  33.332  0.00  0.00     0.229 C 
ATOM      9  O   UNL d   1     -49.450  25.791  33.448  0.00  0.00    -0.286 OA
ENDBRANCH   5   8
ENDBRANCH   3   5
ENDBRANCH   1   2
BRANCH   1  10
ATOM     10  C   UNL d   1     -52.247  25.576  34.922  0.00  0.00     0.005 A 
ATOM     11  C   UNL d   1     -52.981  25.380  35.208  0.00  0.00     0.000 A 
ATOM     12  C   UNL d   1     -53.139  25.440  36.016  0.00  0.00     0.000 A 
ATOM     13  C   UNL d   1     -52.555  25.697  36.538  0.00  0.00     0.000 A 
ATOM     14  C   UNL d   1     -51.803  25.896  36.242  0.00  0.00     0.000 A 
ATOM     15  C   UNL d   1     -51.645  25.837  35.438  0.00  0.00     0.000 A 
ENDBRANCH   1  10
BRANCH   1  16
ATOM     16  C   UNL d   1     -52.222  24.760  33.882  0.00  0.00     0.005 A 
ATOM     17  C   UNL d   1     -52.985  24.515  33.676  0.00  0.00     0.000 A 
ATOM     18  C   UNL d   1     -53.128  23.734  33.420  0.00  0.00     0.000 A 
ATOM     19  C   UNL d   1     -52.498  23.193  33.372  0.00  0.00     0.000 A 
ATOM     20  C   UNL d   1     -51.725  23.442  33.581  0.00  0.00     0.000 A 
ATOM     21  C   UNL d   1     -51.598  24.222  33.833  0.00  0.00     0.000 A 
ENDBRANCH   1  16
TORSDOF 5
ENDMDL
MODEL 3
REMARK VINA RESULT:      64.1      1.245      3.047
REMARK  5 active torsions:
REMARK  status: ('A' for Active; 'I' for Inactive)
REMARK       I    between atoms: N_2  and  C_1 
REMARK    1  A    between atoms: C_3  and  C_1 
REMARK    2  A    between atoms: C_5  and  N_2 
REMARK    3  A    between atoms: C_6  and  C_3 
REMARK    4  A    between atoms: C_7  and  C_3 
REMARK    5  A    between atoms: C_9  and  C_5 
ROOT
ATOM      1  C   UNL d   1     -52.126  25.379  34.241  0.00  0.00     0.058 C 
ENDROOT
BRANCH   1   2
ATOM      2  C   UNL d   1     -51.609  26.014  33.620  0.00  0.00     0.275 C 
ATOM      3  N   UNL d   1     -51.004  26.378  33.311  0.00  0.00    -0.231 NA
ATOM      4  O   UNL d   1     -52.335  26.151  33.357  0.00  0.00    -0.266 OA
BRANCH   3   5
ATOM      5  C   UNL d   1     -50.261  26.239  33.579  0.00  0.00     0.146 C 
ATOM      6  C   UNL d   1     -50.346  25.474  33.426  0.00  0.00     0.033 C 
ATOM      7  C   UNL d   1     -50.188  27.018  33.728  0.00  0.00     0.033 C 
BRANCH   5   8
ATOM      8  C   UNL d   1     -49.517  26.115  33.849  0.00  0.00     0.229 C 
ATOM      9  O   UNL d   1     -49.022  26.742  33.922  0.00  0.00    -0.286 OA
ENDBRANCH   5   8
ENDBRANCH   3   5
ENDBRANCH   1   2
BRANCH   1  10
ATOM     10  C   UNL d   1     -52.441  24.699  33.932  0.00  0.00     0.005 A 
ATOM     11  C   UNL d   1     -53.211  24.680  33.676  0.00  0.00     0.000 A 
ATOM     12  C   UNL d   1     -53.526  23.984  33.362  0.00  0.00     0.000 A 
ATOM     13  C   UNL d   1     -53.061  23.304  33.307  0.00  0.00     0.000 A 
ATOM     14  C   UNL d   1     -52.273  23.327  33.570  0.00  0.00     0.000 A 
ATOM     15  C   UNL d   1     -51.960  24.019  33.882  0.00  0.00     0.000 A 
ENDBRANCH   1  10
BRANCH   1  16
ATOM     16  C   UNL d   1     -52.297  25.417  35.032  0.00  0.00     0.005 A 
ATOM     17  C   UNL d   1     -52.225  26.130  35.446  0.00  0.00     0.000 A 
ATOM     18  C   UNL d   1     -52.402  26.170  36.260  0.00  0.00     0.000 A 
ATOM     19  C   UNL d   1     -52.654  25.487  36.663  0.00  0.00     0.000 A 
ATOM     20  C   UNL d   1     -52.726  24.765  36.243  0.00  0.00     0.000 A 
ATOM     21  C   UNL d   1     -52.547  24.740  35.433  0.00  0.00     0.000 A 
ENDBRANCH   1  16
TORSDOF 5
ENDMDL
