MODEL 1
REMARK VINA RESULT:      99.5      0.000      0.000
REMARK  6 active torsions:
REMARK  status: ('A' for Active; 'I' for Inactive)
REMARK    1  A    between atoms: C_2  and  C_1 
REMARK       I    between atoms: N_3  and  C_2 
REMARK    2  A    between atoms: C_24  and  N_3 
REMARK    3  A    between atoms: C_4  and  C_10 
REMARK    4  A    between atoms: C_9  and  C_4 
REMARK    5  A    between atoms: C_8  and  C_9 
REMARK    6  A    between atoms: C_10  and  C_15 
ROOT
ATOM      1  C   UNL d   1     -55.825-100.741 -43.268  0.00  0.00     0.039 A 
ATOM      2  C   UNL d   1     -55.387-101.911 -42.177  0.00  0.00     0.084 A 
ATOM      3  C   UNL d   1     -54.992-100.913 -43.129  0.00  0.00     0.005 A 
ATOM      4  C   UNL d   1     -56.391-101.157 -42.861  0.00  0.00     0.005 A 
ATOM      5  C   UNL d   1     -54.793-101.485 -42.596  0.00  0.00     0.019 A 
ATOM      6  C   UNL d   1     -56.186-101.728 -42.328  0.00  0.00     0.019 A 
ENDROOT
BRANCH   2   7
ATOM      7  N   UNL d   1     -55.189-102.482 -41.644  0.00  0.00    -0.212 NA
ATOM      8  C   UNL d   1     -54.920-102.295 -40.905  0.00  0.00     0.259 C 
ATOM      9  O   UNL d   1     -54.713-102.876 -40.346  0.00  0.00    -0.270 OA
BRANCH   8  10
ATOM     10  C   UNL d   1     -54.844-101.502 -40.685  0.00  0.00     0.092 A 
ATOM     11  C   UNL d   1     -54.757-100.715 -40.912  0.00  0.00     0.017 A 
ATOM     12  C   UNL d   1     -54.716-100.169 -40.347  0.00  0.00     0.023 A 
ATOM     13  C   UNL d   1     -54.714-100.345 -41.130  0.00  0.00    -0.027 A 
ATOM     14  C   UNL d   1     -54.758-100.383 -39.549  0.00  0.00     0.009 A 
ATOM     15  C   UNL d   1     -54.801-101.132 -40.901  0.00  0.00    -0.012 A 
ATOM     16  C   UNL d   1     -54.845-101.705 -41.473  0.00  0.00    -0.018 A 
ATOM     17  C   UNL d   1     -54.840-101.319 -40.098  0.00  0.00    -0.027 A 
ATOM     18  C   UNL d   1     -54.838-101.111 -39.366  0.00  0.00     0.023 A 
ATOM     19  C   UNL d   1     -54.884-101.689 -39.882  0.00  0.00     0.017 A 
ENDBRANCH   8  10
ENDBRANCH   2   7
BRANCH   1  20
ATOM     20  C   UNL d   1     -56.022-100.152 -43.819  0.00  0.00     0.196 C 
ATOM     21  O   UNL d   1     -55.451 -99.630 -44.040  0.00  0.00    -0.287 OA
BRANCH  20  22
ATOM     22  C   UNL d   1     -56.784-100.108 -44.126  0.00  0.00     0.044 C 
BRANCH  22  23
ATOM     23  C   UNL d   1     -57.067 -99.396 -44.440  0.00  0.00     0.028 C 
BRANCH  23  24
ATOM     24  C   UNL d   1     -57.853 -99.339 -44.688  0.00  0.00     0.100 A 
ATOM     25  O   UNL d   1     -58.476 -99.819 -44.482  0.00  0.00    -0.305 OA
ATOM     26  C   UNL d   1     -59.146 -99.567 -44.850  0.00  0.00     0.123 A 
ATOM     27  C   UNL d   1     -58.952 -98.907 -45.305  0.00  0.00     0.029 A 
ATOM     28  C   UNL d   1     -58.135 -98.756 -45.209  0.00  0.00     0.027 A 
ENDBRANCH  23  24
ENDBRANCH  22  23
ENDBRANCH  20  22
ENDBRANCH   1  20
TORSDOF 6
ENDMDL
