MODEL 1
REMARK VINA RESULT:      -5.1      0.000      0.000
REMARK  3 active torsions:
REMARK  status: ('A' for Active; 'I' for Inactive)
REMARK    1  A    between atoms: C_10  and  N_2 
REMARK       I    between atoms: N_3  and  C_6 
REMARK    2  A    between atoms: C_6  and  C_11 
REMARK    3  A    between atoms: C_11  and  C_10 
ROOT
ATOM      1  N   UNL d   1      57.209  -0.393  31.801  0.00  0.00    -0.275 N 
ATOM      2  C   UNL d   1      57.581   0.295  32.059  0.00  0.00     0.067 A 
ATOM      3  C   UNL d   1      57.390  -0.816  31.121  0.00  0.00     0.266 C 
ATOM      4  C   UNL d   1      56.620  -0.575  32.354  0.00  0.00     0.067 A 
ATOM      5  C   UNL d   1      56.633  -0.009  32.940  0.00  0.00     0.018 A 
ATOM      6  C   UNL d   1      57.232   0.536  32.760  0.00  0.00     0.019 A 
ATOM      7  O   UNL d   1      56.963  -1.498  30.936  0.00  0.00    -0.267 OA
ATOM      8  C   UNL d   1      58.212   0.682  31.670  0.00  0.00     0.019 C 
ATOM      9  C   UNL d   1      56.073  -1.195  32.388  0.00  0.00     0.018 A 
ATOM     10  C   UNL d   1      56.113  -0.038  33.569  0.00  0.00     0.002 A 
ATOM     11  C   UNL d   1      55.545  -1.239  33.012  0.00  0.00     0.002 A 
ATOM     12  C   UNL d   1      55.556  -0.662  33.612  0.00  0.00     0.000 A 
ENDROOT
BRANCH   3  13
ATOM     13  C   UNL d   1      57.995  -0.565  30.620  0.00  0.00     0.080 C 
BRANCH  13  14
ATOM     14  C   UNL d   1      58.145  -0.959  29.915  0.00  0.00     0.088 C 
BRANCH  14  15
ATOM     15  N   UNL d   1      58.707  -0.669  29.388  0.00  0.00    -0.268 N 
ATOM     16  C   UNL d   1      58.617  -0.021  28.891  0.00  0.00     0.296 A 
ATOM     17  S   UNL d   1      59.351   0.056  28.455  0.00  0.00    -0.025 SA
ATOM     18  O   UNL d   1      57.944   0.454  28.832  0.00  0.00    -0.259 OA
ATOM     19  C   UNL d   1      59.837  -0.523  28.695  0.00  0.00     0.050 A 
ATOM     20  C   UNL d   1      60.610  -0.706  28.458  0.00  0.00     0.008 A 
ATOM     21  C   UNL d   1      59.462  -0.982  29.269  0.00  0.00     0.073 A 
ATOM     22  C   UNL d   1      61.008  -1.350  28.797  0.00  0.00     0.001 A 
ATOM     23  C   UNL d   1      60.623  -1.802  29.371  0.00  0.00     0.002 A 
ATOM     24  C   UNL d   1      59.851  -1.617  29.605  0.00  0.00     0.018 A 
ENDBRANCH  14  15
ENDBRANCH  13  14
ENDBRANCH   3  13
TORSDOF 3
ENDMDL
MODEL 2
REMARK VINA RESULT:      -3.1      0.832      1.286
REMARK  3 active torsions:
REMARK  status: ('A' for Active; 'I' for Inactive)
REMARK    1  A    between atoms: C_10  and  N_2 
REMARK       I    between atoms: N_3  and  C_6 
REMARK    2  A    between atoms: C_6  and  C_11 
REMARK    3  A    between atoms: C_11  and  C_10 
ROOT
ATOM      1  N   UNL d   1      57.025  -0.482  31.965  0.00  0.00    -0.275 N 
ATOM      2  C   UNL d   1      56.738  -1.192  31.662  0.00  0.00     0.067 A 
ATOM      3  C   UNL d   1      57.618  -0.019  31.637  0.00  0.00     0.266 C 
ATOM      4  C   UNL d   1      56.603  -0.325  32.660  0.00  0.00     0.067 A 
ATOM      5  C   UNL d   1      56.068  -0.928  32.780  0.00  0.00     0.018 A 
ATOM      6  C   UNL d   1      56.150  -1.471  32.159  0.00  0.00     0.019 A 
ATOM      7  O   UNL d   1      57.846   0.682  32.009  0.00  0.00    -0.267 OA
ATOM      8  C   UNL d   1      57.005  -1.566  30.963  0.00  0.00     0.019 C 
ATOM      9  C   UNL d   1      56.648   0.303  33.198  0.00  0.00     0.018 A 
ATOM     10  C   UNL d   1      55.569  -0.929  33.425  0.00  0.00     0.002 A 
ATOM     11  C   UNL d   1      56.153   0.317  33.850  0.00  0.00     0.002 A 
ATOM     12  C   UNL d   1      55.606  -0.299  33.975  0.00  0.00     0.000 A 
ENDROOT
BRANCH   3  13
ATOM     13  C   UNL d   1      57.990  -0.249  30.938  0.00  0.00     0.080 C 
BRANCH  13  14
ATOM     14  C   UNL d   1      58.617   0.186  30.635  0.00  0.00     0.088 C 
BRANCH  14  15
ATOM     15  N   UNL d   1      58.881   0.056  29.866  0.00  0.00    -0.268 N 
ATOM     16  C   UNL d   1      58.480   0.254  29.175  0.00  0.00     0.296 A 
ATOM     17  S   UNL d   1      58.980   0.007  28.524  0.00  0.00    -0.025 SA
ATOM     18  O   UNL d   1      57.742   0.620  29.133  0.00  0.00    -0.259 OA
ATOM     19  C   UNL d   1      59.636  -0.317  28.832  0.00  0.00     0.050 A 
ATOM     20  C   UNL d   1      60.298  -0.645  28.455  0.00  0.00     0.008 A 
ATOM     21  C   UNL d   1      59.597  -0.298  29.656  0.00  0.00     0.073 A 
ATOM     22  C   UNL d   1      60.922  -0.954  28.907  0.00  0.00     0.001 A 
ATOM     23  C   UNL d   1      60.872  -0.929  29.730  0.00  0.00     0.002 A 
ATOM     24  C   UNL d   1      60.210  -0.601  30.102  0.00  0.00     0.018 A 
ENDBRANCH  14  15
ENDBRANCH  13  14
ENDBRANCH   3  13
TORSDOF 3
ENDMDL
