MODEL 1
REMARK VINA RESULT:      -4.6      0.000      0.000
REMARK  7 active torsions:
REMARK  status: ('A' for Active; 'I' for Inactive)
REMARK    1  A    between atoms: C_6  and  N_2 
REMARK    2  A    between atoms: C_7  and  C_3 
REMARK    3  A    between atoms: C_12  and  C_6 
REMARK    4  A    between atoms: C_21  and  C_7 
REMARK    5  A    between atoms: C_9  and  O_11 
REMARK    6  A    between atoms: O_11  and  C_12 
REMARK    7  A    between atoms: C_19  and  C_21 
ROOT
ATOM      1  N   UNL d   1      59.635  -1.386  28.862  0.00  0.00    -0.227 NA
ATOM      2  N   UNL d   1      58.744  -0.546  29.453  0.00  0.00    -0.287 N 
ATOM      3  C   UNL d   1      58.824  -1.257  29.022  0.00  0.00     0.148 A 
ATOM      4  C   UNL d   1      59.514  -0.233  29.559  0.00  0.00     0.083 A 
ATOM      5  C   UNL d   1      60.053  -0.746  29.198  0.00  0.00     0.099 A 
ATOM      6  C   UNL d   1      59.789   0.451  29.936  0.00  0.00     0.019 A 
ATOM      7  C   UNL d   1      60.860  -0.580  29.214  0.00  0.00     0.021 A 
ATOM      8  C   UNL d   1      60.597   0.617  29.952  0.00  0.00     0.002 A 
ATOM      9  C   UNL d   1      61.133   0.101  29.590  0.00  0.00     0.002 A 
ENDROOT
BRANCH   2  10
ATOM     10  C   UNL d   1      58.045  -0.209  29.724  0.00  0.00     0.108 C 
BRANCH  10  11
ATOM     11  C   UNL d   1      57.762  -0.382  30.485  0.00  0.00     0.142 C 
BRANCH  11  12
ATOM     12  O   UNL d   1      57.103   0.010  30.774  0.00  0.00    -0.304 OA
BRANCH  12  13
ATOM     13  C   UNL d   1      56.904  -0.051  31.570  0.00  0.00     0.100 A 
ATOM     14  C   UNL d   1      56.520  -0.724  31.842  0.00  0.00     0.025 A 
ATOM     15  C   UNL d   1      56.319  -0.787  32.641  0.00  0.00     0.002 A 
ATOM     16  C   UNL d   1      55.933  -1.463  32.916  0.00  0.00     0.000 C 
ATOM     17  C   UNL d   1      56.505  -0.173  33.166  0.00  0.00     0.000 A 
ATOM     18  C   UNL d   1      56.894   0.504  32.883  0.00  0.00     0.002 A 
ATOM     19  C   UNL d   1      57.093   0.565  32.087  0.00  0.00     0.025 A 
ENDBRANCH  12  13
ENDBRANCH  11  12
ENDBRANCH  10  11
ENDBRANCH   2  10
BRANCH   3  20
ATOM     20  C   UNL d   1      58.551  -1.939  28.646  0.00  0.00     0.041 C 
BRANCH  20  21
ATOM     21  C   UNL d   1      58.729  -2.680  28.959  0.00  0.00     0.049 C 
BRANCH  21  22
ATOM     22  C   UNL d   1      58.515  -3.362  28.548  0.00  0.00     0.234 C 
ATOM     23  O   UNL d   1      58.547  -4.095  28.919  0.00  0.00    -0.283 OA
ENDBRANCH  21  22
ENDBRANCH  20  21
ENDBRANCH   3  20
TORSDOF 7
ENDMDL
