MODEL 1
REMARK VINA RESULT:      -1.9      0.000      0.000
REMARK  6 active torsions:
REMARK  status: ('A' for Active; 'I' for Inactive)
REMARK    1  A    between atoms: N_4  and  C_2 
REMARK    2  A    between atoms: C_9  and  N_4 
REMARK    3  A    between atoms: O_16  and  C_8 
REMARK    4  A    between atoms: O_24  and  C_10 
REMARK    5  A    between atoms: C_22  and  O_16 
REMARK    6  A    between atoms: C_26  and  C_22 
ROOT
ATOM      1  C   UNL d   1      33.185  19.364 -23.467  0.00  0.00     0.056 A 
ATOM      2  C   UNL d   1      33.166  18.735 -23.997  0.00  0.00     0.166 A 
ATOM      3  C   UNL d   1      33.199  20.141 -23.747  0.00  0.00     0.088 A 
ATOM      4  C   UNL d   1      33.189  19.218 -22.657  0.00  0.00     0.031 A 
ATOM      5  N   UNL d   1      33.162  18.878 -24.815  0.00  0.00    -0.205 NA
ATOM      6  C   UNL d   1      33.218  20.770 -23.216  0.00  0.00     0.046 A 
ATOM      7  C   UNL d   1      33.222  20.624 -22.407  0.00  0.00     0.124 A 
ATOM      8  C   UNL d   1      33.207  19.847 -22.127  0.00  0.00     0.117 A 
ATOM      9  N   UNL d   1      33.195  20.287 -24.557  0.00  0.00    -0.224 NA
ATOM     10  C   UNL d   1      33.176  19.655 -25.095  0.00  0.00     0.200 A 
ENDROOT
BRANCH   2  11
ATOM     11  N   UNL d   1      33.152  17.951 -23.714  0.00  0.00    -0.224 NA
BRANCH  11  12
ATOM     12  C   UNL d   1      32.607  17.421 -24.021  0.00  0.00     0.110 A 
ATOM     13  C   UNL d   1      32.624  16.623 -23.813  0.00  0.00     0.158 A 
ATOM     14  C   UNL d   1      32.078  16.089 -24.119  0.00  0.00     0.038 A 
ATOM     15  F   UNL d   1      33.206  16.352 -23.282  0.00  0.00    -0.203 F 
ATOM     16  C   UNL d   1      31.495  16.360 -24.651  0.00  0.00     0.037 A 
ATOM     17  C   UNL d   1      31.474  17.166 -24.864  0.00  0.00     0.008 A 
ATOM     18 BR   UNL d   1      30.940  15.821 -24.963  0.00  0.00    -0.049 Br
ATOM     19  C   UNL d   1      32.024  17.692 -24.552  0.00  0.00     0.022 A 
ENDBRANCH  11  12
ENDBRANCH   2  11
BRANCH   8  20
ATOM     20  O   UNL d   1      33.212  19.705 -21.305  0.00  0.00    -0.326 OA
ATOM     21  C   UNL d   1      33.203  18.931 -21.018  0.00  0.00     0.181 C 
ENDBRANCH   8  20
BRANCH   7  22
ATOM     22  O   UNL d   1      33.241  21.261 -21.866  0.00  0.00    -0.303 OA
BRANCH  22  23
ATOM     23  C   UNL d   1      32.568  21.726 -21.747  0.00  0.00     0.123 C 
BRANCH  23  24
ATOM     24  C   UNL d   1      32.524  22.219 -21.083  0.00  0.00     0.028 A 
ATOM     25  C   UNL d   1      32.755  23.014 -21.138  0.00  0.00     0.021 A 
ATOM     26  C   UNL d   1      32.709  23.499 -20.474  0.00  0.00     0.080 A 
ATOM     27  N   UNL d   1      32.433  23.203 -19.749  0.00  0.00    -0.301 N 
ATOM     28  C   UNL d   1      32.204  22.413 -19.696  0.00  0.00     0.080 A 
ATOM     29  C   UNL d   1      32.388  23.702 -19.075  0.00  0.00     0.100 C 
ATOM     30  C   UNL d   1      32.248  21.919 -20.363  0.00  0.00     0.021 A 
ENDBRANCH  23  24
ENDBRANCH  22  23
ENDBRANCH   7  22
TORSDOF 6
ENDMDL
MODEL 2
REMARK VINA RESULT:       0.9      2.398      3.385
REMARK  6 active torsions:
REMARK  status: ('A' for Active; 'I' for Inactive)
REMARK    1  A    between atoms: N_4  and  C_2 
REMARK    2  A    between atoms: C_9  and  N_4 
REMARK    3  A    between atoms: O_16  and  C_8 
REMARK    4  A    between atoms: O_24  and  C_10 
REMARK    5  A    between atoms: C_22  and  O_16 
REMARK    6  A    between atoms: C_26  and  C_22 
ROOT
ATOM      1  C   UNL d   1      30.877  17.360 -24.106  0.00  0.00     0.056 A 
ATOM      2  C   UNL d   1      30.204  17.044 -24.458  0.00  0.00     0.166 A 
ATOM      3  C   UNL d   1      31.084  18.148 -24.241  0.00  0.00     0.088 A 
ATOM      4  C   UNL d   1      31.344  16.889 -23.617  0.00  0.00     0.031 A 
ATOM      5  N   UNL d   1      29.731  17.515 -24.952  0.00  0.00    -0.205 NA
ATOM      6  C   UNL d   1      31.758  18.463 -23.888  0.00  0.00     0.046 A 
ATOM      7  C   UNL d   1      32.224  17.993 -23.401  0.00  0.00     0.124 A 
ATOM      8  C   UNL d   1      32.017  17.205 -23.265  0.00  0.00     0.117 A 
ATOM      9  N   UNL d   1      30.618  18.618 -24.729  0.00  0.00    -0.224 NA
ATOM     10  C   UNL d   1      29.938  18.303 -25.087  0.00  0.00     0.200 A 
ENDROOT
BRANCH   2  11
ATOM     11  N   UNL d   1      29.995  16.249 -24.322  0.00  0.00    -0.224 NA
BRANCH  11  12
ATOM     12  C   UNL d   1      29.207  16.051 -24.219  0.00  0.00     0.110 A 
ATOM     13  C   UNL d   1      28.944  15.689 -23.525  0.00  0.00     0.158 A 
ATOM     14  C   UNL d   1      28.152  15.489 -23.421  0.00  0.00     0.038 A 
ATOM     15  F   UNL d   1      29.491  15.524 -22.919  0.00  0.00    -0.203 F 
ATOM     16  C   UNL d   1      27.605  15.654 -24.028  0.00  0.00     0.037 A 
ATOM     17  C   UNL d   1      27.866  16.019 -24.731  0.00  0.00     0.008 A 
ATOM     18 BR   UNL d   1      26.802  15.453 -23.925  0.00  0.00    -0.049 Br
ATOM     19  C   UNL d   1      28.659  16.216 -24.826  0.00  0.00     0.022 A 
ENDBRANCH  11  12
ENDBRANCH   2  11
BRANCH   8  20
ATOM     20  O   UNL d   1      32.494  16.733 -22.769  0.00  0.00    -0.326 OA
ATOM     21  C   UNL d   1      32.909  16.092 -23.083  0.00  0.00     0.181 C 
ENDBRANCH   8  20
BRANCH   7  22
ATOM     22  O   UNL d   1      32.908  18.311 -23.041  0.00  0.00    -0.303 OA
BRANCH  22  23
ATOM     23  C   UNL d   1      33.129  19.095 -23.185  0.00  0.00     0.123 C 
BRANCH  23  24
ATOM     24  C   UNL d   1      33.123  19.641 -22.563  0.00  0.00     0.028 A 
ATOM     25  C   UNL d   1      32.998  20.447 -22.718  0.00  0.00     0.021 A 
ATOM     26  C   UNL d   1      32.994  20.986 -22.096  0.00  0.00     0.080 A 
ATOM     27  N   UNL d   1      33.112  20.734 -21.314  0.00  0.00    -0.301 N 
ATOM     28  C   UNL d   1      33.235  19.933 -21.161  0.00  0.00     0.080 A 
ATOM     29  C   UNL d   1      33.106  21.288 -20.682  0.00  0.00     0.100 C 
ATOM     30  C   UNL d   1      33.241  19.385 -21.786  0.00  0.00     0.021 A 
ENDBRANCH  23  24
ENDBRANCH  22  23
ENDBRANCH   7  22
TORSDOF 6
ENDMDL
