MODEL 1
REMARK VINA RESULT:      -2.9      0.000      0.000
REMARK  3 active torsions:
REMARK  status: ('A' for Active; 'I' for Inactive)
REMARK    1  A    between atoms: C_2  and  C_1 
REMARK    2  A    between atoms: C_3  and  C_2 
REMARK    3  A    between atoms: C_8  and  C_2 
ROOT
ATOM      1  C   UNL d   1      31.945  17.147 -24.092  0.00  0.00     0.018 C 
ENDROOT
BRANCH   1   2
ATOM      2  C   UNL d   1      32.277  17.828 -23.750  0.00  0.00     0.078 A 
ATOM      3  C   UNL d   1      32.417  17.850 -22.858  0.00  0.00     0.195 A 
ATOM      4  C   UNL d   1      32.739  18.539 -22.605  0.00  0.00     0.019 A 
ATOM      5  O   UNL d   1      32.290  17.374 -22.386  0.00  0.00    -0.287 OA
ATOM      6  C   UNL d   1      32.934  19.181 -23.082  0.00  0.00     0.043 A 
ATOM      7  C   UNL d   1      32.802  19.150 -23.894  0.00  0.00     0.019 A 
ATOM      8  C   UNL d   1      33.241  19.951 -23.157  0.00  0.00     0.009 C 
ATOM      9  C   UNL d   1      33.142  19.411 -22.312  0.00  0.00     0.009 C 
ATOM     10  C   UNL d   1      32.473  18.474 -24.228  0.00  0.00     0.195 A 
ATOM     11  O   UNL d   1      32.341  18.447 -25.049  0.00  0.00    -0.287 OA
ENDBRANCH   1   2
BRANCH   1  12
ATOM     12  C   UNL d   1      31.122  17.086 -24.179  0.00  0.00     0.078 A 
ATOM     13  C   UNL d   1      30.688  16.602 -23.687  0.00  0.00     0.195 A 
ATOM     14  C   UNL d   1      29.875  16.539 -23.770  0.00  0.00     0.019 A 
ATOM     15  O   UNL d   1      31.082  16.168 -23.091  0.00  0.00    -0.287 OA
ATOM     16  C   UNL d   1      29.488  16.964 -24.353  0.00  0.00     0.043 A 
ATOM     17  C   UNL d   1      29.917  17.461 -24.861  0.00  0.00     0.019 A 
ATOM     18  C   UNL d   1      28.702  17.046 -24.603  0.00  0.00     0.009 C 
ATOM     19  C   UNL d   1      28.838  16.577 -24.017  0.00  0.00     0.009 C 
ATOM     20  C   UNL d   1      30.740  17.522 -24.774  0.00  0.00     0.195 A 
ATOM     21  O   UNL d   1      30.971  17.830 -25.096  0.00  0.00    -0.287 OA
ENDBRANCH   1  12
BRANCH   1  22
ATOM     22  C   UNL d   1      32.425  16.538 -24.343  0.00  0.00     0.030 A 
ATOM     23  S   UNL d   1      32.647  16.277 -25.097  0.00  0.00    -0.086 SA
ATOM     24  C   UNL d   1      33.146  15.632 -25.008  0.00  0.00     0.035 A 
ATOM     25  C   UNL d   1      33.241  15.484 -24.212  0.00  0.00     0.007 A 
ATOM     26  C   UNL d   1      32.797  16.042 -23.803  0.00  0.00     0.007 A 
ENDBRANCH   1  22
TORSDOF 3
ENDMDL
