MODEL 1
REMARK VINA RESULT:      16.9      0.000      0.000
REMARK  7 active torsions:
REMARK  status: ('A' for Active; 'I' for Inactive)
REMARK    1  A    between atoms: N_2  and  C_1 
REMARK    2  A    between atoms: S_4  and  C_3 
REMARK    3  A    between atoms: C_6  and  S_4 
REMARK    4  A    between atoms: C_5  and  C_8 
REMARK    5  A    between atoms: C_9  and  C_6 
REMARK    6  A    between atoms: O_14  and  C_9 
REMARK    7  A    between atoms: C_12  and  O_14 
ROOT
ATOM      1  S   UNL d   1      45.733 -16.153  44.403  0.00  0.00     0.096 S 
ATOM      2  O   UNL d   1      45.172 -16.508  44.882  0.00  0.00    -0.247 OA
ENDROOT
BRANCH   1   3
ATOM      3  C   UNL d   1      45.770 -15.327  44.356  0.00  0.00     0.082 A 
ATOM      4  C   UNL d   1      45.069 -14.875  44.270  0.00  0.00     0.135 A 
ATOM      5  C   UNL d   1      45.119 -14.053  44.225  0.00  0.00     0.028 A 
ATOM      6  C   UNL d   1      45.848 -13.670  44.262  0.00  0.00     0.073 A 
ATOM      7  C   UNL d   1      46.542 -14.117  44.347  0.00  0.00     0.005 A 
ATOM      8  C   UNL d   1      46.503 -14.945  44.394  0.00  0.00     0.011 A 
BRANCH   4   9
ATOM      9  N   UNL d   1      44.340 -15.259  44.233  0.00  0.00    -0.113 N 
ATOM     10  O   UNL d   1      43.904 -15.380  44.933  0.00  0.00    -0.532 OA
ATOM     11  O   UNL d   1      44.043 -15.524  43.504  0.00  0.00    -0.532 OA
ENDBRANCH   4   9
BRANCH   6  12
ATOM     12  C   UNL d   1      45.898 -12.848  44.216  0.00  0.00     0.419 C 
ATOM     13  F   UNL d   1      45.855 -12.264  44.864  0.00  0.00    -0.166 F 
ATOM     14  F   UNL d   1      45.942 -12.095  44.188  0.00  0.00    -0.166 F 
ATOM     15  F   UNL d   1      46.006 -12.331  43.526  0.00  0.00    -0.166 F 
ENDBRANCH   6  12
ENDBRANCH   1   3
BRANCH   1  16
ATOM     16  C   UNL d   1      46.261 -16.613  43.967  0.00  0.00     0.137 C 
BRANCH  16  17
ATOM     17  C   UNL d   1      46.172 -17.436  43.948  0.00  0.00     0.309 C 
ATOM     18  O   UNL d   1      45.607 -17.799  44.428  0.00  0.00    -0.258 OA
BRANCH  17  19
ATOM     19  O   UNL d   1      46.647 -17.891  43.451  0.00  0.00    -0.273 OA
BRANCH  19  20
ATOM     20  C   UNL d   1      46.600 -18.587  43.461  0.00  0.00     0.103 A 
ATOM     21  C   UNL d   1      46.542 -18.931  44.065  0.00  0.00     0.025 A 
ATOM     22  C   UNL d   1      46.495 -19.633  44.079  0.00  0.00     0.002 A 
ATOM     23  C   UNL d   1      46.437 -19.977  44.684  0.00  0.00     0.000 C 
ATOM     24  C   UNL d   1      46.506 -19.987  43.473  0.00  0.00     0.000 A 
ATOM     25  C   UNL d   1      46.564 -19.638  42.853  0.00  0.00     0.002 A 
ATOM     26  C   UNL d   1      46.611 -18.940  42.854  0.00  0.00     0.025 A 
ATOM     27  C   UNL d   1      46.575 -19.998  42.236  0.00  0.00     0.000 C 
ENDBRANCH  19  20
ENDBRANCH  17  19
ENDBRANCH  16  17
ENDBRANCH   1  16
TORSDOF 7
ENDMDL
