MODEL 1
REMARK VINA RESULT:      -3.6      0.000      0.000
REMARK  8 active torsions:
REMARK  status: ('A' for Active; 'I' for Inactive)
REMARK    1  A    between atoms: O_18  and  C_5 
REMARK    2  A    between atoms: C_7  and  C_15 
REMARK       I    between atoms: N_14  and  C_7 
REMARK    3  A    between atoms: O_10  and  C_8 
REMARK    4  A    between atoms: O_19  and  C_9 
REMARK    5  A    between atoms: C_15  and  O_10 
REMARK    6  A    between atoms: C_20  and  N_14 
REMARK    7  A    between atoms: C_16  and  C_26 
REMARK    8  A    between atoms: C_26  and  C_20 
ROOT
ATOM      1  C   UNL d   1      57.785  -0.791  30.219  0.00  0.00     0.304 C 
ATOM      2  O   UNL d   1      57.532  -1.524  30.509  0.00  0.00    -0.263 OA
ATOM      3  N   UNL d   1      57.560  -0.090  30.581  0.00  0.00    -0.205 NA
ENDROOT
BRANCH   1   4
ATOM      4  C   UNL d   1      58.275  -0.768  29.552  0.00  0.00     0.185 C 
BRANCH   4   5
ATOM      5  O   UNL d   1      58.600  -1.464  29.259  0.00  0.00    -0.298 OA
BRANCH   5   6
ATOM      6  C   UNL d   1      59.407  -1.516  29.137  0.00  0.00     0.122 A 
ATOM      7  C   UNL d   1      59.756  -2.248  28.983  0.00  0.00     0.117 A 
ATOM      8  O   UNL d   1      59.431  -3.010  28.918  0.00  0.00    -0.330 OA
ATOM      9  C   UNL d   1      60.571  -2.300  28.860  0.00  0.00     0.022 A 
ATOM     10  C   UNL d   1      60.054  -3.535  28.755  0.00  0.00     0.117 A 
ATOM     11  C   UNL d   1      59.428  -4.068  28.766  0.00  0.00     0.035 C 
ATOM     12  C   UNL d   1      60.716  -3.976  28.598  0.00  0.00     0.035 C 
ATOM     13  C   UNL d   1      60.753  -3.096  28.719  0.00  0.00     0.003 A 
ATOM     14  C   UNL d   1      61.035  -1.621  28.892  0.00  0.00     0.002 A 
ATOM     15  C   UNL d   1      60.689  -0.901  29.045  0.00  0.00     0.002 A 
ATOM     16  C   UNL d   1      59.874  -0.849  29.168  0.00  0.00     0.027 A 
ENDBRANCH   5   6
ENDBRANCH   4   5
ENDBRANCH   1   4
BRANCH   3  17
ATOM     17  C   UNL d   1      57.076  -0.113  31.240  0.00  0.00     0.102 C 
BRANCH  17  18
ATOM     18  C   UNL d   1      57.013   0.548  31.731  0.00  0.00     0.021 C 
BRANCH  18  19
ATOM     19  C   UNL d   1      56.572   0.505  32.429  0.00  0.00     0.004 A 
ATOM     20  C   UNL d   1      56.935   0.612  33.150  0.00  0.00     0.026 A 
ATOM     21  C   UNL d   1      56.502   0.571  33.852  0.00  0.00     0.116 A 
ATOM     22  C   UNL d   1      55.691   0.421  33.820  0.00  0.00     0.116 A 
ATOM     23  C   UNL d   1      55.320   0.312  33.094  0.00  0.00     0.026 A 
ATOM     24  C   UNL d   1      55.750   0.352  32.389  0.00  0.00     0.002 A 
BRANCH  21  25
ATOM     25  O   UNL d   1      56.867   0.678  34.571  0.00  0.00    -0.326 OA
ATOM     26  C   UNL d   1      57.671   0.472  34.669  0.00  0.00     0.181 C 
ENDBRANCH  21  25
BRANCH  22  27
ATOM     27  O   UNL d   1      55.249   0.378  34.518  0.00  0.00    -0.326 OA
ATOM     28  C   UNL d   1      54.433   0.497  34.498  0.00  0.00     0.181 C 
ENDBRANCH  22  27
ENDBRANCH  18  19
ENDBRANCH  17  18
ENDBRANCH   3  17
TORSDOF 8
ENDMDL
MODEL 2
REMARK VINA RESULT:      -1.6      0.994      6.283
REMARK  8 active torsions:
REMARK  status: ('A' for Active; 'I' for Inactive)
REMARK    1  A    between atoms: O_18  and  C_5 
REMARK    2  A    between atoms: C_7  and  C_15 
REMARK       I    between atoms: N_14  and  C_7 
REMARK    3  A    between atoms: O_10  and  C_8 
REMARK    4  A    between atoms: O_19  and  C_9 
REMARK    5  A    between atoms: C_15  and  O_10 
REMARK    6  A    between atoms: C_20  and  N_14 
REMARK    7  A    between atoms: C_16  and  C_26 
REMARK    8  A    between atoms: C_26  and  C_20 
ROOT
ATOM      1  C   UNL d   1      57.706   0.438  30.899  0.00  0.00     0.304 C 
ATOM      2  O   UNL d   1      57.028   0.540  30.435  0.00  0.00    -0.263 OA
ATOM      3  N   UNL d   1      58.387   0.101  30.589  0.00  0.00    -0.205 NA
ENDROOT
BRANCH   1   4
ATOM      4  C   UNL d   1      57.695   0.682  31.690  0.00  0.00     0.185 C 
BRANCH   4   5
ATOM      5  O   UNL d   1      57.005   0.605  32.131  0.00  0.00    -0.298 OA
BRANCH   5   6
ATOM      6  C   UNL d   1      57.041   0.623  32.948  0.00  0.00     0.122 A 
ATOM      7  C   UNL d   1      56.347   0.608  33.394  0.00  0.00     0.117 A 
ATOM      8  O   UNL d   1      55.547   0.576  33.167  0.00  0.00    -0.330 OA
ATOM      9  C   UNL d   1      56.383   0.626  34.219  0.00  0.00     0.022 A 
ATOM     10  C   UNL d   1      55.090   0.574  33.860  0.00  0.00     0.117 A 
ATOM     11  C   UNL d   1      54.488   0.542  33.302  0.00  0.00     0.035 C 
ATOM     12  C   UNL d   1      54.721   0.576  34.582  0.00  0.00     0.035 C 
ATOM     13  C   UNL d   1      55.607   0.605  34.505  0.00  0.00     0.003 A 
ATOM     14  C   UNL d   1      57.114   0.659  34.595  0.00  0.00     0.002 A 
ATOM     15  C   UNL d   1      57.797   0.674  34.155  0.00  0.00     0.002 A 
ATOM     16  C   UNL d   1      57.760   0.656  33.330  0.00  0.00     0.027 A 
ENDBRANCH   5   6
ENDBRANCH   4   5
ENDBRANCH   1   4
BRANCH   3  17
ATOM     17  C   UNL d   1      58.398  -0.140  29.807  0.00  0.00     0.102 C 
BRANCH  17  18
ATOM     18  C   UNL d   1      58.217  -0.921  29.612  0.00  0.00     0.021 C 
BRANCH  18  19
ATOM     19  C   UNL d   1      58.806  -1.424  29.322  0.00  0.00     0.004 A 
ATOM     20  C   UNL d   1      58.644  -2.212  29.193  0.00  0.00     0.026 A 
ATOM     21  C   UNL d   1      59.227  -2.721  28.904  0.00  0.00     0.116 A 
ATOM     22  C   UNL d   1      59.981  -2.426  28.745  0.00  0.00     0.116 A 
ATOM     23  C   UNL d   1      60.149  -1.631  28.874  0.00  0.00     0.026 A 
ATOM     24  C   UNL d   1      59.568  -1.118  29.164  0.00  0.00     0.002 A 
BRANCH  21  25
ATOM     25  O   UNL d   1      59.063  -3.507  28.775  0.00  0.00    -0.326 OA
ATOM     26  C   UNL d   1      58.290  -3.800  28.892  0.00  0.00     0.181 C 
ENDBRANCH  21  25
BRANCH  22  27
ATOM     27  O   UNL d   1      60.571  -2.929  28.455  0.00  0.00    -0.326 OA
ATOM     28  C   UNL d   1      61.118  -3.264  28.973  0.00  0.00     0.181 C 
ENDBRANCH  22  27
ENDBRANCH  18  19
ENDBRANCH  17  18
ENDBRANCH   3  17
TORSDOF 8
ENDMDL
MODEL 3
REMARK VINA RESULT:      -1.3      0.963      1.673
REMARK  8 active torsions:
REMARK  status: ('A' for Active; 'I' for Inactive)
REMARK    1  A    between atoms: O_18  and  C_5 
REMARK    2  A    between atoms: C_7  and  C_15 
REMARK       I    between atoms: N_14  and  C_7 
REMARK    3  A    between atoms: O_10  and  C_8 
REMARK    4  A    between atoms: O_19  and  C_9 
REMARK    5  A    between atoms: C_15  and  O_10 
REMARK    6  A    between atoms: C_20  and  N_14 
REMARK    7  A    between atoms: C_16  and  C_26 
REMARK    8  A    between atoms: C_26  and  C_20 
ROOT
ATOM      1  C   UNL d   1      57.178  -0.028  30.634  0.00  0.00     0.304 C 
ATOM      2  O   UNL d   1      57.017   0.659  30.200  0.00  0.00    -0.263 OA
ATOM      3  N   UNL d   1      57.104  -0.040  31.451  0.00  0.00    -0.205 NA
ENDROOT
BRANCH   1   4
ATOM      4  C   UNL d   1      57.419  -0.711  30.235  0.00  0.00     0.185 C 
BRANCH   4   5
ATOM      5  O   UNL d   1      58.146  -0.726  29.850  0.00  0.00    -0.298 OA
BRANCH   5   6
ATOM      6  C   UNL d   1      58.438  -1.433  29.560  0.00  0.00     0.122 A 
ATOM      7  C   UNL d   1      59.208  -1.473  29.267  0.00  0.00     0.117 A 
ATOM      8  O   UNL d   1      59.802  -0.894  29.197  0.00  0.00    -0.330 OA
ATOM      9  C   UNL d   1      59.503  -2.187  28.974  0.00  0.00     0.022 A 
ATOM     10  C   UNL d   1      60.467  -1.258  28.858  0.00  0.00     0.117 A 
ATOM     11  C   UNL d   1      60.761  -0.496  28.947  0.00  0.00     0.035 C 
ATOM     12  C   UNL d   1      61.069  -1.689  28.526  0.00  0.00     0.035 C 
ATOM     13  C   UNL d   1      60.281  -2.052  28.722  0.00  0.00     0.003 A 
ATOM     14  C   UNL d   1      59.027  -2.858  28.976  0.00  0.00     0.002 A 
ATOM     15  C   UNL d   1      58.269  -2.817  29.266  0.00  0.00     0.002 A 
ATOM     16  C   UNL d   1      57.974  -2.103  29.558  0.00  0.00     0.027 A 
ENDBRANCH   5   6
ENDBRANCH   4   5
ENDBRANCH   1   4
BRANCH   3  17
ATOM     17  C   UNL d   1      56.867   0.636  31.846  0.00  0.00     0.102 C 
BRANCH  17  18
ATOM     18  C   UNL d   1      56.899   0.668  32.670  0.00  0.00     0.021 C 
BRANCH  18  19
ATOM     19  C   UNL d   1      56.203   0.627  33.114  0.00  0.00     0.004 A 
ATOM     20  C   UNL d   1      56.240   0.553  33.925  0.00  0.00     0.026 A 
ATOM     21  C   UNL d   1      55.549   0.512  34.377  0.00  0.00     0.116 A 
ATOM     22  C   UNL d   1      54.815   0.547  34.001  0.00  0.00     0.116 A 
ATOM     23  C   UNL d   1      54.774   0.622  33.183  0.00  0.00     0.026 A 
ATOM     24  C   UNL d   1      55.463   0.664  32.727  0.00  0.00     0.002 A 
BRANCH  21  25
ATOM     25  O   UNL d   1      55.588   0.438  35.186  0.00  0.00    -0.326 OA
ATOM     26  C   UNL d   1      56.273   0.679  35.599  0.00  0.00     0.181 C 
ENDBRANCH  21  25
BRANCH  22  27
ATOM     27  O   UNL d   1      54.119   0.507  34.446  0.00  0.00    -0.326 OA
ATOM     28  C   UNL d   1      53.387   0.487  34.066  0.00  0.00     0.181 C 
ENDBRANCH  22  27
ENDBRANCH  18  19
ENDBRANCH  17  18
ENDBRANCH   3  17
TORSDOF 8
ENDMDL
