MODEL 1
REMARK VINA RESULT:      15.8      0.000      0.000
REMARK  4 active torsions:
REMARK  status: ('A' for Active; 'I' for Inactive)
REMARK    1  A    between atoms: C_2  and  S_1 
REMARK    2  A    between atoms: N_3  and  S_1 
REMARK    3  A    between atoms: C_4  and  N_3 
REMARK    4  A    between atoms: O_12  and  C_10 
ROOT
ATOM      1  N   UNL d   1     -57.497 -98.810 -45.032  0.00  0.00    -0.156 NA
ENDROOT
BRANCH   1   2
ATOM      2  S   UNL d   1     -56.703 -98.998 -44.767  0.00  0.00     0.291 S 
ATOM      3  O   UNL d   1     -56.409 -98.776 -45.510  0.00  0.00    -0.198 OA
ATOM      4  O   UNL d   1     -57.003 -99.219 -44.026  0.00  0.00    -0.198 OA
BRANCH   2   5
ATOM      5  C   UNL d   1     -55.936 -99.180 -44.511  0.00  0.00     0.135 A 
ATOM      6  S   UNL d   1     -55.412 -98.757 -44.053  0.00  0.00    -0.073 SA
ATOM      7  C   UNL d   1     -54.748 -99.210 -43.984  0.00  0.00     0.036 A 
ATOM      8  C   UNL d   1     -54.854 -99.889 -44.383  0.00  0.00     0.008 A 
ATOM      9  C   UNL d   1     -55.590 -99.902 -44.725  0.00  0.00     0.020 A 
ENDBRANCH   2   5
ENDBRANCH   1   2
BRANCH   1  10
ATOM     10  C   UNL d   1     -58.139 -98.794 -44.463  0.00  0.00     0.116 A 
ATOM     11  C   UNL d   1     -58.957 -98.770 -44.741  0.00  0.00     0.112 A 
ATOM     12  C   UNL d   1     -59.557 -98.755 -44.245  0.00  0.00     0.026 A 
ATOM     13  C   UNL d   1     -59.432 -98.762 -43.422  0.00  0.00     0.002 A 
ATOM     14  C   UNL d   1     -58.660 -98.784 -43.132  0.00  0.00     0.002 A 
ATOM     15  C   UNL d   1     -58.013 -98.800 -43.666  0.00  0.00     0.022 A 
BRANCH  11  16
ATOM     16  O   UNL d   1     -59.133 -98.763 -45.566  0.00  0.00    -0.327 OA
ATOM     17  C   UNL d   1     -59.896 -98.793 -45.826  0.00  0.00     0.181 C 
ENDBRANCH  11  16
ENDBRANCH   1  10
TORSDOF 4
ENDMDL
