MODEL 1
REMARK VINA RESULT:      -3.5      0.000      0.000
REMARK  1 active torsions:
REMARK  status: ('A' for Active; 'I' for Inactive)
REMARK    1  A    between atoms: C_2  and  C_1 
REMARK       I    between atoms: N_6  and  C_2 
ROOT
ATOM      1  C   UNL d   1      56.581  -0.404  32.758  0.00  0.00     0.057 A 
ATOM      2  C   UNL d   1      55.794  -0.406  32.997  0.00  0.00     0.005 A 
ATOM      3  C   UNL d   1      55.577  -0.041  33.715  0.00  0.00     0.001 A 
ATOM      4  C   UNL d   1      57.155  -0.041  33.228  0.00  0.00     0.011 A 
ATOM      5  C   UNL d   1      56.153   0.319  34.179  0.00  0.00     0.006 A 
ATOM      6  C   UNL d   1      56.940   0.322  33.941  0.00  0.00     0.035 A 
ATOM      7 BR   UNL d   1      57.515   0.682  34.406  0.00  0.00    -0.049 Br
ATOM      8  C   UNL d   1      55.089  -0.701  32.689  0.00  0.00     0.000 C 
ATOM      9  C   UNL d   1      54.763  -0.152  33.769  0.00  0.00     0.000 C 
ATOM     10  C   UNL d   1      55.939   0.681  34.892  0.00  0.00     0.001 C 
ENDROOT
BRANCH   1  11
ATOM     11  C   UNL d   1      56.798  -0.764  32.047  0.00  0.00     0.265 C 
ATOM     12  N   UNL d   1      57.180  -0.325  31.461  0.00  0.00    -0.272 N 
ATOM     13  C   UNL d   1      57.380   0.470  31.505  0.00  0.00     0.083 A 
ATOM     14  C   UNL d   1      57.428  -0.611  30.727  0.00  0.00     0.083 A 
ATOM     15  C   UNL d   1      57.752   0.682  30.802  0.00  0.00     0.021 A 
ATOM     16  C   UNL d   1      57.781   0.013  30.319  0.00  0.00     0.021 A 
ATOM     17  O   UNL d   1      56.633  -1.561  31.923  0.00  0.00    -0.267 OA
ENDBRANCH   1  11
TORSDOF 1
ENDMDL
MODEL 2
REMARK VINA RESULT:      -3.3      3.055      5.189
REMARK  1 active torsions:
REMARK  status: ('A' for Active; 'I' for Inactive)
REMARK    1  A    between atoms: C_2  and  C_1 
REMARK       I    between atoms: N_6  and  C_2 
ROOT
ATOM      1  C   UNL d   1      59.067  -0.734  29.164  0.00  0.00     0.057 A 
ATOM      2  C   UNL d   1      59.887  -0.673  29.207  0.00  0.00     0.005 A 
ATOM      3  C   UNL d   1      60.358  -1.355  29.122  0.00  0.00     0.001 A 
ATOM      4  C   UNL d   1      58.713  -1.469  29.037  0.00  0.00     0.011 A 
ATOM      5  C   UNL d   1      60.001  -2.085  28.995  0.00  0.00     0.006 A 
ATOM      6  C   UNL d   1      59.182  -2.147  28.952  0.00  0.00     0.035 A 
ATOM      7 BR   UNL d   1      58.825  -2.877  28.826  0.00  0.00    -0.049 Br
ATOM      8  C   UNL d   1      60.423  -0.058  29.323  0.00  0.00     0.000 C 
ATOM      9  C   UNL d   1      61.133  -1.085  29.195  0.00  0.00     0.000 C 
ATOM     10  C   UNL d   1      60.468  -2.763  28.911  0.00  0.00     0.001 C 
ENDROOT
BRANCH   1  11
ATOM     11  C   UNL d   1      58.598  -0.059  29.248  0.00  0.00     0.265 C 
ATOM     12  N   UNL d   1      58.134   0.039  29.923  0.00  0.00    -0.272 N 
ATOM     13  C   UNL d   1      58.081  -0.484  30.555  0.00  0.00     0.083 A 
ATOM     14  C   UNL d   1      57.640   0.682  30.082  0.00  0.00     0.083 A 
ATOM     15  C   UNL d   1      57.557  -0.169  31.106  0.00  0.00     0.021 A 
ATOM     16  C   UNL d   1      57.284   0.552  30.814  0.00  0.00     0.021 A 
ATOM     17  O   UNL d   1      58.594   0.515  28.658  0.00  0.00    -0.267 OA
ENDBRANCH   1  11
TORSDOF 1
ENDMDL
MODEL 3
REMARK VINA RESULT:      -3.2      1.651      3.279
REMARK  1 active torsions:
REMARK  status: ('A' for Active; 'I' for Inactive)
REMARK    1  A    between atoms: C_2  and  C_1 
REMARK       I    between atoms: N_6  and  C_2 
ROOT
ATOM      1  C   UNL d   1      55.638   0.003  33.324  0.00  0.00     0.057 A 
ATOM      2  C   UNL d   1      55.589  -0.792  33.116  0.00  0.00     0.005 A 
ATOM      3  C   UNL d   1      56.094  -1.099  32.529  0.00  0.00     0.001 A 
ATOM      4  C   UNL d   1      56.186   0.494  32.951  0.00  0.00     0.011 A 
ATOM      5  C   UNL d   1      56.639  -0.606  32.160  0.00  0.00     0.006 A 
ATOM      6  C   UNL d   1      56.689   0.189  32.367  0.00  0.00     0.035 A 
ATOM      7 BR   UNL d   1      57.234   0.682  31.998  0.00  0.00    -0.049 Br
ATOM      8  C   UNL d   1      55.129  -1.432  33.356  0.00  0.00     0.000 C 
ATOM      9  C   UNL d   1      55.889  -1.895  32.472  0.00  0.00     0.000 C 
ATOM     10  C   UNL d   1      57.141  -0.910  31.577  0.00  0.00     0.001 C 
ENDROOT
BRANCH   1  11
ATOM     11  C   UNL d   1      55.138   0.310  33.906  0.00  0.00     0.265 C 
ATOM     12  N   UNL d   1      55.407   0.385  34.683  0.00  0.00    -0.272 N 
ATOM     13  C   UNL d   1      56.153   0.179  34.959  0.00  0.00     0.083 A 
ATOM     14  C   UNL d   1      54.972   0.680  35.319  0.00  0.00     0.083 A 
ATOM     15  C   UNL d   1      56.184   0.345  35.765  0.00  0.00     0.021 A 
ATOM     16  C   UNL d   1      55.452   0.655  35.988  0.00  0.00     0.021 A 
ATOM     17  O   UNL d   1      54.372   0.541  33.711  0.00  0.00    -0.267 OA
ENDBRANCH   1  11
TORSDOF 1
ENDMDL
MODEL 4
REMARK VINA RESULT:      -2.9      2.645      4.718
REMARK  1 active torsions:
REMARK  status: ('A' for Active; 'I' for Inactive)
REMARK    1  A    between atoms: C_2  and  C_1 
REMARK       I    between atoms: N_6  and  C_2 
ROOT
ATOM      1  C   UNL d   1      58.879  -0.027  29.510  0.00  0.00     0.057 A 
ATOM      2  C   UNL d   1      58.955  -0.781  29.187  0.00  0.00     0.005 A 
ATOM      3  C   UNL d   1      59.712  -1.095  29.038  0.00  0.00     0.001 A 
ATOM      4  C   UNL d   1      59.553   0.416  29.686  0.00  0.00     0.011 A 
ATOM      5  C   UNL d   1      60.380  -0.649  29.215  0.00  0.00     0.006 A 
ATOM      6  C   UNL d   1      60.307   0.103  29.538  0.00  0.00     0.035 A 
ATOM      7 BR   UNL d   1      60.975   0.549  29.715  0.00  0.00    -0.049 Br
ATOM      8  C   UNL d   1      58.430  -1.369  28.946  0.00  0.00     0.000 C 
ATOM      9  C   UNL d   1      59.571  -1.842  28.722  0.00  0.00     0.000 C 
ATOM     10  C   UNL d   1      61.133  -0.960  29.068  0.00  0.00     0.001 C 
ENDROOT
BRANCH   1  11
ATOM     11  C   UNL d   1      58.129   0.285  29.658  0.00  0.00     0.265 C 
ATOM     12  N   UNL d   1      57.868   0.378  30.435  0.00  0.00    -0.272 N 
ATOM     13  C   UNL d   1      58.288   0.185  31.114  0.00  0.00     0.083 A 
ATOM     14  C   UNL d   1      57.135   0.682  30.666  0.00  0.00     0.083 A 
ATOM     15  C   UNL d   1      57.820   0.368  31.767  0.00  0.00     0.021 A 
ATOM     16  C   UNL d   1      57.106   0.675  31.490  0.00  0.00     0.021 A 
ATOM     17  O   UNL d   1      57.643   0.505  29.031  0.00  0.00    -0.267 OA
ENDBRANCH   1  11
TORSDOF 1
ENDMDL
MODEL 5
REMARK VINA RESULT:      -2.4      3.843      5.205
REMARK  1 active torsions:
REMARK  status: ('A' for Active; 'I' for Inactive)
REMARK    1  A    between atoms: C_2  and  C_1 
REMARK       I    between atoms: N_6  and  C_2 
ROOT
ATOM      1  C   UNL d   1      59.310  -1.738  29.004  0.00  0.00     0.057 A 
ATOM      2  C   UNL d   1      58.781  -1.397  29.536  0.00  0.00     0.005 A 
ATOM      3  C   UNL d   1      58.834  -0.584  29.710  0.00  0.00     0.001 A 
ATOM      4  C   UNL d   1      59.890  -1.274  28.644  0.00  0.00     0.011 A 
ATOM      5  C   UNL d   1      59.413  -0.126  29.349  0.00  0.00     0.006 A 
ATOM      6  C   UNL d   1      59.942  -0.465  28.817  0.00  0.00     0.035 A 
ATOM      7 BR   UNL d   1      60.522  -0.007  28.456  0.00  0.00    -0.049 Br
ATOM      8  C   UNL d   1      58.150  -1.671  29.989  0.00  0.00     0.000 C 
ATOM      9  C   UNL d   1      58.229  -0.446  30.251  0.00  0.00     0.000 C 
ATOM     10  C   UNL d   1      59.467   0.682  29.520  0.00  0.00     0.001 C 
ENDROOT
BRANCH   1  11
ATOM     11  C   UNL d   1      59.260  -2.544  28.830  0.00  0.00     0.265 C 
ATOM     12  N   UNL d   1      59.880  -3.048  29.033  0.00  0.00    -0.272 N 
ATOM     13  C   UNL d   1      60.579  -2.831  29.408  0.00  0.00     0.083 A 
ATOM     14  C   UNL d   1      59.907  -3.863  28.895  0.00  0.00     0.083 A 
ATOM     15  C   UNL d   1      61.041  -3.507  29.503  0.00  0.00     0.021 A 
ATOM     16  C   UNL d   1      60.625  -4.145  29.186  0.00  0.00     0.021 A 
ATOM     17  O   UNL d   1      58.591  -2.843  28.455  0.00  0.00    -0.267 OA
ENDBRANCH   1  11
TORSDOF 1
ENDMDL
MODEL 6
REMARK VINA RESULT:      -2.2      1.616      2.626
REMARK  1 active torsions:
REMARK  status: ('A' for Active; 'I' for Inactive)
REMARK    1  A    between atoms: C_2  and  C_1 
REMARK       I    between atoms: N_6  and  C_2 
ROOT
ATOM      1  C   UNL d   1      57.632  -0.109  31.074  0.00  0.00     0.057 A 
ATOM      2  C   UNL d   1      58.081   0.263  31.655  0.00  0.00     0.005 A 
ATOM      3  C   UNL d   1      57.818   0.266  32.445  0.00  0.00     0.001 A 
ATOM      4  C   UNL d   1      56.922  -0.478  31.274  0.00  0.00     0.011 A 
ATOM      5  C   UNL d   1      57.109  -0.104  32.640  0.00  0.00     0.006 A 
ATOM      6  C   UNL d   1      56.659  -0.476  32.061  0.00  0.00     0.035 A 
ATOM      7 BR   UNL d   1      55.951  -0.845  32.256  0.00  0.00    -0.049 Br
ATOM      8  C   UNL d   1      58.794   0.676  31.668  0.00  0.00     0.000 C 
ATOM      9  C   UNL d   1      58.397   0.680  32.858  0.00  0.00     0.000 C 
ATOM     10  C   UNL d   1      56.846  -0.102  33.425  0.00  0.00     0.001 C 
ENDROOT
BRANCH   1  11
ATOM     11  C   UNL d   1      57.892  -0.113  30.290  0.00  0.00     0.265 C 
ATOM     12  N   UNL d   1      58.167  -0.812  29.950  0.00  0.00    -0.272 N 
ATOM     13  C   UNL d   1      58.215  -1.544  30.320  0.00  0.00     0.083 A 
ATOM     14  C   UNL d   1      58.443  -0.899  29.176  0.00  0.00     0.083 A 
ATOM     15  C   UNL d   1      58.520  -2.087  29.780  0.00  0.00     0.021 A 
ATOM     16  C   UNL d   1      58.661  -1.687  29.072  0.00  0.00     0.021 A 
ATOM     17  O   UNL d   1      57.876   0.582  29.847  0.00  0.00    -0.267 OA
ENDBRANCH   1  11
TORSDOF 1
ENDMDL
MODEL 7
REMARK VINA RESULT:      -2.1      1.190      1.636
REMARK  1 active torsions:
REMARK  status: ('A' for Active; 'I' for Inactive)
REMARK    1  A    between atoms: C_2  and  C_1 
REMARK       I    between atoms: N_6  and  C_2 
ROOT
ATOM      1  C   UNL d   1      56.968  -0.097  31.898  0.00  0.00     0.057 A 
ATOM      2  C   UNL d   1      56.658  -0.859  31.933  0.00  0.00     0.005 A 
ATOM      3  C   UNL d   1      56.252  -1.111  32.615  0.00  0.00     0.001 A 
ATOM      4  C   UNL d   1      56.875   0.416  32.537  0.00  0.00     0.011 A 
ATOM      5  C   UNL d   1      56.162  -0.595  33.250  0.00  0.00     0.006 A 
ATOM      6  C   UNL d   1      56.471   0.166  33.216  0.00  0.00     0.035 A 
ATOM      7 BR   UNL d   1      56.382   0.681  33.851  0.00  0.00    -0.049 Br
ATOM      8  C   UNL d   1      56.639  -1.507  31.424  0.00  0.00     0.000 C 
ATOM      9  C   UNL d   1      56.027  -1.886  32.452  0.00  0.00     0.000 C 
ATOM     10  C   UNL d   1      55.759  -0.843  33.929  0.00  0.00     0.001 C 
ENDROOT
BRANCH   1  11
ATOM     11  C   UNL d   1      57.371   0.154  31.222  0.00  0.00     0.265 C 
ATOM     12  N   UNL d   1      58.177   0.324  31.262  0.00  0.00    -0.272 N 
ATOM     13  C   UNL d   1      58.651   0.270  31.932  0.00  0.00     0.083 A 
ATOM     14  C   UNL d   1      58.651   0.579  30.635  0.00  0.00     0.083 A 
ATOM     15  C   UNL d   1      59.417   0.490  31.724  0.00  0.00     0.021 A 
ATOM     16  C   UNL d   1      59.417   0.682  30.921  0.00  0.00     0.021 A 
ATOM     17  O   UNL d   1      56.968   0.234  30.508  0.00  0.00    -0.267 OA
ENDBRANCH   1  11
TORSDOF 1
ENDMDL
MODEL 8
REMARK VINA RESULT:      -1.6      1.597      3.149
REMARK  1 active torsions:
REMARK  status: ('A' for Active; 'I' for Inactive)
REMARK    1  A    between atoms: C_2  and  C_1 
REMARK       I    between atoms: N_6  and  C_2 
ROOT
ATOM      1  C   UNL d   1      56.793   0.208  32.374  0.00  0.00     0.057 A 
ATOM      2  C   UNL d   1      57.500   0.381  32.758  0.00  0.00     0.005 A 
ATOM      3  C   UNL d   1      58.187   0.533  32.312  0.00  0.00     0.001 A 
ATOM      4  C   UNL d   1      56.765   0.185  31.550  0.00  0.00     0.011 A 
ATOM      5  C   UNL d   1      58.154   0.510  31.491  0.00  0.00     0.006 A 
ATOM      6  C   UNL d   1      57.448   0.337  31.106  0.00  0.00     0.035 A 
ATOM      7 BR   UNL d   1      57.415   0.313  30.285  0.00  0.00    -0.049 Br
ATOM      8  C   UNL d   1      57.738   0.452  33.544  0.00  0.00     0.000 C 
ATOM      9  C   UNL d   1      58.772   0.681  32.872  0.00  0.00     0.000 C 
ATOM     10  C   UNL d   1      58.836   0.661  31.046  0.00  0.00     0.001 C 
ENDROOT
BRANCH   1  11
ATOM     11  C   UNL d   1      56.111   0.056  32.815  0.00  0.00     0.265 C 
ATOM     12  N   UNL d   1      55.841  -0.719  32.905  0.00  0.00    -0.272 N 
ATOM     13  C   UNL d   1      56.191  -1.393  32.591  0.00  0.00     0.083 A 
ATOM     14  C   UNL d   1      55.171  -0.953  33.327  0.00  0.00     0.083 A 
ATOM     15  C   UNL d   1      55.742  -2.045  32.816  0.00  0.00     0.021 A 
ATOM     16  C   UNL d   1      55.110  -1.773  33.272  0.00  0.00     0.021 A 
ATOM     17  O   UNL d   1      55.699   0.678  33.164  0.00  0.00    -0.267 OA
ENDBRANCH   1  11
TORSDOF 1
ENDMDL
MODEL 9
REMARK VINA RESULT:      -1.5      9.634      9.908
REMARK  1 active torsions:
REMARK  status: ('A' for Active; 'I' for Inactive)
REMARK    1  A    between atoms: C_2  and  C_1 
REMARK       I    between atoms: N_6  and  C_2 
ROOT
ATOM      1  C   UNL d   1      59.892  -9.406  33.608  0.00  0.00     0.057 A 
ATOM      2  C   UNL d   1      60.465  -8.894  33.905  0.00  0.00     0.005 A 
ATOM      3  C   UNL d   1      60.459  -8.688  34.712  0.00  0.00     0.001 A 
ATOM      4  C   UNL d   1      59.314  -9.714  34.110  0.00  0.00     0.011 A 
ATOM      5  C   UNL d   1      59.881  -8.997  35.208  0.00  0.00     0.006 A 
ATOM      6  C   UNL d   1      59.308  -9.509  34.913  0.00  0.00     0.035 A 
ATOM      7 BR   UNL d   1      58.730  -9.818  35.409  0.00  0.00    -0.049 Br
ATOM      8  C   UNL d   1      61.108  -8.489  33.587  0.00  0.00     0.000 C 
ATOM      9  C   UNL d   1      61.100  -8.178  34.803  0.00  0.00     0.000 C 
ATOM     10  C   UNL d   1      59.874  -8.793  36.010  0.00  0.00     0.001 C 
ENDROOT
BRANCH   1  11
ATOM     11  C   UNL d   1      59.896  -9.611  32.808  0.00  0.00     0.265 C 
ATOM     12  N   UNL d   1      59.190  -9.622  32.382  0.00  0.00    -0.272 N 
ATOM     13  C   UNL d   1      58.444  -9.444  32.676  0.00  0.00     0.083 A 
ATOM     14  C   UNL d   1      59.109  -9.816  31.583  0.00  0.00     0.083 A 
ATOM     15  C   UNL d   1      57.899  -9.525  32.064  0.00  0.00     0.021 A 
ATOM     16  C   UNL d   1      58.311  -9.756  31.387  0.00  0.00     0.021 A 
ATOM     17  O   UNL d   1      60.605  -9.805  32.436  0.00  0.00    -0.267 OA
ENDBRANCH   1  11
TORSDOF 1
ENDMDL
