MODEL 1
REMARK VINA RESULT:      -1.3      0.000      0.000
REMARK  3 active torsions:
REMARK  status: ('A' for Active; 'I' for Inactive)
REMARK    1  A    between atoms: N_2  and  C_1 
REMARK    2  A    between atoms: C_4  and  C_8 
REMARK    3  A    between atoms: N_14  and  C_5 
ROOT
ATOM      1  C   UNL d   1      32.463  21.744 -21.165  0.00  0.00     0.143 A 
ATOM      2  C   UNL d   1      32.773  22.355 -21.620  0.00  0.00     0.086 A 
ATOM      3  C   UNL d   1      32.539  20.957 -21.416  0.00  0.00     0.027 A 
ATOM      4  C   UNL d   1      32.930  20.787 -22.132  0.00  0.00     0.021 A 
ATOM      5  C   UNL d   1      33.159  22.187 -22.328  0.00  0.00     0.019 A 
ATOM      6  C   UNL d   1      33.241  21.406 -22.588  0.00  0.00     0.003 A 
ENDROOT
BRANCH   4   7
ATOM      7  C   UNL d   1      33.007  20.008 -22.384  0.00  0.00     0.103 A 
ATOM      8  N   UNL d   1      33.124  19.404 -21.833  0.00  0.00    -0.145 NA
ATOM      9  N   UNL d   1      33.201  18.626 -22.086  0.00  0.00    -0.106 NA
ATOM     10  C   UNL d   1      33.162  18.447 -22.889  0.00  0.00     0.297 A 
ATOM     11  C   UNL d   1      33.046  19.051 -23.441  0.00  0.00     0.066 A 
ATOM     12  O   UNL d   1      33.240  17.668 -23.142  0.00  0.00    -0.264 OA
ATOM     13  C   UNL d   1      32.968  19.838 -23.190  0.00  0.00     0.024 A 
ATOM     14  C   UNL d   1      32.852  20.437 -23.740  0.00  0.00     0.002 C 
ENDBRANCH   4   7
BRANCH   1  15
ATOM     15  N   UNL d   1      32.073  21.905 -20.452  0.00  0.00    -0.112 N 
ATOM     16  O   UNL d   1      31.245  21.871 -20.427  0.00  0.00    -0.532 OA
ATOM     17  O   UNL d   1      32.500  22.096 -19.775  0.00  0.00    -0.532 OA
ENDBRANCH   1  15
BRANCH   2  18
ATOM     18  N   UNL d   1      32.695  23.133 -21.367  0.00  0.00    -0.300 N 
ATOM     19  C   UNL d   1      33.188  23.422 -20.775  0.00  0.00     0.100 C 
ATOM     20  C   UNL d   1      32.126  23.623 -21.706  0.00  0.00     0.100 C 
ENDBRANCH   2  18
TORSDOF 3
ENDMDL
MODEL 2
REMARK VINA RESULT:       0.5      1.408      2.118
REMARK  3 active torsions:
REMARK  status: ('A' for Active; 'I' for Inactive)
REMARK    1  A    between atoms: N_2  and  C_1 
REMARK    2  A    between atoms: C_4  and  C_8 
REMARK    3  A    between atoms: N_14  and  C_5 
ROOT
ATOM      1  C   UNL d   1      32.817  20.146 -22.288  0.00  0.00     0.143 A 
ATOM      2  C   UNL d   1      33.079  20.663 -22.872  0.00  0.00     0.086 A 
ATOM      3  C   UNL d   1      32.711  19.341 -22.461  0.00  0.00     0.027 A 
ATOM      4  C   UNL d   1      32.870  19.058 -23.228  0.00  0.00     0.021 A 
ATOM      5  C   UNL d   1      33.237  20.383 -23.630  0.00  0.00     0.019 A 
ATOM      6  C   UNL d   1      33.134  19.583 -23.814  0.00  0.00     0.003 A 
ENDROOT
BRANCH   4   7
ATOM      7  C   UNL d   1      32.766  18.261 -23.403  0.00  0.00     0.103 A 
ATOM      8  N   UNL d   1      32.921  17.688 -22.829  0.00  0.00    -0.145 NA
ATOM      9  N   UNL d   1      32.816  16.892 -23.004  0.00  0.00    -0.106 NA
ATOM     10  C   UNL d   1      32.558  16.665 -23.752  0.00  0.00     0.297 A 
ATOM     11  C   UNL d   1      32.403  17.238 -24.327  0.00  0.00     0.066 A 
ATOM     12  O   UNL d   1      32.454  15.868 -23.928  0.00  0.00    -0.264 OA
ATOM     13  C   UNL d   1      32.507  18.042 -24.154  0.00  0.00     0.024 A 
ATOM     14  C   UNL d   1      32.353  18.611 -24.727  0.00  0.00     0.002 C 
ENDBRANCH   4   7
BRANCH   1  15
ATOM     15  N   UNL d   1      32.657  20.419 -21.523  0.00  0.00    -0.112 N 
ATOM     16  O   UNL d   1      31.902  20.715 -21.349  0.00  0.00    -0.532 OA
ATOM     17  O   UNL d   1      33.238  20.400 -20.941  0.00  0.00    -0.532 OA
ENDBRANCH   1  15
BRANCH   2  18
ATOM     18  N   UNL d   1      33.183  21.459 -22.696  0.00  0.00    -0.300 N 
ATOM     19  C   UNL d   1      33.233  22.009 -23.305  0.00  0.00     0.100 C 
ATOM     20  C   UNL d   1      33.238  21.705 -21.912  0.00  0.00     0.100 C 
ENDBRANCH   2  18
TORSDOF 3
ENDMDL
