MODEL 1
REMARK VINA RESULT:      84.9      0.000      0.000
REMARK  5 active torsions:
REMARK  status: ('A' for Active; 'I' for Inactive)
REMARK    1  A    between atoms: C_9  and  C_3 
REMARK    2  A    between atoms: N_11  and  C_4 
REMARK    3  A    between atoms: C_17  and  N_11 
REMARK    4  A    between atoms: O_19  and  C_13 
REMARK    5  A    between atoms: O_20  and  C_15 
ROOT
ATOM      1  N   UNL d   1     -49.594  27.188  34.079  0.00  0.00    -0.184 N 
ATOM      2  C   UNL d   1     -49.390  27.990  34.200  0.00  0.00     0.168 A 
ATOM      3  C   UNL d   1     -48.684  28.192  34.571  0.00  0.00     0.055 A 
ATOM      4  C   UNL d   1     -50.305  27.006  33.706  0.00  0.00     0.218 A 
ATOM      5  N   UNL d   1     -48.377  26.784  34.704  0.00  0.00    -0.162 NA
ATOM      6  C   UNL d   1     -48.173  27.587  34.826  0.00  0.00     0.104 A 
ATOM      7  N   UNL d   1     -49.901  28.595  33.946  0.00  0.00    -0.227 NA
ATOM      8  C   UNL d   1     -50.821  27.595  33.449  0.00  0.00     0.071 A 
ATOM      9  C   UNL d   1     -50.617  28.397  33.570  0.00  0.00     0.087 A 
ATOM     10  C   UNL d   1     -47.468  27.774  35.196  0.00  0.00     0.023 C 
ATOM     11  C   UNL d   1     -51.148  29.022  33.306  0.00  0.00     0.021 C 
ENDROOT
BRANCH   3  12
ATOM     12  C   UNL d   1     -48.484  28.982  34.690  0.00  0.00     0.007 A 
ATOM     13  C   UNL d   1     -47.932  29.177  35.272  0.00  0.00     0.026 A 
ATOM     14  C   UNL d   1     -47.728  29.979  35.393  0.00  0.00     0.116 A 
ATOM     15  C   UNL d   1     -48.080  30.571  34.930  0.00  0.00     0.116 A 
ATOM     16  C   UNL d   1     -48.627  30.360  34.354  0.00  0.00     0.026 A 
ATOM     17  C   UNL d   1     -48.830  29.561  34.234  0.00  0.00     0.002 A 
BRANCH  14  18
ATOM     18  O   UNL d   1     -47.165  30.193  35.985  0.00  0.00    -0.326 OA
ATOM     19  C   UNL d   1     -46.493  29.667  36.153  0.00  0.00     0.181 C 
ENDBRANCH  14  18
BRANCH  15  20
ATOM     20  O   UNL d   1     -47.869  31.399  35.054  0.00  0.00    -0.326 OA
ATOM     21  C   UNL d   1     -48.047  31.978  34.437  0.00  0.00     0.181 C 
ENDBRANCH  15  20
ENDBRANCH   3  12
BRANCH   4  22
ATOM     22  N   UNL d   1     -50.514  26.183  33.582  0.00  0.00    -0.383 NA
BRANCH  22  23
ATOM     23  C   UNL d   1     -50.700  25.450  33.472  0.00  0.00     0.134 A 
ATOM     24  C   UNL d   1     -50.145  24.926  33.417  0.00  0.00     0.032 A 
ATOM     25  C   UNL d   1     -50.331  24.194  33.307  0.00  0.00     0.003 A 
ATOM     26  C   UNL d   1     -51.614  24.512  33.306  0.00  0.00     0.003 A 
ATOM     27  C   UNL d   1     -51.427  25.248  33.417  0.00  0.00     0.032 A 
ENDBRANCH  22  23
ENDBRANCH   4  22
TORSDOF 5
ENDMDL
MODEL 2
REMARK VINA RESULT:      87.0      2.773      5.691
REMARK  5 active torsions:
REMARK  status: ('A' for Active; 'I' for Inactive)
REMARK    1  A    between atoms: C_9  and  C_3 
REMARK    2  A    between atoms: N_11  and  C_4 
REMARK    3  A    between atoms: C_17  and  N_11 
REMARK    4  A    between atoms: O_19  and  C_13 
REMARK    5  A    between atoms: O_20  and  C_15 
ROOT
ATOM      1  N   UNL d   1     -50.470  26.875  34.311  0.00  0.00    -0.184 N 
ATOM      2  C   UNL d   1     -50.892  26.179  34.114  0.00  0.00     0.168 A 
ATOM      3  C   UNL d   1     -51.713  26.177  34.098  0.00  0.00     0.055 A 
ATOM      4  C   UNL d   1     -49.647  26.856  34.322  0.00  0.00     0.218 A 
ATOM      5  N   UNL d   1     -51.702  27.574  34.477  0.00  0.00    -0.162 NA
ATOM      6  C   UNL d   1     -52.124  26.878  34.280  0.00  0.00     0.104 A 
ATOM      7  N   UNL d   1     -50.482  25.478  33.933  0.00  0.00    -0.227 NA
ATOM      8  C   UNL d   1     -49.227  26.169  34.144  0.00  0.00     0.071 A 
ATOM      9  C   UNL d   1     -49.649  25.473  33.948  0.00  0.00     0.087 A 
ATOM     10  C   UNL d   1     -52.942  26.890  34.267  0.00  0.00     0.023 C 
ATOM     11  C   UNL d   1     -49.223  24.749  33.760  0.00  0.00     0.021 C 
ENDROOT
BRANCH   3  12
ATOM     12  C   UNL d   1     -52.128  25.492  33.904  0.00  0.00     0.007 A 
ATOM     13  C   UNL d   1     -51.712  24.794  33.759  0.00  0.00     0.026 A 
ATOM     14  C   UNL d   1     -52.134  24.098  33.562  0.00  0.00     0.116 A 
ATOM     15  C   UNL d   1     -52.962  24.114  33.515  0.00  0.00     0.116 A 
ATOM     16  C   UNL d   1     -53.361  24.817  33.663  0.00  0.00     0.026 A 
ATOM     17  C   UNL d   1     -52.942  25.510  33.859  0.00  0.00     0.002 A 
BRANCH  14  18
ATOM     18  O   UNL d   1     -51.722  23.377  33.410  0.00  0.00    -0.326 OA
ATOM     19  C   UNL d   1     -50.854  23.380  33.347  0.00  0.00     0.181 C 
ENDBRANCH  14  18
BRANCH  15  20
ATOM     20  O   UNL d   1     -53.397  23.396  33.312  0.00  0.00    -0.326 OA
ATOM     21  C   UNL d   1     -54.115  23.198  33.753  0.00  0.00     0.181 C 
ENDBRANCH  15  20
ENDBRANCH   3  12
BRANCH   4  22
ATOM     22  N   UNL d   1     -49.215  27.570  34.524  0.00  0.00    -0.383 NA
BRANCH  22  23
ATOM     23  C   UNL d   1     -48.830  28.205  34.703  0.00  0.00     0.134 A 
ATOM     24  C   UNL d   1     -48.202  28.153  35.137  0.00  0.00     0.032 A 
ATOM     25  C   UNL d   1     -47.818  28.787  35.316  0.00  0.00     0.003 A 
ATOM     26  C   UNL d   1     -48.684  29.515  34.634  0.00  0.00     0.003 A 
ATOM     27  C   UNL d   1     -49.071  28.877  34.454  0.00  0.00     0.032 A 
ENDBRANCH  22  23
ENDBRANCH   4  22
TORSDOF 5
ENDMDL
