MODEL 1
REMARK VINA RESULT:      -5.5      0.000      0.000
REMARK  1 active torsions:
REMARK  status: ('A' for Active; 'I' for Inactive)
REMARK    1  A    between atoms: C_5  and  C_1 
ROOT
ATOM      1  C   UNL d   1     -46.421  12.918  23.116  0.00  0.00     0.169 A 
ATOM      2  N   UNL d   1     -45.916  12.347  23.433  0.00  0.00    -0.142 NA
ATOM      3  C   UNL d   1     -47.198  12.640  23.180  0.00  0.00     0.048 A 
ATOM      4  N   UNL d   1     -46.388  11.724  23.690  0.00  0.00    -0.148 NA
ATOM      5  C   UNL d   1     -47.176  11.914  23.530  0.00  0.00     0.105 A 
ATOM      6  C   UNL d   1     -47.832  11.442  23.698  0.00  0.00     0.023 C 
ENDROOT
BRANCH   1   7
ATOM      7  C   UNL d   1     -46.186  13.637  22.792  0.00  0.00     0.231 C 
ATOM      8  O   UNL d   1     -46.626  14.319  22.932  0.00  0.00    -0.643 OA
ATOM      9  O   UNL d   1     -45.507  13.674  22.325  0.00  0.00    -0.643 OA
ENDBRANCH   1   7
TORSDOF 1
ENDMDL
MODEL 2
REMARK VINA RESULT:      -5.5      1.612      2.132
REMARK  1 active torsions:
REMARK  status: ('A' for Active; 'I' for Inactive)
REMARK    1  A    between atoms: C_5  and  C_1 
ROOT
ATOM      1  C   UNL d   1     -46.592  12.523  23.409  0.00  0.00     0.169 A 
ATOM      2  N   UNL d   1     -45.904  12.978  23.440  0.00  0.00    -0.142 NA
ATOM      3  C   UNL d   1     -47.211  13.008  23.152  0.00  0.00     0.048 A 
ATOM      4  N   UNL d   1     -46.107  13.739  23.202  0.00  0.00    -0.148 NA
ATOM      5  C   UNL d   1     -46.915  13.747  23.027  0.00  0.00     0.105 A 
ATOM      6  C   UNL d   1     -47.348  14.400  22.767  0.00  0.00     0.023 C 
ENDROOT
BRANCH   1   7
ATOM      7  C   UNL d   1     -46.646  11.725  23.601  0.00  0.00     0.231 C 
ATOM      8  O   UNL d   1     -47.383  11.370  23.698  0.00  0.00    -0.643 OA
ATOM      9  O   UNL d   1     -45.959  11.279  23.698  0.00  0.00    -0.643 OA
ENDBRANCH   1   7
TORSDOF 1
ENDMDL
MODEL 3
REMARK VINA RESULT:      -5.3      1.691      2.371
REMARK  1 active torsions:
REMARK  status: ('A' for Active; 'I' for Inactive)
REMARK    1  A    between atoms: C_5  and  C_1 
ROOT
ATOM      1  C   UNL d   1     -47.418  12.232  23.355  0.00  0.00     0.169 A 
ATOM      2  N   UNL d   1     -46.702  12.006  23.698  0.00  0.00    -0.142 NA
ATOM      3  C   UNL d   1     -47.324  12.989  23.035  0.00  0.00     0.048 A 
ATOM      4  N   UNL d   1     -46.174  12.628  23.585  0.00  0.00    -0.148 NA
ATOM      5  C   UNL d   1     -46.567  13.228  23.176  0.00  0.00     0.105 A 
ATOM      6  C   UNL d   1     -46.241  13.952  22.947  0.00  0.00     0.023 C 
ENDROOT
BRANCH   1   7
ATOM      7  C   UNL d   1     -48.104  11.778  23.338  0.00  0.00     0.231 C 
ATOM      8  O   UNL d   1     -48.108  11.045  22.963  0.00  0.00    -0.643 OA
ATOM      9  O   UNL d   1     -48.791  12.059  23.698  0.00  0.00    -0.643 OA
ENDBRANCH   1   7
TORSDOF 1
ENDMDL
MODEL 4
REMARK VINA RESULT:      -5.1      1.446      1.662
REMARK  1 active torsions:
REMARK  status: ('A' for Active; 'I' for Inactive)
REMARK    1  A    between atoms: C_5  and  C_1 
ROOT
ATOM      1  C   UNL d   1     -47.247  12.082  23.355  0.00  0.00     0.169 A 
ATOM      2  N   UNL d   1     -47.595  11.416  23.698  0.00  0.00    -0.142 NA
ATOM      3  C   UNL d   1     -47.770  12.381  22.787  0.00  0.00     0.048 A 
ATOM      4  N   UNL d   1     -48.327  11.312  23.337  0.00  0.00    -0.148 NA
ATOM      5  C   UNL d   1     -48.425  11.913  22.778  0.00  0.00     0.105 A 
ATOM      6  C   UNL d   1     -49.083  12.017  22.290  0.00  0.00     0.023 C 
ENDROOT
BRANCH   1   7
ATOM      7  C   UNL d   1     -46.509  12.390  23.548  0.00  0.00     0.231 C 
ATOM      8  O   UNL d   1     -46.419  13.197  23.683  0.00  0.00    -0.643 OA
ATOM      9  O   UNL d   1     -45.858  11.887  23.607  0.00  0.00    -0.643 OA
ENDBRANCH   1   7
TORSDOF 1
ENDMDL
MODEL 5
REMARK VINA RESULT:      -5.1      1.832      2.267
REMARK  1 active torsions:
REMARK  status: ('A' for Active; 'I' for Inactive)
REMARK    1  A    between atoms: C_5  and  C_1 
ROOT
ATOM      1  C   UNL d   1     -46.987  13.649  22.771  0.00  0.00     0.169 A 
ATOM      2  N   UNL d   1     -47.560  13.211  22.368  0.00  0.00    -0.142 NA
ATOM      3  C   UNL d   1     -47.284  14.412  22.891  0.00  0.00     0.048 A 
ATOM      4  N   UNL d   1     -48.203  13.710  22.245  0.00  0.00    -0.148 NA
ATOM      5  C   UNL d   1     -48.022  14.447  22.571  0.00  0.00     0.105 A 
ATOM      6  C   UNL d   1     -48.514  15.111  22.570  0.00  0.00     0.023 C 
ENDROOT
BRANCH   1   7
ATOM      7  C   UNL d   1     -46.251  13.370  23.009  0.00  0.00     0.231 C 
ATOM      8  O   UNL d   1     -45.579  13.536  22.563  0.00  0.00    -0.643 OA
ATOM      9  O   UNL d   1     -46.186  12.921  23.698  0.00  0.00    -0.643 OA
ENDBRANCH   1   7
TORSDOF 1
ENDMDL
MODEL 6
REMARK VINA RESULT:      -4.8      1.498      2.036
REMARK  1 active torsions:
REMARK  status: ('A' for Active; 'I' for Inactive)
REMARK    1  A    between atoms: C_5  and  C_1 
ROOT
ATOM      1  C   UNL d   1     -46.956  13.395  23.008  0.00  0.00     0.169 A 
ATOM      2  N   UNL d   1     -46.501  13.079  23.620  0.00  0.00    -0.142 NA
ATOM      3  C   UNL d   1     -46.480  13.447  22.333  0.00  0.00     0.048 A 
ATOM      4  N   UNL d   1     -45.749  12.940  23.315  0.00  0.00    -0.148 NA
ATOM      5  C   UNL d   1     -45.747  13.170  22.521  0.00  0.00     0.105 A 
ATOM      6  C   UNL d   1     -45.104  13.125  22.006  0.00  0.00     0.023 C 
ENDROOT
BRANCH   1   7
ATOM      7  C   UNL d   1     -47.746  13.617  23.065  0.00  0.00     0.231 C 
ATOM      8  O   UNL d   1     -48.338  13.045  23.092  0.00  0.00    -0.643 OA
ATOM      9  O   UNL d   1     -47.945  14.417  23.096  0.00  0.00    -0.643 OA
ENDBRANCH   1   7
TORSDOF 1
ENDMDL
MODEL 7
REMARK VINA RESULT:      -4.7      2.335      2.731
REMARK  1 active torsions:
REMARK  status: ('A' for Active; 'I' for Inactive)
REMARK    1  A    between atoms: C_5  and  C_1 
ROOT
ATOM      1  C   UNL d   1     -48.701  12.046  22.252  0.00  0.00     0.169 A 
ATOM      2  N   UNL d   1     -48.837  11.277  22.521  0.00  0.00    -0.142 NA
ATOM      3  C   UNL d   1     -48.053  12.353  22.666  0.00  0.00     0.048 A 
ATOM      4  N   UNL d   1     -48.271  11.119  23.098  0.00  0.00    -0.148 NA
ATOM      5  C   UNL d   1     -47.793  11.788  23.179  0.00  0.00     0.105 A 
ATOM      6  C   UNL d   1     -47.156  11.868  23.698  0.00  0.00     0.023 C 
ENDROOT
BRANCH   1   7
ATOM      7  C   UNL d   1     -49.138  12.434  21.673  0.00  0.00     0.231 C 
ATOM      8  O   UNL d   1     -48.755  12.852  21.076  0.00  0.00    -0.643 OA
ATOM      9  O   UNL d   1     -49.961  12.405  21.692  0.00  0.00    -0.643 OA
ENDBRANCH   1   7
TORSDOF 1
ENDMDL
MODEL 8
REMARK VINA RESULT:      -4.6      7.847      8.340
REMARK  1 active torsions:
REMARK  status: ('A' for Active; 'I' for Inactive)
REMARK    1  A    between atoms: C_5  and  C_1 
ROOT
ATOM      1  C   UNL d   1     -40.772  14.932  17.570  0.00  0.00     0.169 A 
ATOM      2  N   UNL d   1     -40.863  14.111  17.574  0.00  0.00    -0.142 NA
ATOM      3  C   UNL d   1     -40.548  15.170  18.331  0.00  0.00     0.048 A 
ATOM      4  N   UNL d   1     -40.695  13.853  18.337  0.00  0.00    -0.148 NA
ATOM      5  C   UNL d   1     -40.502  14.513  18.796  0.00  0.00     0.105 A 
ATOM      6  C   UNL d   1     -40.297  14.504  19.595  0.00  0.00     0.023 C 
ENDROOT
BRANCH   1   7
ATOM      7  C   UNL d   1     -40.884  15.423  16.920  0.00  0.00     0.231 C 
ATOM      8  O   UNL d   1     -40.263  15.880  16.632  0.00  0.00    -0.643 OA
ATOM      9  O   UNL d   1     -41.623  15.457  16.555  0.00  0.00    -0.643 OA
ENDBRANCH   1   7
TORSDOF 1
ENDMDL
MODEL 9
REMARK VINA RESULT:      -4.6      8.391      8.774
REMARK  1 active torsions:
REMARK  status: ('A' for Active; 'I' for Inactive)
REMARK    1  A    between atoms: C_5  and  C_1 
ROOT
ATOM      1  C   UNL d   1     -40.496  14.610  17.526  0.00  0.00     0.169 A 
ATOM      2  N   UNL d   1     -40.710  14.020  18.063  0.00  0.00    -0.142 NA
ATOM      3  C   UNL d   1     -39.735  14.439  17.246  0.00  0.00     0.048 A 
ATOM      4  N   UNL d   1     -40.079  13.493  18.108  0.00  0.00    -0.148 NA
ATOM      5  C   UNL d   1     -39.484  13.761  17.601  0.00  0.00     0.105 A 
ATOM      6  C   UNL d   1     -38.754  13.396  17.477  0.00  0.00     0.023 C 
ENDROOT
BRANCH   1   7
ATOM      7  C   UNL d   1     -40.961  15.252  17.310  0.00  0.00     0.231 C 
ATOM      8  O   UNL d   1     -41.401  15.231  16.614  0.00  0.00    -0.643 OA
ATOM      9  O   UNL d   1     -40.987  15.920  17.793  0.00  0.00    -0.643 OA
ENDBRANCH   1   7
TORSDOF 1
ENDMDL
