MODEL 1
REMARK VINA RESULT:      -6.1      0.000      0.000
REMARK  6 active torsions:
REMARK  status: ('A' for Active; 'I' for Inactive)
REMARK    1  A    between atoms: C_8  and  C_1 
REMARK    2  A    between atoms: C_13  and  N_2 
REMARK    3  A    between atoms: C_7  and  C_4 
REMARK    4  A    between atoms: C_6  and  C_8 
REMARK    5  A    between atoms: C_22  and  C_13 
REMARK    6  A    between atoms: N_18  and  C_22 
ROOT
ATOM      1  C   UNL d   1      52.824  32.545  52.938  0.00  0.00     0.103 A 
ATOM      2  N   UNL d   1      53.161  31.330  53.390  0.00  0.00    -0.267 N 
ATOM      3  C   UNL d   1      52.437  31.984  52.470  0.00  0.00     0.256 A 
ATOM      4  C   UNL d   1      53.267  32.141  53.502  0.00  0.00     0.096 A 
ATOM      5  C   UNL d   1      52.645  31.234  52.749  0.00  0.00     0.304 A 
ATOM      6  O   UNL d   1      52.383  30.512  52.441  0.00  0.00    -0.263 OA
ATOM      7  O   UNL d   1      51.933  32.132  51.837  0.00  0.00    -0.281 OA
ENDROOT
BRANCH   1   8
ATOM      8  C   UNL d   1      52.770  33.362  52.850  0.00  0.00     0.223 C 
ATOM      9  O   UNL d   1      53.457  33.810  52.725  0.00  0.00    -0.284 OA
BRANCH   8  10
ATOM     10  C   UNL d   1      52.034  33.739  52.884  0.00  0.00     0.139 A 
ATOM     11  O   UNL d   1      51.616  33.925  53.572  0.00  0.00    -0.304 OA
ATOM     12  C   UNL d   1      50.918  34.294  53.352  0.00  0.00     0.100 A 
ATOM     13  C   UNL d   1      50.298  34.595  53.772  0.00  0.00     0.025 A 
ATOM     14  C   UNL d   1      50.903  34.338  52.527  0.00  0.00     0.025 A 
ATOM     15  C   UNL d   1      49.661  34.939  53.401  0.00  0.00     0.002 A 
ATOM     16  C   UNL d   1      49.642  34.985  52.579  0.00  0.00     0.000 A 
ATOM     17  C   UNL d   1      50.271  34.680  52.150  0.00  0.00     0.002 A 
ATOM     18  C   UNL d   1      51.599  33.992  52.242  0.00  0.00     0.030 A 
ENDBRANCH   8  10
ENDBRANCH   1   8
BRANCH   4  19
ATOM     19  C   UNL d   1      53.743  32.493  54.087  0.00  0.00     0.116 A 
ATOM     20  O   UNL d   1      53.580  32.715  54.855  0.00  0.00    -0.306 OA
ATOM     21  C   UNL d   1      54.259  33.036  55.177  0.00  0.00     0.100 A 
ATOM     22  C   UNL d   1      54.330  33.329  55.945  0.00  0.00     0.027 C 
ATOM     23  C   UNL d   1      54.851  33.014  54.602  0.00  0.00     0.027 A 
ATOM     24  C   UNL d   1      54.532  32.678  53.927  0.00  0.00     0.028 A 
ENDBRANCH   4  19
BRANCH   2  25
ATOM     25  C   UNL d   1      53.500  30.731  53.829  0.00  0.00     0.102 C 
BRANCH  25  26
ATOM     26  C   UNL d   1      53.239  29.954  53.740  0.00  0.00     0.100 C 
BRANCH  26  27
ATOM     27  N   UNL d   1      53.367  29.402  54.340  0.00  0.00    -0.298 N 
ATOM     28  C   UNL d   1      53.868  28.766  54.214  0.00  0.00     0.107 A 
ATOM     29  C   UNL d   1      54.000  28.212  54.809  0.00  0.00     0.142 A 
ATOM     30  O   UNL d   1      53.628  28.297  55.534  0.00  0.00    -0.300 OA
ATOM     31  C   UNL d   1      53.121  28.935  55.670  0.00  0.00     0.142 A 
ATOM     32  C   UNL d   1      52.993  29.488  55.066  0.00  0.00     0.107 A 
ENDBRANCH  26  27
ENDBRANCH  25  26
ENDBRANCH   2  25
TORSDOF 6
ENDMDL
MODEL 2
REMARK VINA RESULT:      -5.5      1.757      4.919
REMARK  6 active torsions:
REMARK  status: ('A' for Active; 'I' for Inactive)
REMARK    1  A    between atoms: C_8  and  C_1 
REMARK    2  A    between atoms: C_13  and  N_2 
REMARK    3  A    between atoms: C_7  and  C_4 
REMARK    4  A    between atoms: C_6  and  C_8 
REMARK    5  A    between atoms: C_22  and  C_13 
REMARK    6  A    between atoms: N_18  and  C_22 
ROOT
ATOM      1  C   UNL d   1      53.498  32.083  53.158  0.00  0.00     0.103 A 
ATOM      2  N   UNL d   1      53.658  33.368  53.500  0.00  0.00    -0.267 N 
ATOM      3  C   UNL d   1      54.294  32.197  53.348  0.00  0.00     0.256 A 
ATOM      4  C   UNL d   1      53.109  32.803  53.252  0.00  0.00     0.096 A 
ATOM      5  C   UNL d   1      54.393  32.990  53.559  0.00  0.00     0.304 A 
ATOM      6  O   UNL d   1      55.104  33.345  53.789  0.00  0.00    -0.263 OA
ATOM      7  O   UNL d   1      54.890  31.631  53.334  0.00  0.00    -0.281 OA
ENDROOT
BRANCH   1   8
ATOM      8  C   UNL d   1      53.159  31.371  52.918  0.00  0.00     0.223 C 
ATOM      9  O   UNL d   1      52.797  31.316  52.174  0.00  0.00    -0.284 OA
BRANCH   8  10
ATOM     10  C   UNL d   1      53.178  30.710  53.415  0.00  0.00     0.139 A 
ATOM     11  O   UNL d   1      53.079  30.716  54.235  0.00  0.00    -0.304 OA
ATOM     12  C   UNL d   1      53.139  29.945  54.504  0.00  0.00     0.100 A 
ATOM     13  C   UNL d   1      53.090  29.611  55.238  0.00  0.00     0.025 A 
ATOM     14  C   UNL d   1      53.275  29.458  53.850  0.00  0.00     0.025 A 
ATOM     15  C   UNL d   1      53.173  28.809  55.345  0.00  0.00     0.002 A 
ATOM     16  C   UNL d   1      53.309  28.320  54.696  0.00  0.00     0.000 A 
ATOM     17  C   UNL d   1      53.359  28.657  53.950  0.00  0.00     0.002 A 
ATOM     18  C   UNL d   1      53.299  29.939  53.177  0.00  0.00     0.030 A 
ENDBRANCH   8  10
ENDBRANCH   1   8
BRANCH   4  19
ATOM     19  C   UNL d   1      52.299  32.937  53.119  0.00  0.00     0.116 A 
ATOM     20  O   UNL d   1      51.648  32.839  53.602  0.00  0.00    -0.306 OA
ATOM     21  C   UNL d   1      50.983  33.058  53.181  0.00  0.00     0.100 A 
ATOM     22  C   UNL d   1      50.210  33.042  53.468  0.00  0.00     0.027 C 
ATOM     23  C   UNL d   1      51.223  33.295  52.427  0.00  0.00     0.027 A 
ATOM     24  C   UNL d   1      52.038  33.220  52.388  0.00  0.00     0.028 A 
ENDBRANCH   4  19
BRANCH   2  25
ATOM     25  C   UNL d   1      53.506  34.154  53.658  0.00  0.00     0.102 C 
BRANCH  25  26
ATOM     26  C   UNL d   1      53.745  34.486  54.374  0.00  0.00     0.100 C 
BRANCH  26  27
ATOM     27  N   UNL d   1      53.455  35.221  54.608  0.00  0.00    -0.298 N 
ATOM     28  C   UNL d   1      53.615  35.888  54.159  0.00  0.00     0.107 A 
ATOM     29  C   UNL d   1      53.328  36.626  54.387  0.00  0.00     0.142 A 
ATOM     30  O   UNL d   1      52.877  36.695  55.068  0.00  0.00    -0.300 OA
ATOM     31  C   UNL d   1      52.711  36.028  55.526  0.00  0.00     0.142 A 
ATOM     32  C   UNL d   1      53.004  35.289  55.290  0.00  0.00     0.107 A 
ENDBRANCH  26  27
ENDBRANCH  25  26
ENDBRANCH   2  25
TORSDOF 6
ENDMDL
MODEL 3
REMARK VINA RESULT:      -5.2      1.097      4.677
REMARK  6 active torsions:
REMARK  status: ('A' for Active; 'I' for Inactive)
REMARK    1  A    between atoms: C_8  and  C_1 
REMARK    2  A    between atoms: C_13  and  N_2 
REMARK    3  A    between atoms: C_7  and  C_4 
REMARK    4  A    between atoms: C_6  and  C_8 
REMARK    5  A    between atoms: C_22  and  C_13 
REMARK    6  A    between atoms: N_18  and  C_22 
ROOT
ATOM      1  C   UNL d   1      53.274  31.571  53.215  0.00  0.00     0.103 A 
ATOM      2  N   UNL d   1      52.488  32.652  53.144  0.00  0.00    -0.267 N 
ATOM      3  C   UNL d   1      52.643  31.392  52.712  0.00  0.00     0.256 A 
ATOM      4  C   UNL d   1      53.177  32.344  53.479  0.00  0.00     0.096 A 
ATOM      5  C   UNL d   1      52.157  32.060  52.668  0.00  0.00     0.304 A 
ATOM      6  O   UNL d   1      51.461  32.125  52.226  0.00  0.00    -0.263 OA
ATOM      7  O   UNL d   1      52.510  30.682  52.320  0.00  0.00    -0.281 OA
ENDROOT
BRANCH   1   8
ATOM      8  C   UNL d   1      53.889  31.059  53.412  0.00  0.00     0.223 C 
ATOM      9  O   UNL d   1      54.656  31.209  53.135  0.00  0.00    -0.284 OA
BRANCH   8  10
ATOM     10  C   UNL d   1      53.746  30.395  53.885  0.00  0.00     0.139 A 
ATOM     11  O   UNL d   1      53.386  30.398  54.629  0.00  0.00    -0.304 OA
ATOM     12  C   UNL d   1      53.356  29.625  54.898  0.00  0.00     0.100 A 
ATOM     13  C   UNL d   1      53.072  29.288  55.575  0.00  0.00     0.025 A 
ATOM     14  C   UNL d   1      53.697  29.141  54.322  0.00  0.00     0.025 A 
ATOM     15  C   UNL d   1      53.116  28.485  55.700  0.00  0.00     0.002 A 
ATOM     16  C   UNL d   1      53.455  27.999  55.127  0.00  0.00     0.000 A 
ATOM     17  C   UNL d   1      53.743  28.339  54.439  0.00  0.00     0.002 A 
ATOM     18  C   UNL d   1      53.937  29.625  53.695  0.00  0.00     0.030 A 
ENDBRANCH   8  10
ENDBRANCH   1   8
BRANCH   4  19
ATOM     19  C   UNL d   1      53.689  32.747  53.996  0.00  0.00     0.116 A 
ATOM     20  O   UNL d   1      53.681  32.831  54.808  0.00  0.00    -0.306 OA
ATOM     21  C   UNL d   1      54.323  33.289  55.023  0.00  0.00     0.100 A 
ATOM     22  C   UNL d   1      54.517  33.505  55.795  0.00  0.00     0.027 C 
ATOM     23  C   UNL d   1      54.735  33.492  54.337  0.00  0.00     0.027 A 
ATOM     24  C   UNL d   1      54.342  33.157  53.701  0.00  0.00     0.028 A 
ENDBRANCH   4  19
BRANCH   2  25
ATOM     25  C   UNL d   1      52.186  33.402  53.260  0.00  0.00     0.102 C 
BRANCH  25  26
ATOM     26  C   UNL d   1      51.622  33.705  52.740  0.00  0.00     0.100 C 
BRANCH  26  27
ATOM     27  N   UNL d   1      51.087  34.277  52.997  0.00  0.00    -0.298 N 
ATOM     28  C   UNL d   1      50.327  34.297  52.691  0.00  0.00     0.107 A 
ATOM     29  C   UNL d   1      49.788  34.867  52.944  0.00  0.00     0.142 A 
ATOM     30  O   UNL d   1      50.012  35.418  53.507  0.00  0.00    -0.300 OA
ATOM     31  C   UNL d   1      50.776  35.406  53.821  0.00  0.00     0.142 A 
ATOM     32  C   UNL d   1      51.313  34.829  53.561  0.00  0.00     0.107 A 
ENDBRANCH  26  27
ENDBRANCH  25  26
ENDBRANCH   2  25
TORSDOF 6
ENDMDL
MODEL 4
REMARK VINA RESULT:      -5.0      1.701      4.904
REMARK  6 active torsions:
REMARK  status: ('A' for Active; 'I' for Inactive)
REMARK    1  A    between atoms: C_8  and  C_1 
REMARK    2  A    between atoms: C_13  and  N_2 
REMARK    3  A    between atoms: C_7  and  C_4 
REMARK    4  A    between atoms: C_6  and  C_8 
REMARK    5  A    between atoms: C_22  and  C_13 
REMARK    6  A    between atoms: N_18  and  C_22 
ROOT
ATOM      1  C   UNL d   1      52.329  33.073  52.922  0.00  0.00     0.103 A 
ATOM      2  N   UNL d   1      51.242  33.853  52.951  0.00  0.00    -0.267 N 
ATOM      3  C   UNL d   1      51.751  32.718  52.450  0.00  0.00     0.256 A 
ATOM      4  C   UNL d   1      52.015  33.769  53.229  0.00  0.00     0.096 A 
ATOM      5  C   UNL d   1      51.079  33.200  52.468  0.00  0.00     0.304 A 
ATOM      6  O   UNL d   1      50.368  33.054  52.071  0.00  0.00    -0.263 OA
ATOM      7  O   UNL d   1      51.819  32.013  52.032  0.00  0.00    -0.281 OA
ENDROOT
BRANCH   1   8
ATOM      8  C   UNL d   1      53.086  32.775  53.057  0.00  0.00     0.223 C 
ATOM      9  O   UNL d   1      53.750  33.234  52.866  0.00  0.00    -0.284 OA
BRANCH   8  10
ATOM     10  C   UNL d   1      53.188  32.022  53.383  0.00  0.00     0.139 A 
ATOM     11  O   UNL d   1      53.106  31.823  54.182  0.00  0.00    -0.304 OA
ATOM     12  C   UNL d   1      53.255  31.022  54.260  0.00  0.00     0.100 A 
ATOM     13  C   UNL d   1      53.259  30.521  54.893  0.00  0.00     0.025 A 
ATOM     14  C   UNL d   1      53.430  30.721  53.510  0.00  0.00     0.025 A 
ATOM     15  C   UNL d   1      53.431  29.730  54.808  0.00  0.00     0.002 A 
ATOM     16  C   UNL d   1      53.605  29.427  54.062  0.00  0.00     0.000 A 
ATOM     17  C   UNL d   1      53.602  29.933  53.417  0.00  0.00     0.002 A 
ATOM     18  C   UNL d   1      53.386  31.348  52.970  0.00  0.00     0.030 A 
ENDBRANCH   8  10
ENDBRANCH   1   8
BRANCH   4  19
ATOM     19  C   UNL d   1      52.411  34.298  53.734  0.00  0.00     0.116 A 
ATOM     20  O   UNL d   1      52.513  34.299  54.543  0.00  0.00    -0.306 OA
ATOM     21  C   UNL d   1      52.952  34.958  54.745  0.00  0.00     0.100 A 
ATOM     22  C   UNL d   1      53.178  35.165  55.510  0.00  0.00     0.027 C 
ATOM     23  C   UNL d   1      53.125  35.372  54.051  0.00  0.00     0.027 A 
ATOM     24  C   UNL d   1      52.790  34.964  53.425  0.00  0.00     0.028 A 
ENDBRANCH   4  19
BRANCH   2  25
ATOM     25  C   UNL d   1      50.729  34.466  53.121  0.00  0.00     0.102 C 
BRANCH  25  26
ATOM     26  C   UNL d   1      49.941  34.424  52.882  0.00  0.00     0.100 C 
BRANCH  26  27
ATOM     27  N   UNL d   1      49.424  35.044  53.050  0.00  0.00    -0.298 N 
ATOM     28  C   UNL d   1      48.955  35.361  52.457  0.00  0.00     0.107 A 
ATOM     29  C   UNL d   1      48.437  35.980  52.618  0.00  0.00     0.142 A 
ATOM     30  O   UNL d   1      48.389  36.284  53.378  0.00  0.00    -0.300 OA
ATOM     31  C   UNL d   1      48.857  35.971  53.981  0.00  0.00     0.142 A 
ATOM     32  C   UNL d   1      49.377  35.347  53.811  0.00  0.00     0.107 A 
ENDBRANCH  26  27
ENDBRANCH  25  26
ENDBRANCH   2  25
TORSDOF 6
ENDMDL
MODEL 5
REMARK VINA RESULT:      -3.2      2.093      3.429
REMARK  6 active torsions:
REMARK  status: ('A' for Active; 'I' for Inactive)
REMARK    1  A    between atoms: C_8  and  C_1 
REMARK    2  A    between atoms: C_13  and  N_2 
REMARK    3  A    between atoms: C_7  and  C_4 
REMARK    4  A    between atoms: C_6  and  C_8 
REMARK    5  A    between atoms: C_22  and  C_13 
REMARK    6  A    between atoms: N_18  and  C_22 
ROOT
ATOM      1  C   UNL d   1      51.713  34.185  52.647  0.00  0.00     0.103 A 
ATOM      2  N   UNL d   1      52.522  34.136  53.712  0.00  0.00    -0.267 N 
ATOM      3  C   UNL d   1      51.852  34.961  52.893  0.00  0.00     0.256 A 
ATOM      4  C   UNL d   1      52.124  33.680  53.150  0.00  0.00     0.096 A 
ATOM      5  C   UNL d   1      52.352  34.931  53.552  0.00  0.00     0.304 A 
ATOM      6  O   UNL d   1      52.633  35.584  53.976  0.00  0.00    -0.263 OA
ATOM      7  O   UNL d   1      51.554  35.648  52.554  0.00  0.00    -0.281 OA
ENDROOT
BRANCH   1   8
ATOM      8  C   UNL d   1      51.243  33.962  52.007  0.00  0.00     0.223 C 
ATOM      9  O   UNL d   1      51.556  33.474  51.414  0.00  0.00    -0.284 OA
BRANCH   8  10
ATOM     10  C   UNL d   1      50.459  34.223  51.953  0.00  0.00     0.139 A 
ATOM     11  O   UNL d   1      49.984  34.466  52.583  0.00  0.00    -0.304 OA
ATOM     12  C   UNL d   1      49.252  34.677  52.282  0.00  0.00     0.100 A 
ATOM     13  C   UNL d   1      48.574  34.953  52.624  0.00  0.00     0.025 A 
ATOM     14  C   UNL d   1      49.272  34.565  51.464  0.00  0.00     0.025 A 
ATOM     15  C   UNL d   1      47.914  35.121  52.180  0.00  0.00     0.002 A 
ATOM     16  C   UNL d   1      47.929  35.010  51.363  0.00  0.00     0.000 A 
ATOM     17  C   UNL d   1      48.617  34.730  51.014  0.00  0.00     0.002 A 
ATOM     18  C   UNL d   1      50.024  34.282  51.265  0.00  0.00     0.030 A 
ENDBRANCH   8  10
ENDBRANCH   1   8
BRANCH   4  19
ATOM     19  C   UNL d   1      52.137  32.850  53.101  0.00  0.00     0.116 A 
ATOM     20  O   UNL d   1      52.634  32.340  52.702  0.00  0.00    -0.306 OA
ATOM     21  C   UNL d   1      52.387  31.575  52.851  0.00  0.00     0.100 A 
ATOM     22  C   UNL d   1      52.741  30.893  52.551  0.00  0.00     0.027 C 
ATOM     23  C   UNL d   1      51.729  31.610  53.348  0.00  0.00     0.027 A 
ATOM     24  C   UNL d   1      51.574  32.400  53.503  0.00  0.00     0.028 A 
ENDBRANCH   4  19
BRANCH   2  25
ATOM     25  C   UNL d   1      52.996  33.858  54.316  0.00  0.00     0.102 C 
BRANCH  25  26
ATOM     26  C   UNL d   1      53.563  34.350  54.657  0.00  0.00     0.100 C 
BRANCH  26  27
ATOM     27  N   UNL d   1      54.227  34.025  55.023  0.00  0.00    -0.298 N 
ATOM     28  C   UNL d   1      54.967  34.108  54.681  0.00  0.00     0.107 A 
ATOM     29  C   UNL d   1      55.634  33.786  55.041  0.00  0.00     0.142 A 
ATOM     30  O   UNL d   1      55.558  33.378  55.748  0.00  0.00    -0.300 OA
ATOM     31  C   UNL d   1      54.816  33.289  56.099  0.00  0.00     0.142 A 
ATOM     32  C   UNL d   1      54.149  33.616  55.730  0.00  0.00     0.107 A 
ENDBRANCH  26  27
ENDBRANCH  25  26
ENDBRANCH   2  25
TORSDOF 6
ENDMDL
