MODEL 1
REMARK VINA RESULT:      -8.2      0.000      0.000
REMARK  3 active torsions:
REMARK  status: ('A' for Active; 'I' for Inactive)
REMARK    1  A    between atoms: N_4  and  C_1 
REMARK    2  A    between atoms: C_15  and  C_5 
REMARK    3  A    between atoms: C_9  and  N_8 
ROOT
ATOM      1  C   UNL d   1      50.890  33.692  53.077  0.00  0.00     0.169 A 
ATOM      2  N   UNL d   1      50.762  32.881  53.152  0.00  0.00    -0.130 NA
ATOM      3  N   UNL d   1      51.424  32.390  53.278  0.00  0.00    -0.147 NA
ATOM      4  C   UNL d   1      52.175  32.701  53.325  0.00  0.00     0.103 A 
ATOM      5  C   UNL d   1      51.637  34.001  53.124  0.00  0.00     0.038 A 
ATOM      6  C   UNL d   1      52.286  33.500  53.250  0.00  0.00     0.022 A 
ATOM      7  C   UNL d   1      51.762  34.834  53.047  0.00  0.00     0.003 A 
ATOM      8  C   UNL d   1      53.065  33.848  53.297  0.00  0.00     0.002 A 
ATOM      9  C   UNL d   1      52.543  35.167  53.095  0.00  0.00     0.000 A 
ATOM     10  C   UNL d   1      53.182  34.654  53.221  0.00  0.00     0.000 A 
ENDROOT
BRANCH   1  11
ATOM     11  N   UNL d   1      50.252  34.184  52.953  0.00  0.00    -0.285 N 
ATOM     12  C   UNL d   1      49.930  34.291  52.200  0.00  0.00     0.101 A 
ATOM     13  C   UNL d   1      49.285  34.789  52.075  0.00  0.00     0.101 A 
ATOM     14  N   UNL d   1      48.947  35.191  52.701  0.00  0.00    -0.286 N 
ATOM     15  C   UNL d   1      49.254  35.094  53.447  0.00  0.00     0.101 A 
ATOM     16  C   UNL d   1      49.920  34.581  53.576  0.00  0.00     0.101 A 
BRANCH  14  17
ATOM     17  C   UNL d   1      48.302  35.691  52.592  0.00  0.00     0.148 A 
ATOM     18  N   UNL d   1      47.860  35.694  51.891  0.00  0.00    -0.227 NA
ATOM     19  C   UNL d   1      47.215  36.195  51.782  0.00  0.00     0.101 A 
ATOM     20  C   UNL d   1      46.998  36.709  52.382  0.00  0.00     0.021 A 
ATOM     21  C   UNL d   1      47.431  36.709  53.073  0.00  0.00     0.005 A 
ATOM     22  C   UNL d   1      48.076  36.208  53.181  0.00  0.00     0.037 A 
ENDBRANCH  14  17
ENDBRANCH   1  11
BRANCH   4  23
ATOM     23  C   UNL d   1      52.824  32.200  53.451  0.00  0.00     0.019 A 
ATOM     24  C   UNL d   1      53.016  31.642  52.876  0.00  0.00     0.002 A 
ATOM     25  C   UNL d   1      53.668  31.135  52.997  0.00  0.00     0.000 A 
ATOM     26  C   UNL d   1      54.125  31.182  53.681  0.00  0.00     0.000 A 
ATOM     27  C   UNL d   1      53.933  31.744  54.261  0.00  0.00     0.000 A 
ATOM     28  C   UNL d   1      53.275  32.260  54.146  0.00  0.00     0.002 A 
ENDBRANCH   4  23
TORSDOF 3
ENDMDL
MODEL 2
REMARK VINA RESULT:      -8.2      1.428      2.141
REMARK  3 active torsions:
REMARK  status: ('A' for Active; 'I' for Inactive)
REMARK    1  A    between atoms: N_4  and  C_1 
REMARK    2  A    between atoms: C_15  and  C_5 
REMARK    3  A    between atoms: C_9  and  N_8 
ROOT
ATOM      1  C   UNL d   1      51.914  34.220  53.253  0.00  0.00     0.169 A 
ATOM      2  N   UNL d   1      52.307  34.849  53.611  0.00  0.00    -0.130 NA
ATOM      3  N   UNL d   1      53.034  34.694  53.990  0.00  0.00    -0.147 NA
ATOM      4  C   UNL d   1      53.346  33.943  54.006  0.00  0.00     0.103 A 
ATOM      5  C   UNL d   1      52.226  33.472  53.270  0.00  0.00     0.038 A 
ATOM      6  C   UNL d   1      52.949  33.332  53.650  0.00  0.00     0.022 A 
ATOM      7  C   UNL d   1      51.818  32.830  52.901  0.00  0.00     0.003 A 
ATOM      8  C   UNL d   1      53.259  32.536  53.656  0.00  0.00     0.002 A 
ATOM      9  C   UNL d   1      52.137  32.042  52.913  0.00  0.00     0.000 A 
ATOM     10  C   UNL d   1      52.861  31.917  53.298  0.00  0.00     0.000 A 
ENDROOT
BRANCH   1  11
ATOM     11  N   UNL d   1      51.204  34.357  52.879  0.00  0.00    -0.285 N 
ATOM     12  C   UNL d   1      51.148  34.386  52.055  0.00  0.00     0.101 A 
ATOM     13  C   UNL d   1      50.429  34.525  51.677  0.00  0.00     0.101 A 
ATOM     14  N   UNL d   1      49.749  34.638  52.114  0.00  0.00    -0.286 N 
ATOM     15  C   UNL d   1      49.789  34.612  52.925  0.00  0.00     0.101 A 
ATOM     16  C   UNL d   1      50.530  34.468  53.315  0.00  0.00     0.101 A 
BRANCH  14  17
ATOM     17  C   UNL d   1      49.024  34.778  51.750  0.00  0.00     0.148 A 
ATOM     18  N   UNL d   1      48.451  35.273  52.086  0.00  0.00    -0.227 NA
ATOM     19  C   UNL d   1      47.724  35.413  51.722  0.00  0.00     0.101 A 
ATOM     20  C   UNL d   1      47.557  35.053  51.004  0.00  0.00     0.021 A 
ATOM     21  C   UNL d   1      48.119  34.565  50.671  0.00  0.00     0.005 A 
ATOM     22  C   UNL d   1      48.844  34.426  51.036  0.00  0.00     0.037 A 
ENDBRANCH  14  17
ENDBRANCH   1  11
BRANCH   4  23
ATOM     23  C   UNL d   1      54.069  33.803  54.387  0.00  0.00     0.019 A 
ATOM     24  C   UNL d   1      54.075  33.666  55.199  0.00  0.00     0.002 A 
ATOM     25  C   UNL d   1      54.800  33.525  55.587  0.00  0.00     0.000 A 
ATOM     26  C   UNL d   1      55.513  33.520  55.174  0.00  0.00     0.000 A 
ATOM     27  C   UNL d   1      55.509  33.658  54.356  0.00  0.00     0.000 A 
ATOM     28  C   UNL d   1      54.780  33.801  53.955  0.00  0.00     0.002 A 
ENDBRANCH   4  23
TORSDOF 3
ENDMDL
MODEL 3
REMARK VINA RESULT:      -7.7      0.931      5.550
REMARK  3 active torsions:
REMARK  status: ('A' for Active; 'I' for Inactive)
REMARK    1  A    between atoms: N_4  and  C_1 
REMARK    2  A    between atoms: C_15  and  C_5 
REMARK    3  A    between atoms: C_9  and  N_8 
ROOT
ATOM      1  C   UNL d   1      49.918  34.727  52.897  0.00  0.00     0.169 A 
ATOM      2  N   UNL d   1      49.575  35.164  53.505  0.00  0.00    -0.130 NA
ATOM      3  N   UNL d   1      48.830  35.514  53.365  0.00  0.00    -0.147 NA
ATOM      4  C   UNL d   1      48.454  35.426  52.649  0.00  0.00     0.103 A 
ATOM      5  C   UNL d   1      49.542  34.640  52.185  0.00  0.00     0.038 A 
ATOM      6  C   UNL d   1      48.803  34.993  52.060  0.00  0.00     0.022 A 
ATOM      7  C   UNL d   1      49.900  34.189  51.565  0.00  0.00     0.003 A 
ATOM      8  C   UNL d   1      48.425  34.888  51.301  0.00  0.00     0.002 A 
ATOM      9  C   UNL d   1      49.513  34.092  50.813  0.00  0.00     0.000 A 
ATOM     10  C   UNL d   1      48.774  34.451  50.703  0.00  0.00     0.000 A 
ENDROOT
BRANCH   1  11
ATOM     11  N   UNL d   1      50.644  34.380  53.020  0.00  0.00    -0.285 N 
ATOM     12  C   UNL d   1      51.348  34.788  52.876  0.00  0.00     0.101 A 
ATOM     13  C   UNL d   1      52.083  34.437  53.000  0.00  0.00     0.101 A 
ATOM     14  N   UNL d   1      52.132  33.669  53.272  0.00  0.00    -0.286 N 
ATOM     15  C   UNL d   1      51.448  33.255  53.419  0.00  0.00     0.101 A 
ATOM     16  C   UNL d   1      50.690  33.617  53.290  0.00  0.00     0.101 A 
BRANCH  14  17
ATOM     17  C   UNL d   1      52.859  33.305  53.401  0.00  0.00     0.148 A 
ATOM     18  N   UNL d   1      53.064  32.590  53.037  0.00  0.00    -0.227 NA
ATOM     19  C   UNL d   1      53.792  32.225  53.167  0.00  0.00     0.101 A 
ATOM     20  C   UNL d   1      54.335  32.576  53.671  0.00  0.00     0.021 A 
ATOM     21  C   UNL d   1      54.136  33.280  54.030  0.00  0.00     0.005 A 
ATOM     22  C   UNL d   1      53.408  33.644  53.900  0.00  0.00     0.037 A 
ENDBRANCH  14  17
ENDBRANCH   1  11
BRANCH   4  23
ATOM     23  C   UNL d   1      47.714  35.779  52.524  0.00  0.00     0.019 A 
ATOM     24  C   UNL d   1      47.075  35.549  52.991  0.00  0.00     0.002 A 
ATOM     25  C   UNL d   1      46.329  35.901  52.869  0.00  0.00     0.000 A 
ATOM     26  C   UNL d   1      46.216  36.476  52.290  0.00  0.00     0.000 A 
ATOM     27  C   UNL d   1      46.858  36.709  51.819  0.00  0.00     0.000 A 
ATOM     28  C   UNL d   1      47.617  36.358  51.935  0.00  0.00     0.002 A 
ENDBRANCH   4  23
TORSDOF 3
ENDMDL
MODEL 4
REMARK VINA RESULT:      -6.1      0.975      5.659
REMARK  3 active torsions:
REMARK  status: ('A' for Active; 'I' for Inactive)
REMARK    1  A    between atoms: N_4  and  C_1 
REMARK    2  A    between atoms: C_15  and  C_5 
REMARK    3  A    between atoms: C_9  and  N_8 
ROOT
ATOM      1  C   UNL d   1      49.133  34.687  52.252  0.00  0.00     0.169 A 
ATOM      2  N   UNL d   1      48.760  34.425  51.565  0.00  0.00    -0.130 NA
ATOM      3  N   UNL d   1      48.005  34.731  51.388  0.00  0.00    -0.147 NA
ATOM      4  C   UNL d   1      47.645  35.272  51.879  0.00  0.00     0.103 A 
ATOM      5  C   UNL d   1      48.775  35.225  52.739  0.00  0.00     0.038 A 
ATOM      6  C   UNL d   1      48.024  35.521  52.551  0.00  0.00     0.022 A 
ATOM      7  C   UNL d   1      49.163  35.490  53.443  0.00  0.00     0.003 A 
ATOM      8  C   UNL d   1      47.665  36.088  53.080  0.00  0.00     0.002 A 
ATOM      9  C   UNL d   1      48.795  36.055  53.961  0.00  0.00     0.000 A 
ATOM     10  C   UNL d   1      48.044  36.342  53.759  0.00  0.00     0.000 A 
ENDROOT
BRANCH   1  11
ATOM     11  N   UNL d   1      49.871  34.397  52.437  0.00  0.00    -0.285 N 
ATOM     12  C   UNL d   1      50.549  34.654  52.039  0.00  0.00     0.101 A 
ATOM     13  C   UNL d   1      51.296  34.360  52.226  0.00  0.00     0.101 A 
ATOM     14  N   UNL d   1      51.383  33.802  52.816  0.00  0.00    -0.286 N 
ATOM     15  C   UNL d   1      50.725  33.540  53.216  0.00  0.00     0.101 A 
ATOM     16  C   UNL d   1      49.955  33.843  53.023  0.00  0.00     0.101 A 
BRANCH  14  17
ATOM     17  C   UNL d   1      52.122  33.499  53.014  0.00  0.00     0.148 A 
ATOM     18  N   UNL d   1      52.378  32.756  52.754  0.00  0.00    -0.227 NA
ATOM     19  C   UNL d   1      53.118  32.453  52.953  0.00  0.00     0.101 A 
ATOM     20  C   UNL d   1      53.623  32.896  53.423  0.00  0.00     0.021 A 
ATOM     21  C   UNL d   1      53.374  33.628  53.681  0.00  0.00     0.005 A 
ATOM     22  C   UNL d   1      52.633  33.930  53.482  0.00  0.00     0.037 A 
ENDBRANCH  14  17
ENDBRANCH   1  11
BRANCH   4  23
ATOM     23  C   UNL d   1      46.894  35.568  51.690  0.00  0.00     0.019 A 
ATOM     24  C   UNL d   1      46.226  35.165  51.957  0.00  0.00     0.002 A 
ATOM     25  C   UNL d   1      45.468  35.458  51.770  0.00  0.00     0.000 A 
ATOM     26  C   UNL d   1      45.372  36.143  51.324  0.00  0.00     0.000 A 
ATOM     27  C   UNL d   1      46.043  36.550  51.054  0.00  0.00     0.000 A 
ATOM     28  C   UNL d   1      46.814  36.261  51.239  0.00  0.00     0.002 A 
ENDBRANCH   4  23
TORSDOF 3
ENDMDL
MODEL 5
REMARK VINA RESULT:      -5.9      9.913     11.175
REMARK  3 active torsions:
REMARK  status: ('A' for Active; 'I' for Inactive)
REMARK    1  A    between atoms: N_4  and  C_1 
REMARK    2  A    between atoms: C_15  and  C_5 
REMARK    3  A    between atoms: C_9  and  N_8 
ROOT
ATOM      1  C   UNL d   1      44.907  27.370  57.049  0.00  0.00     0.169 A 
ATOM      2  N   UNL d   1      45.102  28.027  56.592  0.00  0.00    -0.130 NA
ATOM      3  N   UNL d   1      45.098  28.776  56.959  0.00  0.00    -0.147 NA
ATOM      4  C   UNL d   1      44.907  28.857  57.746  0.00  0.00     0.103 A 
ATOM      5  C   UNL d   1      44.716  27.451  57.832  0.00  0.00     0.038 A 
ATOM      6  C   UNL d   1      44.716  28.202  58.184  0.00  0.00     0.022 A 
ATOM      7  C   UNL d   1      44.516  26.773  58.296  0.00  0.00     0.003 A 
ATOM      8  C   UNL d   1      44.512  28.263  59.011  0.00  0.00     0.002 A 
ATOM      9  C   UNL d   1      44.315  26.848  59.119  0.00  0.00     0.000 A 
ATOM     10  C   UNL d   1      44.320  27.605  59.457  0.00  0.00     0.000 A 
ENDROOT
BRANCH   1  11
ATOM     11  N   UNL d   1      44.907  26.633  56.703  0.00  0.00    -0.285 N 
ATOM     12  C   UNL d   1      44.314  26.404  56.174  0.00  0.00     0.101 A 
ATOM     13  C   UNL d   1      44.314  25.658  55.824  0.00  0.00     0.101 A 
ATOM     14  N   UNL d   1      44.907  25.123  55.995  0.00  0.00    -0.286 N 
ATOM     15  C   UNL d   1      45.496  25.334  56.514  0.00  0.00     0.101 A 
ATOM     16  C   UNL d   1      45.496  26.104  56.875  0.00  0.00     0.101 A 
BRANCH  14  17
ATOM     17  C   UNL d   1      44.920  24.374  55.654  0.00  0.00     0.148 A 
ATOM     18  N   UNL d   1      44.841  23.683  56.104  0.00  0.00    -0.227 NA
ATOM     19  C   UNL d   1      44.855  22.933  55.762  0.00  0.00     0.101 A 
ATOM     20  C   UNL d   1      44.949  22.862  54.950  0.00  0.00     0.021 A 
ATOM     21  C   UNL d   1      45.027  23.539  54.505  0.00  0.00     0.005 A 
ATOM     22  C   UNL d   1      45.013  24.289  54.848  0.00  0.00     0.037 A 
ENDBRANCH  14  17
ENDBRANCH   1  11
BRANCH   4  23
ATOM     23  C   UNL d   1      44.907  29.607  58.098  0.00  0.00     0.019 A 
ATOM     24  C   UNL d   1      44.345  30.162  57.861  0.00  0.00     0.002 A 
ATOM     25  C   UNL d   1      44.340  30.918  58.211  0.00  0.00     0.000 A 
ATOM     26  C   UNL d   1      44.887  31.124  58.792  0.00  0.00     0.000 A 
ATOM     27  C   UNL d   1      45.454  30.568  59.032  0.00  0.00     0.000 A 
ATOM     28  C   UNL d   1      45.465  29.799  58.683  0.00  0.00     0.002 A 
ENDBRANCH   4  23
TORSDOF 3
ENDMDL
MODEL 6
REMARK VINA RESULT:      -5.3     10.309     10.899
REMARK  3 active torsions:
REMARK  status: ('A' for Active; 'I' for Inactive)
REMARK    1  A    between atoms: N_4  and  C_1 
REMARK    2  A    between atoms: C_15  and  C_5 
REMARK    3  A    between atoms: C_9  and  N_8 
ROOT
ATOM      1  C   UNL d   1      44.890  26.425  56.832  0.00  0.00     0.169 A 
ATOM      2  N   UNL d   1      45.055  26.318  56.032  0.00  0.00    -0.130 NA
ATOM      3  N   UNL d   1      45.025  25.543  55.724  0.00  0.00    -0.147 NA
ATOM      4  C   UNL d   1      44.837  24.910  56.201  0.00  0.00     0.103 A 
ATOM      5  C   UNL d   1      44.703  25.795  57.305  0.00  0.00     0.038 A 
ATOM      6  C   UNL d   1      44.676  25.030  56.986  0.00  0.00     0.022 A 
ATOM      7  C   UNL d   1      44.534  25.911  58.125  0.00  0.00     0.003 A 
ATOM      8  C   UNL d   1      44.477  24.380  57.504  0.00  0.00     0.002 A 
ATOM      9  C   UNL d   1      44.337  25.255  58.630  0.00  0.00     0.000 A 
ATOM     10  C   UNL d   1      44.314  24.496  58.297  0.00  0.00     0.000 A 
ENDROOT
BRANCH   1  11
ATOM     11  N   UNL d   1      44.916  27.176  57.145  0.00  0.00    -0.285 N 
ATOM     12  C   UNL d   1      45.546  27.425  57.619  0.00  0.00     0.101 A 
ATOM     13  C   UNL d   1      45.572  28.185  57.935  0.00  0.00     0.101 A 
ATOM     14  N   UNL d   1      44.969  28.715  57.786  0.00  0.00    -0.286 N 
ATOM     15  C   UNL d   1      44.343  28.484  57.321  0.00  0.00     0.101 A 
ATOM     16  C   UNL d   1      44.316  27.700  56.994  0.00  0.00     0.101 A 
BRANCH  14  17
ATOM     17  C   UNL d   1      44.981  29.478  58.095  0.00  0.00     0.148 A 
ATOM     18  N   UNL d   1      44.731  30.135  57.657  0.00  0.00    -0.227 NA
ATOM     19  C   UNL d   1      44.744  30.899  57.967  0.00  0.00     0.101 A 
ATOM     20  C   UNL d   1      45.011  31.019  58.733  0.00  0.00     0.021 A 
ATOM     21  C   UNL d   1      45.257  30.375  59.166  0.00  0.00     0.005 A 
ATOM     22  C   UNL d   1      45.245  29.611  58.855  0.00  0.00     0.037 A 
ENDBRANCH  14  17
ENDBRANCH   1  11
BRANCH   4  23
ATOM     23  C   UNL d   1      44.810  24.145  55.882  0.00  0.00     0.019 A 
ATOM     24  C   UNL d   1      44.499  24.036  55.127  0.00  0.00     0.002 A 
ATOM     25  C   UNL d   1      44.470  23.269  54.801  0.00  0.00     0.000 A 
ATOM     26  C   UNL d   1      44.747  22.615  55.220  0.00  0.00     0.000 A 
ATOM     27  C   UNL d   1      45.060  22.723  55.981  0.00  0.00     0.000 A 
ATOM     28  C   UNL d   1      45.094  23.497  56.318  0.00  0.00     0.002 A 
ENDBRANCH   4  23
TORSDOF 3
ENDMDL
