MODEL 1
REMARK VINA RESULT:      -8.6      0.000      0.000
REMARK  2 active torsions:
REMARK  status: ('A' for Active; 'I' for Inactive)
REMARK    1  A    between atoms: C_3  and  C_1 
REMARK       I    between atoms: N_2  and  C_3 
REMARK    2  A    between atoms: O_16  and  C_15 
ROOT
ATOM      1  C   UNL d   1     -48.496  14.398  22.934  0.00  0.00     0.121 A 
ATOM      2  C   UNL d   1     -47.862  14.778  22.564  0.00  0.00     0.305 A 
ATOM      3  O   UNL d   1     -47.120  14.398  22.517  0.00  0.00    -0.271 OA
ATOM      4  C   UNL d   1     -48.399  13.635  23.261  0.00  0.00     0.012 A 
ATOM      5  C   UNL d   1     -47.021  13.650  22.835  0.00  0.00     0.125 A 
ATOM      6  C   UNL d   1     -47.661  13.266  23.209  0.00  0.00     0.025 A 
ATOM      7  O   UNL d   1     -47.958  15.528  22.243  0.00  0.00    -0.259 OA
ATOM      8  C   UNL d   1     -46.288  13.263  22.793  0.00  0.00     0.117 A 
ATOM      9  C   UNL d   1     -47.560  12.510  23.531  0.00  0.00     0.002 A 
ATOM     10  C   UNL d   1     -46.825  12.139  23.481  0.00  0.00     0.002 A 
ATOM     11  C   UNL d   1     -46.192  12.514  23.114  0.00  0.00     0.026 A 
ENDROOT
BRANCH   1  12
ATOM     12  C   UNL d   1     -49.225  14.773  22.980  0.00  0.00     0.285 C 
ATOM     13  N   UNL d   1     -49.859  14.509  22.532  0.00  0.00    -0.193 N 
ATOM     14  N   UNL d   1     -49.843  13.872  22.011  0.00  0.00    -0.163 NA
ATOM     15  C   UNL d   1     -50.614  14.828  22.523  0.00  0.00     0.105 A 
ATOM     16  C   UNL d   1     -50.593  13.801  21.680  0.00  0.00     0.103 A 
ATOM     17  C   UNL d   1     -50.823  13.232  21.125  0.00  0.00     0.022 C 
ATOM     18  C   UNL d   1     -51.064  14.389  21.996  0.00  0.00     0.042 A 
ATOM     19  O   UNL d   1     -49.325  15.419  23.480  0.00  0.00    -0.265 OA
ENDBRANCH   1  12
BRANCH   8  20
ATOM     20  O   UNL d   1     -45.659  13.646  22.424  0.00  0.00    -0.326 OA
ATOM     21  C   UNL d   1     -45.023  13.218  22.132  0.00  0.00     0.181 C 
ENDBRANCH   8  20
TORSDOF 2
ENDMDL
MODEL 2
REMARK VINA RESULT:      -8.5      1.634      2.168
REMARK  2 active torsions:
REMARK  status: ('A' for Active; 'I' for Inactive)
REMARK    1  A    between atoms: C_3  and  C_1 
REMARK       I    between atoms: N_2  and  C_3 
REMARK    2  A    between atoms: O_16  and  C_15 
ROOT
ATOM      1  C   UNL d   1     -49.015  12.754  22.314  0.00  0.00     0.121 A 
ATOM      2  C   UNL d   1     -48.933  12.074  22.778  0.00  0.00     0.305 A 
ATOM      3  O   UNL d   1     -48.186  11.870  23.087  0.00  0.00    -0.271 OA
ATOM      4  C   UNL d   1     -48.354  13.238  22.153  0.00  0.00     0.012 A 
ATOM      5  C   UNL d   1     -47.534  12.342  22.932  0.00  0.00     0.125 A 
ATOM      6  C   UNL d   1     -47.617  13.028  22.464  0.00  0.00     0.025 A 
ATOM      7  O   UNL d   1     -49.585  11.599  22.936  0.00  0.00    -0.259 OA
ATOM      8  C   UNL d   1     -46.786  12.148  23.235  0.00  0.00     0.117 A 
ATOM      9  C   UNL d   1     -46.958  13.505  22.307  0.00  0.00     0.002 A 
ATOM     10  C   UNL d   1     -46.222  13.297  22.616  0.00  0.00     0.002 A 
ATOM     11  C   UNL d   1     -46.136  12.622  23.077  0.00  0.00     0.026 A 
ENDROOT
BRANCH   1  12
ATOM     12  C   UNL d   1     -49.752  12.954  22.010  0.00  0.00     0.285 C 
ATOM     13  N   UNL d   1     -50.143  13.624  22.274  0.00  0.00    -0.193 N 
ATOM     14  N   UNL d   1     -49.863  14.148  22.843  0.00  0.00    -0.163 NA
ATOM     15  C   UNL d   1     -50.877  13.889  22.021  0.00  0.00     0.105 A 
ATOM     16  C   UNL d   1     -50.428  14.739  22.939  0.00  0.00     0.103 A 
ATOM     17  C   UNL d   1     -50.372  15.381  23.458  0.00  0.00     0.022 C 
ATOM     18  C   UNL d   1     -51.049  14.577  22.434  0.00  0.00     0.042 A 
ATOM     19  O   UNL d   1     -50.103  12.480  21.436  0.00  0.00    -0.265 OA
ENDBRANCH   1  12
BRANCH   8  20
ATOM     20  O   UNL d   1     -46.710  11.470  23.696  0.00  0.00    -0.326 OA
ATOM     21  C   UNL d   1     -46.010  11.042  23.698  0.00  0.00     0.181 C 
ENDBRANCH   8  20
TORSDOF 2
ENDMDL
MODEL 3
REMARK VINA RESULT:      -7.7      1.942      4.081
REMARK  2 active torsions:
REMARK  status: ('A' for Active; 'I' for Inactive)
REMARK    1  A    between atoms: C_3  and  C_1 
REMARK       I    between atoms: N_2  and  C_3 
REMARK    2  A    between atoms: O_16  and  C_15 
ROOT
ATOM      1  C   UNL d   1     -48.498  12.354  23.013  0.00  0.00     0.121 A 
ATOM      2  C   UNL d   1     -48.971  12.134  22.372  0.00  0.00     0.305 A 
ATOM      3  O   UNL d   1     -49.529  12.673  22.062  0.00  0.00    -0.271 OA
ATOM      4  C   UNL d   1     -48.574  13.113  23.354  0.00  0.00     0.012 A 
ATOM      5  C   UNL d   1     -49.607  13.418  22.394  0.00  0.00     0.125 A 
ATOM      6  C   UNL d   1     -49.129  13.640  23.041  0.00  0.00     0.025 A 
ATOM      7  O   UNL d   1     -48.895  11.388  22.037  0.00  0.00    -0.259 OA
ATOM      8  C   UNL d   1     -50.158  13.961  22.094  0.00  0.00     0.117 A 
ATOM      9  C   UNL d   1     -49.209  14.394  23.376  0.00  0.00     0.002 A 
ATOM     10  C   UNL d   1     -49.762  14.921  23.066  0.00  0.00     0.002 A 
ATOM     11  C   UNL d   1     -50.234  14.706  22.428  0.00  0.00     0.026 A 
ENDROOT
BRANCH   1  12
ATOM     12  C   UNL d   1     -47.949  11.823  23.316  0.00  0.00     0.285 C 
ATOM     13  N   UNL d   1     -47.146  11.967  23.242  0.00  0.00    -0.193 N 
ATOM     14  N   UNL d   1     -46.809  12.622  22.877  0.00  0.00    -0.163 NA
ATOM     15  C   UNL d   1     -46.539  11.487  23.517  0.00  0.00     0.105 A 
ATOM     16  C   UNL d   1     -45.991  12.545  22.927  0.00  0.00     0.103 A 
ATOM     17  C   UNL d   1     -45.436  13.082  22.630  0.00  0.00     0.022 C 
ATOM     18  C   UNL d   1     -45.829  11.848  23.320  0.00  0.00     0.042 A 
ATOM     19  O   UNL d   1     -48.205  11.140  23.698  0.00  0.00    -0.265 OA
ENDBRANCH   1  12
BRANCH   8  20
ATOM     20  O   UNL d   1     -50.627  13.737  21.455  0.00  0.00    -0.326 OA
ATOM     21  C   UNL d   1     -51.064  14.295  21.042  0.00  0.00     0.181 C 
ENDBRANCH   8  20
TORSDOF 2
ENDMDL
MODEL 4
REMARK VINA RESULT:      -7.2      0.912      1.256
REMARK  2 active torsions:
REMARK  status: ('A' for Active; 'I' for Inactive)
REMARK    1  A    between atoms: C_3  and  C_1 
REMARK       I    between atoms: N_2  and  C_3 
REMARK    2  A    between atoms: O_16  and  C_15 
ROOT
ATOM      1  C   UNL d   1     -47.493  13.727  22.954  0.00  0.00     0.121 A 
ATOM      2  C   UNL d   1     -46.749  13.940  22.663  0.00  0.00     0.305 A 
ATOM      3  O   UNL d   1     -46.116  13.397  22.705  0.00  0.00    -0.271 OA
ATOM      4  C   UNL d   1     -47.616  12.971  23.289  0.00  0.00     0.012 A 
ATOM      5  C   UNL d   1     -46.232  12.656  23.033  0.00  0.00     0.125 A 
ATOM      6  C   UNL d   1     -46.983  12.441  23.326  0.00  0.00     0.025 A 
ATOM      7  O   UNL d   1     -46.630  14.683  22.333  0.00  0.00    -0.259 OA
ATOM      8  C   UNL d   1     -45.609  12.109  23.079  0.00  0.00     0.117 A 
ATOM      9  C   UNL d   1     -47.099  11.691  23.658  0.00  0.00     0.002 A 
ATOM     10  C   UNL d   1     -46.470  11.159  23.696  0.00  0.00     0.002 A 
ATOM     11  C   UNL d   1     -45.728  11.367  23.408  0.00  0.00     0.026 A 
ENDROOT
BRANCH   1  12
ATOM     12  C   UNL d   1     -48.115  14.261  22.912  0.00  0.00     0.285 C 
ATOM     13  N   UNL d   1     -48.774  14.099  22.452  0.00  0.00    -0.193 N 
ATOM     14  N   UNL d   1     -48.887  13.420  22.002  0.00  0.00    -0.163 NA
ATOM     15  C   UNL d   1     -49.433  14.580  22.359  0.00  0.00     0.105 A 
ATOM     16  C   UNL d   1     -49.618  13.484  21.630  0.00  0.00     0.103 A 
ATOM     17  C   UNL d   1     -49.953  12.922  21.123  0.00  0.00     0.022 C 
ATOM     18  C   UNL d   1     -49.951  14.196  21.851  0.00  0.00     0.042 A 
ATOM     19  O   UNL d   1     -48.081  14.967  23.334  0.00  0.00    -0.265 OA
ENDBRANCH   1  12
BRANCH   8  20
ATOM     20  O   UNL d   1     -44.870  12.326  22.788  0.00  0.00    -0.326 OA
ATOM     21  C   UNL d   1     -44.307  11.756  22.610  0.00  0.00     0.181 C 
ENDBRANCH   8  20
TORSDOF 2
ENDMDL
MODEL 5
REMARK VINA RESULT:      -6.6      8.249     10.276
REMARK  2 active torsions:
REMARK  status: ('A' for Active; 'I' for Inactive)
REMARK    1  A    between atoms: C_3  and  C_1 
REMARK       I    between atoms: N_2  and  C_3 
REMARK    2  A    between atoms: O_16  and  C_15 
ROOT
ATOM      1  C   UNL d   1     -40.078  14.321  18.105  0.00  0.00     0.121 A 
ATOM      2  C   UNL d   1     -40.110  14.976  17.600  0.00  0.00     0.305 A 
ATOM      3  O   UNL d   1     -39.587  15.027  16.951  0.00  0.00    -0.271 OA
ATOM      4  C   UNL d   1     -39.524  13.710  17.969  0.00  0.00     0.012 A 
ATOM      5  C   UNL d   1     -39.043  14.430  16.815  0.00  0.00     0.125 A 
ATOM      6  C   UNL d   1     -39.010  13.769  17.324  0.00  0.00     0.025 A 
ATOM      7  O   UNL d   1     -40.655  15.576  17.734  0.00  0.00    -0.259 OA
ATOM      8  C   UNL d   1     -38.518  14.471  16.173  0.00  0.00     0.117 A 
ATOM      9  C   UNL d   1     -38.459  13.166  17.186  0.00  0.00     0.002 A 
ATOM     10  C   UNL d   1     -37.945  13.223  16.544  0.00  0.00     0.002 A 
ATOM     11  C   UNL d   1     -37.975  13.872  16.040  0.00  0.00     0.026 A 
ENDROOT
BRANCH   1  12
ATOM     12  C   UNL d   1     -40.593  14.272  18.742  0.00  0.00     0.285 C 
ATOM     13  N   UNL d   1     -40.335  14.448  19.500  0.00  0.00    -0.193 N 
ATOM     14  N   UNL d   1     -39.573  14.681  19.704  0.00  0.00    -0.163 NA
ATOM     15  C   UNL d   1     -40.787  14.423  20.185  0.00  0.00     0.105 A 
ATOM     16  C   UNL d   1     -39.557  14.800  20.518  0.00  0.00     0.103 A 
ATOM     17  C   UNL d   1     -38.897  15.039  20.958  0.00  0.00     0.022 C 
ATOM     18  C   UNL d   1     -40.302  14.641  20.811  0.00  0.00     0.042 A 
ATOM     19  O   UNL d   1     -41.375  14.046  18.623  0.00  0.00    -0.265 OA
ENDBRANCH   1  12
BRANCH   8  20
ATOM     20  O   UNL d   1     -38.555  15.124  15.674  0.00  0.00    -0.326 OA
ATOM     21  C   UNL d   1     -37.940  15.290  15.156  0.00  0.00     0.181 C 
ENDBRANCH   8  20
TORSDOF 2
ENDMDL
MODEL 6
REMARK VINA RESULT:      -6.1      1.702      3.942
REMARK  2 active torsions:
REMARK  status: ('A' for Active; 'I' for Inactive)
REMARK    1  A    between atoms: C_3  and  C_1 
REMARK       I    between atoms: N_2  and  C_3 
REMARK    2  A    between atoms: O_16  and  C_15 
ROOT
ATOM      1  C   UNL d   1     -47.073  13.288  22.576  0.00  0.00     0.121 A 
ATOM      2  C   UNL d   1     -47.357  13.970  22.948  0.00  0.00     0.305 A 
ATOM      3  O   UNL d   1     -48.179  14.097  23.013  0.00  0.00    -0.271 OA
ATOM      4  C   UNL d   1     -47.606  12.724  22.265  0.00  0.00     0.012 A 
ATOM      5  C   UNL d   1     -48.705  13.547  22.709  0.00  0.00     0.125 A 
ATOM      6  C   UNL d   1     -48.418  12.858  22.334  0.00  0.00     0.025 A 
ATOM      7  O   UNL d   1     -46.833  14.524  23.254  0.00  0.00    -0.259 OA
ATOM      8  C   UNL d   1     -49.524  13.663  22.768  0.00  0.00     0.117 A 
ATOM      9  C   UNL d   1     -48.950  12.302  22.027  0.00  0.00     0.002 A 
ATOM     10  C   UNL d   1     -49.762  12.433  22.094  0.00  0.00     0.002 A 
ATOM     11  C   UNL d   1     -50.047  13.110  22.462  0.00  0.00     0.026 A 
ENDROOT
BRANCH   1  12
ATOM     12  C   UNL d   1     -46.264  13.165  22.513  0.00  0.00     0.285 C 
ATOM     13  N   UNL d   1     -45.926  12.471  22.789  0.00  0.00    -0.193 N 
ATOM     14  N   UNL d   1     -46.332  11.848  23.142  0.00  0.00    -0.163 NA
ATOM     15  C   UNL d   1     -45.130  12.274  22.762  0.00  0.00     0.105 A 
ATOM     16  C   UNL d   1     -45.782  11.267  23.333  0.00  0.00     0.103 A 
ATOM     17  C   UNL d   1     -45.952  10.543  23.697  0.00  0.00     0.022 C 
ATOM     18  C   UNL d   1     -45.046  11.530  23.099  0.00  0.00     0.042 A 
ATOM     19  O   UNL d   1     -45.785  13.740  22.172  0.00  0.00    -0.265 OA
ENDBRANCH   1  12
BRANCH   8  20
ATOM     20  O   UNL d   1     -49.802  14.343  23.139  0.00  0.00    -0.326 OA
ATOM     21  C   UNL d   1     -50.509  14.688  22.907  0.00  0.00     0.181 C 
ENDBRANCH   8  20
TORSDOF 2
ENDMDL
MODEL 7
REMARK VINA RESULT:      -6.0      8.368     10.112
REMARK  2 active torsions:
REMARK  status: ('A' for Active; 'I' for Inactive)
REMARK    1  A    between atoms: C_3  and  C_1 
REMARK       I    between atoms: N_2  and  C_3 
REMARK    2  A    between atoms: O_16  and  C_15 
ROOT
ATOM      1  C   UNL d   1     -39.450  15.091  18.362  0.00  0.00     0.121 A 
ATOM      2  C   UNL d   1     -38.959  15.567  18.827  0.00  0.00     0.305 A 
ATOM      3  O   UNL d   1     -39.140  15.687  19.633  0.00  0.00    -0.271 OA
ATOM      4  C   UNL d   1     -40.126  14.729  18.694  0.00  0.00     0.012 A 
ATOM      5  C   UNL d   1     -39.802  15.334  19.963  0.00  0.00     0.125 A 
ATOM      6  C   UNL d   1     -40.298  14.854  19.493  0.00  0.00     0.025 A 
ATOM      7  O   UNL d   1     -38.295  15.922  18.500  0.00  0.00    -0.259 OA
ATOM      8  C   UNL d   1     -39.991  15.448  20.763  0.00  0.00     0.117 A 
ATOM      9  C   UNL d   1     -40.967  14.498  19.826  0.00  0.00     0.002 A 
ATOM     10  C   UNL d   1     -41.140  14.620  20.623  0.00  0.00     0.002 A 
ATOM     11  C   UNL d   1     -40.655  15.093  21.089  0.00  0.00     0.026 A 
ENDROOT
BRANCH   1  12
ATOM     12  C   UNL d   1     -39.271  14.973  17.569  0.00  0.00     0.285 C 
ATOM     13  N   UNL d   1     -38.936  14.268  17.318  0.00  0.00    -0.193 N 
ATOM     14  N   UNL d   1     -38.749  13.629  17.801  0.00  0.00    -0.163 NA
ATOM     15  C   UNL d   1     -38.729  14.076  16.548  0.00  0.00     0.105 A 
ATOM     16  C   UNL d   1     -38.426  13.041  17.324  0.00  0.00     0.103 A 
ATOM     17  C   UNL d   1     -38.160  12.302  17.584  0.00  0.00     0.022 C 
ATOM     18  C   UNL d   1     -38.415  13.318  16.556  0.00  0.00     0.042 A 
ATOM     19  O   UNL d   1     -39.427  15.565  17.019  0.00  0.00    -0.265 OA
ENDBRANCH   1  12
BRANCH   8  20
ATOM     20  O   UNL d   1     -39.499  15.922  21.222  0.00  0.00    -0.326 OA
ATOM     21  C   UNL d   1     -39.558  15.916  22.040  0.00  0.00     0.181 C 
ENDBRANCH   8  20
TORSDOF 2
ENDMDL
MODEL 8
REMARK VINA RESULT:      -5.6      8.400      9.694
REMARK  2 active torsions:
REMARK  status: ('A' for Active; 'I' for Inactive)
REMARK    1  A    between atoms: C_3  and  C_1 
REMARK       I    between atoms: N_2  and  C_3 
REMARK    2  A    between atoms: O_16  and  C_15 
ROOT
ATOM      1  C   UNL d   1     -39.876  15.395  20.522  0.00  0.00     0.121 A 
ATOM      2  C   UNL d   1     -40.599  15.173  20.188  0.00  0.00     0.305 A 
ATOM      3  O   UNL d   1     -40.697  15.194  19.359  0.00  0.00    -0.271 OA
ATOM      4  C   UNL d   1     -39.243  15.641  20.036  0.00  0.00     0.012 A 
ATOM      5  C   UNL d   1     -40.079  15.435  18.878  0.00  0.00     0.125 A 
ATOM      6  C   UNL d   1     -39.349  15.660  19.216  0.00  0.00     0.025 A 
ATOM      7  O   UNL d   1     -41.220  14.931  20.667  0.00  0.00    -0.259 OA
ATOM      8  C   UNL d   1     -40.167  15.460  18.054  0.00  0.00     0.117 A 
ATOM      9  C   UNL d   1     -38.725  15.903  18.730  0.00  0.00     0.002 A 
ATOM     10  C   UNL d   1     -38.828  15.922  17.912  0.00  0.00     0.002 A 
ATOM     11  C   UNL d   1     -39.545  15.702  17.575  0.00  0.00     0.026 A 
ENDROOT
BRANCH   1  12
ATOM     12  C   UNL d   1     -39.781  15.374  21.338  0.00  0.00     0.285 C 
ATOM     13  N   UNL d   1     -39.298  14.810  21.686  0.00  0.00    -0.193 N 
ATOM     14  N   UNL d   1     -38.874  14.230  21.284  0.00  0.00    -0.163 NA
ATOM     15  C   UNL d   1     -39.152  14.724  22.489  0.00  0.00     0.105 A 
ATOM     16  C   UNL d   1     -38.466  13.785  21.844  0.00  0.00     0.103 A 
ATOM     17  C   UNL d   1     -37.970  13.143  21.682  0.00  0.00     0.022 C 
ATOM     18  C   UNL d   1     -38.639  14.090  22.582  0.00  0.00     0.042 A 
ATOM     19  O   UNL d   1     -40.171  15.921  21.813  0.00  0.00    -0.265 OA
ENDBRANCH   1  12
BRANCH   8  20
ATOM     20  O   UNL d   1     -40.888  15.238  17.725  0.00  0.00    -0.326 OA
ATOM     21  C   UNL d   1     -40.971  15.159  16.913  0.00  0.00     0.181 C 
ENDBRANCH   8  20
TORSDOF 2
ENDMDL
