MODEL 1
REMARK VINA RESULT:      47.0      0.000      0.000
REMARK  3 active torsions:
REMARK  status: ('A' for Active; 'I' for Inactive)
REMARK    1  A    between atoms: C_6  and  N_1 
REMARK    2  A    between atoms: C_5  and  C_9 
REMARK    3  A    between atoms: C_14  and  C_6 
ROOT
ATOM      1  C   UNL d   1     -50.415  24.628  33.610  0.00  0.00     0.064 A 
ATOM      2  C   UNL d   1     -50.810  23.965  33.319  0.00  0.00     0.006 A 
ATOM      3  C   UNL d   1     -50.843  25.263  33.912  0.00  0.00     0.006 A 
ATOM      4  C   UNL d   1     -52.064  24.573  33.634  0.00  0.00     0.018 A 
ATOM      5  C   UNL d   1     -51.632  23.936  33.330  0.00  0.00     0.002 A 
ATOM      6  C   UNL d   1     -51.669  25.237  33.925  0.00  0.00     0.002 A 
ENDROOT
BRANCH   4   7
ATOM      7  C   UNL d   1     -52.888  24.545  33.645  0.00  0.00     0.084 C 
BRANCH   7   8
ATOM      8  N   UNL d   1     -53.278  24.088  34.211  0.00  0.00    -0.259 N 
ATOM      9  C   UNL d   1     -53.146  24.117  35.030  0.00  0.00     0.153 A 
ATOM     10  S   UNL d   1     -53.650  23.574  35.379  0.00  0.00    -0.053 SA
ATOM     11  S   UNL d   1     -52.603  24.606  35.415  0.00  0.00    -0.052 SA
ATOM     12  C   UNL d   1     -54.091  23.212  34.783  0.00  0.00     0.099 A 
ATOM     13  C   UNL d   1     -53.860  23.530  34.063  0.00  0.00     0.272 A 
ATOM     14  O   UNL d   1     -54.159  23.328  33.317  0.00  0.00    -0.266 OA
ENDBRANCH   7   8
ENDBRANCH   4   7
BRANCH   1  15
ATOM     15  C   UNL d   1     -49.585  24.653  33.597  0.00  0.00     0.211 C 
ATOM     16  O   UNL d   1     -49.150  23.960  33.678  0.00  0.00    -0.644 OA
ATOM     17  O   UNL d   1     -49.198  25.375  33.502  0.00  0.00    -0.644 OA
ENDBRANCH   1  15
TORSDOF 3
ENDMDL
MODEL 2
REMARK VINA RESULT:      48.1      7.365      8.577
REMARK  3 active torsions:
REMARK  status: ('A' for Active; 'I' for Inactive)
REMARK    1  A    between atoms: C_6  and  N_1 
REMARK    2  A    between atoms: C_5  and  C_9 
REMARK    3  A    between atoms: C_14  and  C_6 
ROOT
ATOM      1  C   UNL d   1     -47.887  32.503  34.100  0.00  0.00     0.064 A 
ATOM      2  C   UNL d   1     -47.207  32.499  34.568  0.00  0.00     0.006 A 
ATOM      3  C   UNL d   1     -48.264  31.796  33.916  0.00  0.00     0.006 A 
ATOM      4  C   UNL d   1     -47.283  31.076  34.666  0.00  0.00     0.018 A 
ATOM      5  C   UNL d   1     -46.905  31.788  34.851  0.00  0.00     0.002 A 
ATOM      6  C   UNL d   1     -47.962  31.080  34.198  0.00  0.00     0.002 A 
ENDROOT
BRANCH   4   7
ATOM      7  C   UNL d   1     -46.980  30.363  34.949  0.00  0.00     0.084 C 
BRANCH   7   8
ATOM      8  N   UNL d   1     -47.324  30.000  35.606  0.00  0.00    -0.259 N 
ATOM      9  C   UNL d   1     -47.819  29.335  35.585  0.00  0.00     0.153 A 
ATOM     10  S   UNL d   1     -48.032  29.163  36.358  0.00  0.00    -0.053 SA
ATOM     11  S   UNL d   1     -48.052  28.925  34.906  0.00  0.00    -0.052 SA
ATOM     12  C   UNL d   1     -47.672  29.716  36.852  0.00  0.00     0.099 A 
ATOM     13  C   UNL d   1     -47.235  30.232  36.387  0.00  0.00     0.272 A 
ATOM     14  O   UNL d   1     -46.784  30.874  36.654  0.00  0.00    -0.266 OA
ENDBRANCH   7   8
ENDBRANCH   4   7
BRANCH   1  15
ATOM     15  C   UNL d   1     -48.188  33.223  33.817  0.00  0.00     0.211 C 
ATOM     16  O   UNL d   1     -47.741  33.687  33.305  0.00  0.00    -0.644 OA
ATOM     17  O   UNL d   1     -48.939  33.473  34.051  0.00  0.00    -0.644 OA
ENDBRANCH   1  15
TORSDOF 3
ENDMDL
