MODEL 1
REMARK VINA RESULT:      -3.0      0.000      0.000
REMARK  3 active torsions:
REMARK  status: ('A' for Active; 'I' for Inactive)
REMARK    1  A    between atoms: C_6  and  C_1 
REMARK    2  A    between atoms: C_8  and  C_3 
REMARK    3  A    between atoms: C_9  and  C_4 
ROOT
ATOM      1  C   UNL d   1     -41.795-122.764 -51.833  0.00  0.00     0.306 A 
ATOM      2  N   UNL d   1     -41.756-122.073 -51.395  0.00  0.00    -0.152 NA
ATOM      3  C   UNL d   1     -41.816-122.731 -52.657  0.00  0.00     0.114 A 
ATOM      4  C   UNL d   1     -41.797-122.007 -53.048  0.00  0.00     0.094 A 
ATOM      5  C   UNL d   1     -41.736-121.348 -51.778  0.00  0.00     0.371 A 
ATOM      6  N   UNL d   1     -41.757-121.316 -52.602  0.00  0.00    -0.191 NA
ATOM      7  O   UNL d   1     -41.696-120.648 -51.339  0.00  0.00    -0.242 OA
ATOM      8  O   UNL d   1     -41.835-123.459 -52.275  0.00  0.00    -0.266 OA
ENDROOT
BRANCH   4   9
ATOM      9  C   UNL d   1     -41.817-121.974 -53.868  0.00  0.00     0.018 A 
ATOM     10  C   UNL d   1     -42.537-121.887 -54.262  0.00  0.00     0.004 A 
ATOM     11  C   UNL d   1     -42.558-121.854 -55.091  0.00  0.00     0.030 A 
ATOM     12  C   UNL d   1     -41.863-121.908 -55.521  0.00  0.00     0.140 A 
ATOM     13  C   UNL d   1     -41.134-121.996 -55.123  0.00  0.00     0.030 A 
ATOM     14  F   UNL d   1     -41.883-121.875 -56.341  0.00  0.00    -0.204 F 
ATOM     15  C   UNL d   1     -41.123-122.028 -54.303  0.00  0.00     0.004 A 
ENDBRANCH   4   9
BRANCH   3  16
ATOM     16  C   UNL d   1     -41.856-123.427 -53.095  0.00  0.00     0.202 C 
ATOM     17  O   UNL d   1     -42.589-123.744 -53.317  0.00  0.00    -0.286 OA
ATOM     18  C   UNL d   1     -41.159-123.817 -53.318  0.00  0.00     0.045 C 
ENDBRANCH   3  16
BRANCH   1  19
ATOM     19  C   UNL d   1     -41.784-123.012 -51.046  0.00  0.00     0.470 C 
ATOM     20  F   UNL d   1     -41.754-123.240 -50.340  0.00  0.00    -0.162 F 
ATOM     21  F   UNL d   1     -41.124-123.345 -50.600  0.00  0.00    -0.162 F 
ATOM     22  F   UNL d   1     -42.411-123.008 -50.461  0.00  0.00    -0.162 F 
ENDBRANCH   1  19
TORSDOF 3
ENDMDL
MODEL 2
REMARK VINA RESULT:      -2.5      1.373      3.815
REMARK  3 active torsions:
REMARK  status: ('A' for Active; 'I' for Inactive)
REMARK    1  A    between atoms: C_6  and  C_1 
REMARK    2  A    between atoms: C_8  and  C_3 
REMARK    3  A    between atoms: C_9  and  C_4 
ROOT
ATOM      1  C   UNL d   1     -42.123-122.021 -54.562  0.00  0.00     0.306 A 
ATOM      2  N   UNL d   1     -41.821-122.588 -55.071  0.00  0.00    -0.152 NA
ATOM      3  C   UNL d   1     -42.032-122.107 -53.747  0.00  0.00     0.114 A 
ATOM      4  C   UNL d   1     -41.639-122.760 -53.435  0.00  0.00     0.094 A 
ATOM      5  C   UNL d   1     -41.429-123.241 -54.768  0.00  0.00     0.371 A 
ATOM      6  N   UNL d   1     -41.338-123.327 -53.952  0.00  0.00    -0.191 NA
ATOM      7  O   UNL d   1     -41.123-123.815 -55.278  0.00  0.00    -0.242 OA
ATOM      8  O   UNL d   1     -42.426-121.451 -54.049  0.00  0.00    -0.266 OA
ENDROOT
BRANCH   4   9
ATOM      9  C   UNL d   1     -41.549-122.846 -52.624  0.00  0.00     0.018 A 
ATOM     10  C   UNL d   1     -41.792-123.540 -52.250  0.00  0.00     0.004 A 
ATOM     11  C   UNL d   1     -41.701-123.627 -51.430  0.00  0.00     0.030 A 
ATOM     12  C   UNL d   1     -41.369-123.022 -50.988  0.00  0.00     0.140 A 
ATOM     13  C   UNL d   1     -41.124-122.319 -51.365  0.00  0.00     0.030 A 
ATOM     14  F   UNL d   1     -41.279-123.108 -50.177  0.00  0.00    -0.204 F 
ATOM     15  C   UNL d   1     -41.217-122.242 -52.177  0.00  0.00     0.004 A 
ENDBRANCH   4   9
BRANCH   3  16
ATOM     16  C   UNL d   1     -42.336-121.537 -53.237  0.00  0.00     0.202 C 
ATOM     17  O   UNL d   1     -43.110-121.600 -52.946  0.00  0.00    -0.286 OA
ATOM     18  C   UNL d   1     -41.867-120.891 -53.010  0.00  0.00     0.045 C 
ENDBRANCH   3  16
BRANCH   1  19
ATOM     19  C   UNL d   1     -42.316-121.752 -55.318  0.00  0.00     0.470 C 
ATOM     20  F   UNL d   1     -42.471-121.499 -55.998  0.00  0.00    -0.162 F 
ATOM     21  F   UNL d   1     -41.864-121.221 -55.827  0.00  0.00    -0.162 F 
ATOM     22  F   UNL d   1     -43.003-121.920 -55.801  0.00  0.00    -0.162 F 
ENDBRANCH   1  19
TORSDOF 3
ENDMDL
MODEL 3
REMARK VINA RESULT:      -1.8      1.106      3.532
REMARK  3 active torsions:
REMARK  status: ('A' for Active; 'I' for Inactive)
REMARK    1  A    between atoms: C_6  and  C_1 
REMARK    2  A    between atoms: C_8  and  C_3 
REMARK    3  A    between atoms: C_9  and  C_4 
ROOT
ATOM      1  C   UNL d   1     -42.054-122.176 -54.806  0.00  0.00     0.306 A 
ATOM      2  N   UNL d   1     -42.053-121.357 -54.824  0.00  0.00    -0.152 NA
ATOM      3  C   UNL d   1     -41.966-122.575 -54.089  0.00  0.00     0.114 A 
ATOM      4  C   UNL d   1     -41.877-122.156 -53.385  0.00  0.00     0.094 A 
ATOM      5  C   UNL d   1     -41.965-120.934 -54.127  0.00  0.00     0.371 A 
ATOM      6  N   UNL d   1     -41.878-121.333 -53.410  0.00  0.00    -0.191 NA
ATOM      7  O   UNL d   1     -41.965-120.107 -54.140  0.00  0.00    -0.242 OA
ATOM      8  O   UNL d   1     -42.054-123.001 -54.787  0.00  0.00    -0.266 OA
ENDROOT
BRANCH   4   9
ATOM      9  C   UNL d   1     -41.790-122.553 -52.672  0.00  0.00     0.018 A 
ATOM     10  C   UNL d   1     -42.276-122.368 -52.032  0.00  0.00     0.004 A 
ATOM     11  C   UNL d   1     -42.188-122.769 -51.311  0.00  0.00     0.030 A 
ATOM     12  C   UNL d   1     -41.616-123.350 -51.232  0.00  0.00     0.140 A 
ATOM     13  C   UNL d   1     -41.123-123.538 -51.879  0.00  0.00     0.030 A 
ATOM     14  F   UNL d   1     -41.529-123.747 -50.519  0.00  0.00    -0.204 F 
ATOM     15  C   UNL d   1     -41.217-123.136 -52.589  0.00  0.00     0.004 A 
ENDBRANCH   4   9
BRANCH   3  16
ATOM     16  C   UNL d   1     -41.966-123.397 -54.074  0.00  0.00     0.202 C 
ATOM     17  O   UNL d   1     -42.675-123.817 -53.980  0.00  0.00    -0.286 OA
ATOM     18  C   UNL d   1     -41.254-123.814 -54.151  0.00  0.00     0.045 C 
ENDBRANCH   3  16
BRANCH   1  19
ATOM     19  C   UNL d   1     -42.152-121.981 -55.602  0.00  0.00     0.470 C 
ATOM     20  F   UNL d   1     -42.261-121.808 -56.315  0.00  0.00    -0.162 F 
ATOM     21  F   UNL d   1     -42.885-121.951 -56.058  0.00  0.00    -0.162 F 
ATOM     22  F   UNL d   1     -41.568-121.756 -56.187  0.00  0.00    -0.162 F 
ENDBRANCH   1  19
TORSDOF 3
ENDMDL
MODEL 4
REMARK VINA RESULT:      -1.6      1.497      3.957
REMARK  3 active torsions:
REMARK  status: ('A' for Active; 'I' for Inactive)
REMARK    1  A    between atoms: C_6  and  C_1 
REMARK    2  A    between atoms: C_8  and  C_3 
REMARK    3  A    between atoms: C_9  and  C_4 
ROOT
ATOM      1  C   UNL d   1     -42.186-122.103 -52.724  0.00  0.00     0.306 A 
ATOM      2  N   UNL d   1     -41.848-122.619 -53.264  0.00  0.00    -0.152 NA
ATOM      3  C   UNL d   1     -42.143-122.264 -51.916  0.00  0.00     0.114 A 
ATOM      4  C   UNL d   1     -41.762-122.941 -51.643  0.00  0.00     0.094 A 
ATOM      5  C   UNL d   1     -41.467-123.294 -52.999  0.00  0.00     0.371 A 
ATOM      6  N   UNL d   1     -41.425-123.455 -52.191  0.00  0.00    -0.191 NA
ATOM      7  O   UNL d   1     -41.125-123.817 -53.541  0.00  0.00    -0.242 OA
ATOM      8  O   UNL d   1     -42.526-121.585 -52.179  0.00  0.00    -0.266 OA
ENDROOT
BRANCH   4   9
ATOM      9  C   UNL d   1     -41.720-123.102 -50.839  0.00  0.00     0.018 A 
ATOM     10  C   UNL d   1     -41.166-122.713 -50.367  0.00  0.00     0.004 A 
ATOM     11  C   UNL d   1     -41.123-122.875 -49.554  0.00  0.00     0.030 A 
ATOM     12  C   UNL d   1     -41.631-123.422 -49.218  0.00  0.00     0.140 A 
ATOM     13  C   UNL d   1     -42.192-123.815 -49.694  0.00  0.00     0.030 A 
ATOM     14  F   UNL d   1     -41.589-123.582 -48.413  0.00  0.00    -0.204 F 
ATOM     15  C   UNL d   1     -42.228-123.649 -50.497  0.00  0.00     0.004 A 
ENDBRANCH   4   9
BRANCH   3  16
ATOM     16  C   UNL d   1     -42.484-121.745 -51.375  0.00  0.00     0.202 C 
ATOM     17  O   UNL d   1     -43.180-121.950 -50.975  0.00  0.00    -0.286 OA
ATOM     18  C   UNL d   1     -42.129-121.011 -51.226  0.00  0.00     0.045 C 
ENDBRANCH   3  16
BRANCH   1  19
ATOM     19  C   UNL d   1     -42.337-121.767 -53.462  0.00  0.00     0.470 C 
ATOM     20  F   UNL d   1     -42.453-121.456 -54.126  0.00  0.00    -0.162 F 
ATOM     21  F   UNL d   1     -41.802-121.302 -53.955  0.00  0.00    -0.162 F 
ATOM     22  F   UNL d   1     -43.050-121.782 -53.936  0.00  0.00    -0.162 F 
ENDBRANCH   1  19
TORSDOF 3
ENDMDL
