MODEL 1
REMARK VINA RESULT:      -6.7      0.000      0.000
REMARK  4 active torsions:
REMARK  status: ('A' for Active; 'I' for Inactive)
REMARK    1  A    between atoms: C_5  and  N_1 
REMARK    2  A    between atoms: C_9  and  C_3 
REMARK    3  A    between atoms: C_7  and  C_4 
REMARK    4  A    between atoms: N_10  and  C_5 
ROOT
ATOM      1  N   UNL d   1     -48.599  12.734  22.793  0.00  0.00    -0.203 N 
ATOM      2  N   UNL d   1     -47.837  12.423  22.705  0.00  0.00    -0.163 NA
ATOM      3  C   UNL d   1     -47.298  13.022  22.664  0.00  0.00     0.103 A 
ATOM      4  C   UNL d   1     -48.540  13.567  22.808  0.00  0.00     0.087 A 
ATOM      5  C   UNL d   1     -47.737  13.752  22.729  0.00  0.00     0.040 A 
ENDROOT
BRANCH   4   6
ATOM      6  C   UNL d   1     -49.143  14.127  22.885  0.00  0.00     0.018 A 
ATOM      7  C   UNL d   1     -49.366  14.409  23.622  0.00  0.00     0.002 A 
ATOM      8  C   UNL d   1     -49.967  14.967  23.698  0.00  0.00     0.007 A 
ATOM      9  C   UNL d   1     -50.349  15.246  23.026  0.00  0.00     0.035 A 
ATOM     10  C   UNL d   1     -50.140  14.978  22.298  0.00  0.00     0.007 A 
ATOM     11 BR   UNL d   1     -50.959  15.814  23.125  0.00  0.00    -0.049 Br
ATOM     12  C   UNL d   1     -49.537  14.417  22.221  0.00  0.00     0.002 A 
ENDBRANCH   4   6
BRANCH   1  13
ATOM     13  C   UNL d   1     -49.315  12.295  22.856  0.00  0.00     0.222 C 
ATOM     14  S   UNL d   1     -49.708  12.045  22.149  0.00  0.00    -0.037 SA
BRANCH  13  15
ATOM     15  N   UNL d   1     -49.648  12.098  23.609  0.00  0.00    -0.214 NA
ATOM     16  C   UNL d   1     -50.091  11.399  23.698  0.00  0.00     0.122 C 
ENDBRANCH  13  15
ENDBRANCH   1  13
BRANCH   3  17
ATOM     17  C   UNL d   1     -46.475  12.923  22.575  0.00  0.00     0.019 A 
ATOM     18  C   UNL d   1     -46.036  13.434  22.102  0.00  0.00     0.002 A 
ATOM     19  C   UNL d   1     -45.212  13.318  22.026  0.00  0.00     0.000 A 
ATOM     20  C   UNL d   1     -44.847  12.700  22.420  0.00  0.00     0.000 A 
ATOM     21  C   UNL d   1     -45.302  12.198  22.890  0.00  0.00     0.000 A 
ATOM     22  C   UNL d   1     -46.101  12.306  22.967  0.00  0.00     0.002 A 
ENDBRANCH   3  17
TORSDOF 4
ENDMDL
MODEL 2
REMARK VINA RESULT:      -5.9      9.506     10.025
REMARK  4 active torsions:
REMARK  status: ('A' for Active; 'I' for Inactive)
REMARK    1  A    between atoms: C_5  and  N_1 
REMARK    2  A    between atoms: C_9  and  C_3 
REMARK    3  A    between atoms: C_7  and  C_4 
REMARK    4  A    between atoms: N_10  and  C_5 
ROOT
ATOM      1  N   UNL d   1     -38.859  14.045  18.990  0.00  0.00    -0.203 N 
ATOM      2  N   UNL d   1     -38.585  13.895  19.757  0.00  0.00    -0.163 NA
ATOM      3  C   UNL d   1     -39.015  14.320  20.291  0.00  0.00     0.103 A 
ATOM      4  C   UNL d   1     -39.490  14.589  19.041  0.00  0.00     0.087 A 
ATOM      5  C   UNL d   1     -39.592  14.764  19.844  0.00  0.00     0.040 A 
ENDROOT
BRANCH   4   6
ATOM      6  C   UNL d   1     -39.946  14.911  18.431  0.00  0.00     0.018 A 
ATOM      7  C   UNL d   1     -40.646  14.556  18.194  0.00  0.00     0.002 A 
ATOM      8  C   UNL d   1     -41.099  14.878  17.587  0.00  0.00     0.007 A 
ATOM      9  C   UNL d   1     -40.847  15.565  17.212  0.00  0.00     0.035 A 
ATOM     10  C   UNL d   1     -40.163  15.922  17.435  0.00  0.00     0.007 A 
ATOM     11 BR   UNL d   1     -41.324  15.876  16.595  0.00  0.00    -0.049 Br
ATOM     12  C   UNL d   1     -39.707  15.600  18.045  0.00  0.00     0.002 A 
ENDBRANCH   4   6
BRANCH   1  13
ATOM     13  C   UNL d   1     -38.559  13.711  18.277  0.00  0.00     0.222 C 
ATOM     14  S   UNL d   1     -37.950  14.122  17.856  0.00  0.00    -0.037 SA
BRANCH  13  15
ATOM     15  N   UNL d   1     -38.852  12.977  17.974  0.00  0.00    -0.214 NA
ATOM     16  C   UNL d   1     -38.366  12.500  17.497  0.00  0.00     0.122 C 
ENDBRANCH  13  15
ENDBRANCH   1  13
BRANCH   3  17
ATOM     17  C   UNL d   1     -38.899  14.312  21.117  0.00  0.00     0.019 A 
ATOM     18  C   UNL d   1     -38.521  14.937  21.497  0.00  0.00     0.002 A 
ATOM     19  C   UNL d   1     -38.415  14.910  22.325  0.00  0.00     0.000 A 
ATOM     20  C   UNL d   1     -38.686  14.267  22.753  0.00  0.00     0.000 A 
ATOM     21  C   UNL d   1     -39.062  13.650  22.355  0.00  0.00     0.000 A 
ATOM     22  C   UNL d   1     -39.168  13.670  21.553  0.00  0.00     0.002 A 
ENDBRANCH   3  17
TORSDOF 4
ENDMDL
MODEL 3
REMARK VINA RESULT:      -5.6      8.026      9.803
REMARK  4 active torsions:
REMARK  status: ('A' for Active; 'I' for Inactive)
REMARK    1  A    between atoms: C_5  and  N_1 
REMARK    2  A    between atoms: C_9  and  C_3 
REMARK    3  A    between atoms: C_7  and  C_4 
REMARK    4  A    between atoms: N_10  and  C_5 
ROOT
ATOM      1  N   UNL d   1     -40.096  14.528  20.032  0.00  0.00    -0.203 N 
ATOM      2  N   UNL d   1     -40.095  14.432  19.210  0.00  0.00    -0.163 NA
ATOM      3  C   UNL d   1     -39.375  14.162  18.964  0.00  0.00     0.103 A 
ATOM      4  C   UNL d   1     -39.344  14.308  20.320  0.00  0.00     0.087 A 
ATOM      5  C   UNL d   1     -38.892  14.081  19.665  0.00  0.00     0.040 A 
ENDROOT
BRANCH   4   6
ATOM      6  C   UNL d   1     -39.069  14.306  21.100  0.00  0.00     0.018 A 
ATOM      7  C   UNL d   1     -39.187  13.658  21.589  0.00  0.00     0.002 A 
ATOM      8  C   UNL d   1     -38.913  13.657  22.365  0.00  0.00     0.007 A 
ATOM      9  C   UNL d   1     -38.514  14.315  22.655  0.00  0.00     0.035 A 
ATOM     10  C   UNL d   1     -38.391  14.956  22.187  0.00  0.00     0.007 A 
ATOM     11 BR   UNL d   1     -38.243  14.294  23.449  0.00  0.00    -0.049 Br
ATOM     12  C   UNL d   1     -38.667  14.958  21.407  0.00  0.00     0.002 A 
ENDBRANCH   4   6
BRANCH   1  13
ATOM     13  C   UNL d   1     -40.739  14.798  20.504  0.00  0.00     0.222 C 
ATOM     14  S   UNL d   1     -41.287  14.232  20.814  0.00  0.00    -0.037 SA
BRANCH  13  15
ATOM     15  N   UNL d   1     -40.848  15.620  20.674  0.00  0.00    -0.214 NA
ATOM     16  C   UNL d   1     -41.614  15.922  20.797  0.00  0.00     0.122 C 
ENDBRANCH  13  15
ENDBRANCH   1  13
BRANCH   3  17
ATOM     17  C   UNL d   1     -39.166  14.000  18.174  0.00  0.00     0.019 A 
ATOM     18  C   UNL d   1     -39.245  14.575  17.590  0.00  0.00     0.002 A 
ATOM     19  C   UNL d   1     -39.030  14.393  16.803  0.00  0.00     0.000 A 
ATOM     20  C   UNL d   1     -38.745  13.650  16.617  0.00  0.00     0.000 A 
ATOM     21  C   UNL d   1     -38.672  13.086  17.215  0.00  0.00     0.000 A 
ATOM     22  C   UNL d   1     -38.879  13.256  17.979  0.00  0.00     0.002 A 
ENDBRANCH   3  17
TORSDOF 4
ENDMDL
MODEL 4
REMARK VINA RESULT:      -5.1      1.519      2.237
REMARK  4 active torsions:
REMARK  status: ('A' for Active; 'I' for Inactive)
REMARK    1  A    between atoms: C_5  and  N_1 
REMARK    2  A    between atoms: C_9  and  C_3 
REMARK    3  A    between atoms: C_7  and  C_4 
REMARK    4  A    between atoms: N_10  and  C_5 
ROOT
ATOM      1  N   UNL d   1     -47.858  13.884  22.546  0.00  0.00    -0.203 N 
ATOM      2  N   UNL d   1     -47.040  13.923  22.427  0.00  0.00    -0.163 NA
ATOM      3  C   UNL d   1     -46.721  13.183  22.465  0.00  0.00     0.103 A 
ATOM      4  C   UNL d   1     -48.067  13.085  22.663  0.00  0.00     0.087 A 
ATOM      5  C   UNL d   1     -47.368  12.645  22.614  0.00  0.00     0.040 A 
ENDROOT
BRANCH   4   6
ATOM      6  C   UNL d   1     -48.815  12.760  22.803  0.00  0.00     0.018 A 
ATOM      7  C   UNL d   1     -49.049  12.549  23.560  0.00  0.00     0.002 A 
ATOM      8  C   UNL d   1     -49.793  12.226  23.698  0.00  0.00     0.007 A 
ATOM      9  C   UNL d   1     -50.310  12.113  23.068  0.00  0.00     0.035 A 
ATOM     10  C   UNL d   1     -50.092  12.315  22.322  0.00  0.00     0.007 A 
ATOM     11 BR   UNL d   1     -51.064  11.782  23.231  0.00  0.00    -0.049 Br
ATOM     12  C   UNL d   1     -49.345  12.640  22.183  0.00  0.00     0.002 A 
ENDBRANCH   4   6
BRANCH   1  13
ATOM     13  C   UNL d   1     -48.395  14.535  22.549  0.00  0.00     0.222 C 
ATOM     14  S   UNL d   1     -48.691  14.826  21.810  0.00  0.00    -0.037 SA
BRANCH  13  15
ATOM     15  N   UNL d   1     -48.643  14.900  23.270  0.00  0.00    -0.214 NA
ATOM     16  C   UNL d   1     -49.009  15.647  23.254  0.00  0.00     0.122 C 
ENDBRANCH  13  15
ENDBRANCH   1  13
BRANCH   3  17
ATOM     17  C   UNL d   1     -45.913  13.002  22.372  0.00  0.00     0.019 A 
ATOM     18  C   UNL d   1     -45.568  12.379  22.786  0.00  0.00     0.002 A 
ATOM     19  C   UNL d   1     -44.756  12.215  22.680  0.00  0.00     0.000 A 
ATOM     20  C   UNL d   1     -44.309  12.670  22.167  0.00  0.00     0.000 A 
ATOM     21  C   UNL d   1     -44.670  13.290  21.761  0.00  0.00     0.000 A 
ATOM     22  C   UNL d   1     -45.457  13.454  21.860  0.00  0.00     0.002 A 
ENDBRANCH   3  17
TORSDOF 4
ENDMDL
MODEL 5
REMARK VINA RESULT:      -5.1      9.381     10.442
REMARK  4 active torsions:
REMARK  status: ('A' for Active; 'I' for Inactive)
REMARK    1  A    between atoms: C_5  and  N_1 
REMARK    2  A    between atoms: C_9  and  C_3 
REMARK    3  A    between atoms: C_7  and  C_4 
REMARK    4  A    between atoms: N_10  and  C_5 
ROOT
ATOM      1  N   UNL d   1     -39.723  14.550  19.267  0.00  0.00    -0.203 N 
ATOM      2  N   UNL d   1     -39.737  14.638  20.090  0.00  0.00    -0.163 NA
ATOM      3  C   UNL d   1     -39.072  14.314  20.413  0.00  0.00     0.103 A 
ATOM      4  C   UNL d   1     -39.019  14.153  19.059  0.00  0.00     0.087 A 
ATOM      5  C   UNL d   1     -38.611  14.004  19.764  0.00  0.00     0.040 A 
ENDROOT
BRANCH   4   6
ATOM      6  C   UNL d   1     -38.749  13.936  18.309  0.00  0.00     0.018 A 
ATOM      7  C   UNL d   1     -38.972  13.223  17.969  0.00  0.00     0.002 A 
ATOM      8  C   UNL d   1     -38.702  13.008  17.222  0.00  0.00     0.007 A 
ATOM      9  C   UNL d   1     -38.203  13.514  16.809  0.00  0.00     0.035 A 
ATOM     10  C   UNL d   1     -37.977  14.214  17.130  0.00  0.00     0.007 A 
ATOM     11 BR   UNL d   1     -37.940  13.275  16.048  0.00  0.00    -0.049 Br
ATOM     12  C   UNL d   1     -38.247  14.432  17.881  0.00  0.00     0.002 A 
ENDBRANCH   4   6
BRANCH   1  13
ATOM     13  C   UNL d   1     -40.313  14.813  18.725  0.00  0.00     0.222 C 
ATOM     14  S   UNL d   1     -40.898  14.263  18.457  0.00  0.00    -0.037 SA
BRANCH  13  15
ATOM     15  N   UNL d   1     -40.332  15.611  18.445  0.00  0.00    -0.214 NA
ATOM     16  C   UNL d   1     -41.027  15.916  18.104  0.00  0.00     0.122 C 
ENDBRANCH  13  15
ENDBRANCH   1  13
BRANCH   3  17
ATOM     17  C   UNL d   1     -38.893  14.297  21.227  0.00  0.00     0.019 A 
ATOM     18  C   UNL d   1     -39.175  13.692  21.709  0.00  0.00     0.002 A 
ATOM     19  C   UNL d   1     -38.983  13.693  22.523  0.00  0.00     0.000 A 
ATOM     20  C   UNL d   1     -38.519  14.291  22.835  0.00  0.00     0.000 A 
ATOM     21  C   UNL d   1     -38.245  14.889  22.336  0.00  0.00     0.000 A 
ATOM     22  C   UNL d   1     -38.428  14.893  21.547  0.00  0.00     0.002 A 
ENDBRANCH   3  17
TORSDOF 4
ENDMDL
MODEL 6
REMARK VINA RESULT:      -5.1      1.971      2.897
REMARK  4 active torsions:
REMARK  status: ('A' for Active; 'I' for Inactive)
REMARK    1  A    between atoms: C_5  and  N_1 
REMARK    2  A    between atoms: C_9  and  C_3 
REMARK    3  A    between atoms: C_7  and  C_4 
REMARK    4  A    between atoms: N_10  and  C_5 
ROOT
ATOM      1  N   UNL d   1     -46.664  12.590  22.770  0.00  0.00    -0.203 N 
ATOM      2  N   UNL d   1     -45.895  12.291  22.835  0.00  0.00    -0.163 NA
ATOM      3  C   UNL d   1     -45.913  11.547  23.145  0.00  0.00     0.103 A 
ATOM      4  C   UNL d   1     -47.193  12.009  23.052  0.00  0.00     0.087 A 
ATOM      5  C   UNL d   1     -46.735  11.360  23.286  0.00  0.00     0.040 A 
ENDROOT
BRANCH   4   6
ATOM      6  C   UNL d   1     -48.018  12.041  23.103  0.00  0.00     0.018 A 
ATOM      7  C   UNL d   1     -48.489  11.570  22.626  0.00  0.00     0.002 A 
ATOM      8  C   UNL d   1     -49.310  11.602  22.678  0.00  0.00     0.007 A 
ATOM      9  C   UNL d   1     -49.663  12.115  23.215  0.00  0.00     0.035 A 
ATOM     10  C   UNL d   1     -49.213  12.582  23.688  0.00  0.00     0.007 A 
ATOM     11 BR   UNL d   1     -50.502  12.133  23.252  0.00  0.00    -0.049 Br
ATOM     12  C   UNL d   1     -48.388  12.550  23.637  0.00  0.00     0.002 A 
ENDBRANCH   4   6
BRANCH   1  13
ATOM     13  C   UNL d   1     -46.884  13.348  22.474  0.00  0.00     0.222 C 
ATOM     14  S   UNL d   1     -47.158  13.412  21.675  0.00  0.00    -0.037 SA
BRANCH  13  15
ATOM     15  N   UNL d   1     -46.837  14.042  22.955  0.00  0.00    -0.214 NA
ATOM     16  C   UNL d   1     -46.962  14.792  22.616  0.00  0.00     0.122 C 
ENDBRANCH  13  15
ENDBRANCH   1  13
BRANCH   3  17
ATOM     17  C   UNL d   1     -45.245  11.070  23.290  0.00  0.00     0.019 A 
ATOM     18  C   UNL d   1     -44.484  11.362  23.174  0.00  0.00     0.002 A 
ATOM     19  C   UNL d   1     -43.827  10.868  23.326  0.00  0.00     0.000 A 
ATOM     20  C   UNL d   1     -43.942  10.101  23.587  0.00  0.00     0.000 A 
ATOM     21  C   UNL d   1     -44.712   9.825  23.698  0.00  0.00     0.000 A 
ATOM     22  C   UNL d   1     -45.352  10.299  23.552  0.00  0.00     0.002 A 
ENDBRANCH   3  17
TORSDOF 4
ENDMDL
MODEL 7
REMARK VINA RESULT:      -5.0      8.226      9.935
REMARK  4 active torsions:
REMARK  status: ('A' for Active; 'I' for Inactive)
REMARK    1  A    between atoms: C_5  and  N_1 
REMARK    2  A    between atoms: C_9  and  C_3 
REMARK    3  A    between atoms: C_7  and  C_4 
REMARK    4  A    between atoms: N_10  and  C_5 
ROOT
ATOM      1  N   UNL d   1     -38.724  14.052  19.890  0.00  0.00    -0.203 N 
ATOM      2  N   UNL d   1     -38.292  13.671  19.295  0.00  0.00    -0.163 NA
ATOM      3  C   UNL d   1     -38.714  13.665  18.608  0.00  0.00     0.103 A 
ATOM      4  C   UNL d   1     -39.452  14.299  19.564  0.00  0.00     0.087 A 
ATOM      5  C   UNL d   1     -39.453  14.063  18.771  0.00  0.00     0.040 A 
ENDROOT
BRANCH   4   6
ATOM      6  C   UNL d   1     -40.074  14.702  19.932  0.00  0.00     0.018 A 
ATOM      7  C   UNL d   1     -40.074  15.520  19.985  0.00  0.00     0.002 A 
ATOM      8  C   UNL d   1     -40.693  15.920  20.352  0.00  0.00     0.007 A 
ATOM      9  C   UNL d   1     -41.320  15.494  20.669  0.00  0.00     0.035 A 
ATOM     10  C   UNL d   1     -41.332  14.692  20.623  0.00  0.00     0.007 A 
ATOM     11 BR   UNL d   1     -41.942  15.921  21.038  0.00  0.00    -0.049 Br
ATOM     12  C   UNL d   1     -40.710  14.289  20.256  0.00  0.00     0.002 A 
ENDBRANCH   4   6
BRANCH   1  13
ATOM     13  C   UNL d   1     -38.480  14.174  20.687  0.00  0.00     0.222 C 
ATOM     14  S   UNL d   1     -38.057  14.881  20.883  0.00  0.00    -0.037 SA
BRANCH  13  15
ATOM     15  N   UNL d   1     -38.647  13.607  21.293  0.00  0.00    -0.214 NA
ATOM     16  C   UNL d   1     -38.080  13.446  21.880  0.00  0.00     0.122 C 
ENDBRANCH  13  15
ENDBRANCH   1  13
BRANCH   3  17
ATOM     17  C   UNL d   1     -38.457  13.330  17.889  0.00  0.00     0.019 A 
ATOM     18  C   UNL d   1     -38.468  12.515  17.776  0.00  0.00     0.002 A 
ATOM     19  C   UNL d   1     -38.206  12.198  17.047  0.00  0.00     0.000 A 
ATOM     20  C   UNL d   1     -37.943  12.697  16.454  0.00  0.00     0.000 A 
ATOM     21  C   UNL d   1     -37.940  13.511  16.586  0.00  0.00     0.000 A 
ATOM     22  C   UNL d   1     -38.192  13.824  17.289  0.00  0.00     0.002 A 
ENDBRANCH   3  17
TORSDOF 4
ENDMDL
MODEL 8
REMARK VINA RESULT:      -4.9      8.415     10.585
REMARK  4 active torsions:
REMARK  status: ('A' for Active; 'I' for Inactive)
REMARK    1  A    between atoms: C_5  and  N_1 
REMARK    2  A    between atoms: C_9  and  C_3 
REMARK    3  A    between atoms: C_7  and  C_4 
REMARK    4  A    between atoms: N_10  and  C_5 
ROOT
ATOM      1  N   UNL d   1     -39.226  14.016  18.479  0.00  0.00    -0.203 N 
ATOM      2  N   UNL d   1     -39.689  14.026  19.166  0.00  0.00    -0.163 NA
ATOM      3  C   UNL d   1     -40.074  14.732  19.229  0.00  0.00     0.103 A 
ATOM      4  C   UNL d   1     -39.322  14.748  18.091  0.00  0.00     0.087 A 
ATOM      5  C   UNL d   1     -39.846  15.197  18.549  0.00  0.00     0.040 A 
ENDROOT
BRANCH   4   6
ATOM      6  C   UNL d   1     -38.977  15.009  17.385  0.00  0.00     0.018 A 
ATOM      7  C   UNL d   1     -39.296  14.804  16.658  0.00  0.00     0.002 A 
ATOM      8  C   UNL d   1     -38.952  15.065  15.957  0.00  0.00     0.007 A 
ATOM      9  C   UNL d   1     -38.280  15.536  15.985  0.00  0.00     0.035 A 
ATOM     10  C   UNL d   1     -37.958  15.743  16.691  0.00  0.00     0.007 A 
ATOM     11 BR   UNL d   1     -37.945  15.791  15.259  0.00  0.00    -0.049 Br
ATOM     12  C   UNL d   1     -38.302  15.483  17.396  0.00  0.00     0.002 A 
ENDBRANCH   4   6
BRANCH   1  13
ATOM     13  C   UNL d   1     -38.739  13.382  18.212  0.00  0.00     0.222 C 
ATOM     14  S   UNL d   1     -37.941  13.332  18.491  0.00  0.00    -0.037 SA
BRANCH  13  15
ATOM     15  N   UNL d   1     -39.031  12.797  17.675  0.00  0.00    -0.214 NA
ATOM     16  C   UNL d   1     -38.634  12.069  17.598  0.00  0.00     0.122 C 
ENDBRANCH  13  15
ENDBRANCH   1  13
BRANCH   3  17
ATOM     17  C   UNL d   1     -40.591  14.945  19.847  0.00  0.00     0.019 A 
ATOM     18  C   UNL d   1     -40.847  15.722  19.935  0.00  0.00     0.002 A 
ATOM     19  C   UNL d   1     -41.365  15.915  20.563  0.00  0.00     0.000 A 
ATOM     20  C   UNL d   1     -41.614  15.335  21.082  0.00  0.00     0.000 A 
ATOM     21  C   UNL d   1     -41.347  14.561  20.978  0.00  0.00     0.000 A 
ATOM     22  C   UNL d   1     -40.845  14.368  20.373  0.00  0.00     0.002 A 
ENDBRANCH   3  17
TORSDOF 4
ENDMDL
MODEL 9
REMARK VINA RESULT:      -4.0      1.693      3.941
REMARK  4 active torsions:
REMARK  status: ('A' for Active; 'I' for Inactive)
REMARK    1  A    between atoms: C_5  and  N_1 
REMARK    2  A    between atoms: C_9  and  C_3 
REMARK    3  A    between atoms: C_7  and  C_4 
REMARK    4  A    between atoms: N_10  and  C_5 
ROOT
ATOM      1  N   UNL d   1     -48.587  12.833  22.963  0.00  0.00    -0.203 N 
ATOM      2  N   UNL d   1     -49.290  13.247  23.105  0.00  0.00    -0.163 NA
ATOM      3  C   UNL d   1     -49.155  14.042  23.066  0.00  0.00     0.103 A 
ATOM      4  C   UNL d   1     -47.980  13.390  22.829  0.00  0.00     0.087 A 
ATOM      5  C   UNL d   1     -48.324  14.140  22.891  0.00  0.00     0.040 A 
ENDROOT
BRANCH   4   6
ATOM      6  C   UNL d   1     -47.181  13.255  22.663  0.00  0.00     0.018 A 
ATOM      7  C   UNL d   1     -46.925  13.127  21.895  0.00  0.00     0.002 A 
ATOM      8  C   UNL d   1     -46.129  12.992  21.732  0.00  0.00     0.007 A 
ATOM      9  C   UNL d   1     -45.584  12.986  22.346  0.00  0.00     0.035 A 
ATOM     10  C   UNL d   1     -45.822  13.110  23.103  0.00  0.00     0.007 A 
ATOM     11 BR   UNL d   1     -44.777  12.847  22.158  0.00  0.00    -0.049 Br
ATOM     12  C   UNL d   1     -46.621  13.245  23.269  0.00  0.00     0.002 A 
ENDBRANCH   4   6
BRANCH   1  13
ATOM     13  C   UNL d   1     -48.492  11.996  22.955  0.00  0.00     0.222 C 
ATOM     14  S   UNL d   1     -48.556  11.583  22.218  0.00  0.00    -0.037 SA
BRANCH  13  15
ATOM     15  N   UNL d   1     -48.336  11.561  23.664  0.00  0.00    -0.214 NA
ATOM     16  C   UNL d   1     -48.502  10.746  23.697  0.00  0.00     0.122 C 
ENDBRANCH  13  15
ENDBRANCH   1  13
BRANCH   3  17
ATOM     17  C   UNL d   1     -49.731  14.634  23.179  0.00  0.00     0.019 A 
ATOM     18  C   UNL d   1     -49.541  15.341  23.556  0.00  0.00     0.002 A 
ATOM     19  C   UNL d   1     -50.133  15.922  23.660  0.00  0.00     0.000 A 
ATOM     20  C   UNL d   1     -50.893  15.787  23.388  0.00  0.00     0.000 A 
ATOM     21  C   UNL d   1     -51.065  15.072  23.012  0.00  0.00     0.000 A 
ATOM     22  C   UNL d   1     -50.495  14.505  22.909  0.00  0.00     0.002 A 
ENDBRANCH   3  17
TORSDOF 4
ENDMDL
