MODEL 1
REMARK VINA RESULT:     -10.0      0.000      0.000
REMARK  6 active torsions:
REMARK  status: ('A' for Active; 'I' for Inactive)
REMARK    1  A    between atoms: C_9  and  N_1 
REMARK    2  A    between atoms: C_2  and  C_3 
REMARK    3  A    between atoms: C_4  and  C_6 
REMARK    4  A    between atoms: C_7  and  C_5 
REMARK       I    between atoms: C_6  and  N_8 
REMARK    5  A    between atoms: N_8  and  N_12 
REMARK    6  A    between atoms: N_12  and  C_17 
ROOT
ATOM      1  C   UNL d   1      53.052  33.548  53.961  0.00  0.00     0.005 A 
ATOM      2  C   UNL d   1      52.779  34.049  53.366  0.00  0.00     0.059 A 
ATOM      3  C   UNL d   1      53.224  33.881  54.695  0.00  0.00     0.000 A 
ATOM      4  C   UNL d   1      52.682  34.842  53.499  0.00  0.00     0.005 A 
ATOM      5  C   UNL d   1      53.125  34.692  54.831  0.00  0.00     0.000 A 
ATOM      6  C   UNL d   1      52.856  35.154  54.230  0.00  0.00     0.000 A 
ENDROOT
BRANCH   2   7
ATOM      7  C   UNL d   1      52.601  33.718  52.614  0.00  0.00     0.297 C 
ATOM      8  N   UNL d   1      51.843  33.827  52.306  0.00  0.00    -0.106 NA
ATOM      9  O   UNL d   1      53.178  33.293  52.194  0.00  0.00    -0.264 OA
BRANCH   8  10
ATOM     10  N   UNL d   1      51.268  34.250  52.725  0.00  0.00    -0.145 NA
BRANCH  10  11
ATOM     11  C   UNL d   1      50.539  34.392  52.387  0.00  0.00     0.103 A 
ATOM     12  C   UNL d   1      50.429  34.267  51.589  0.00  0.00     0.023 A 
ATOM     13  C   UNL d   1      49.691  34.408  51.240  0.00  0.00     0.025 A 
ATOM     14  C   UNL d   1      49.072  34.675  51.701  0.00  0.00     0.127 A 
ATOM     15  C   UNL d   1      49.174  34.804  52.505  0.00  0.00     0.025 A 
ATOM     16  C   UNL d   1      49.912  34.662  52.855  0.00  0.00     0.023 A 
BRANCH  14  17
ATOM     17  N   UNL d   1      48.340  34.813  51.342  0.00  0.00    -0.114 N 
ATOM     18  O   UNL d   1      48.104  34.408  50.682  0.00  0.00    -0.532 OA
ATOM     19  O   UNL d   1      47.822  35.387  51.664  0.00  0.00    -0.532 OA
ENDBRANCH  14  17
ENDBRANCH  10  11
ENDBRANCH   8  10
ENDBRANCH   2   7
BRANCH   1  20
ATOM     20  C   UNL d   1      53.149  32.756  53.828  0.00  0.00     0.006 A 
ATOM     21  C   UNL d   1      53.848  32.389  54.033  0.00  0.00     0.064 A 
ATOM     22  C   UNL d   1      53.947  31.579  53.898  0.00  0.00     0.006 A 
ATOM     23  C   UNL d   1      53.345  31.146  53.559  0.00  0.00     0.000 A 
ATOM     24  C   UNL d   1      52.669  31.491  53.359  0.00  0.00     0.000 A 
ATOM     25  C   UNL d   1      52.549  32.304  53.487  0.00  0.00     0.000 A 
BRANCH  21  26
ATOM     26  C   UNL d   1      54.471  32.825  54.380  0.00  0.00     0.211 C 
ATOM     27  O   UNL d   1      55.076  33.148  53.899  0.00  0.00    -0.644 OA
ATOM     28  O   UNL d   1      54.500  32.944  55.199  0.00  0.00    -0.644 OA
ENDBRANCH  21  26
ENDBRANCH   1  20
TORSDOF 6
ENDMDL
MODEL 2
REMARK VINA RESULT:      -9.3      1.221      2.249
REMARK  6 active torsions:
REMARK  status: ('A' for Active; 'I' for Inactive)
REMARK    1  A    between atoms: C_9  and  N_1 
REMARK    2  A    between atoms: C_2  and  C_3 
REMARK    3  A    between atoms: C_4  and  C_6 
REMARK    4  A    between atoms: C_7  and  C_5 
REMARK       I    between atoms: C_6  and  N_8 
REMARK    5  A    between atoms: N_8  and  N_12 
REMARK    6  A    between atoms: N_12  and  C_17 
ROOT
ATOM      1  C   UNL d   1      53.959  32.196  53.808  0.00  0.00     0.005 A 
ATOM      2  C   UNL d   1      53.466  32.341  53.163  0.00  0.00     0.059 A 
ATOM      3  C   UNL d   1      53.914  31.456  54.168  0.00  0.00     0.000 A 
ATOM      4  C   UNL d   1      52.954  31.774  52.892  0.00  0.00     0.005 A 
ATOM      5  C   UNL d   1      53.392  30.876  53.890  0.00  0.00     0.000 A 
ATOM      6  C   UNL d   1      52.924  31.049  53.259  0.00  0.00     0.000 A 
ENDROOT
BRANCH   2   7
ATOM      7  C   UNL d   1      53.504  33.094  52.791  0.00  0.00     0.297 C 
ATOM      8  N   UNL d   1      52.803  33.512  52.676  0.00  0.00    -0.106 NA
ATOM      9  O   UNL d   1      54.234  33.405  52.544  0.00  0.00    -0.264 OA
BRANCH   8  10
ATOM     10  N   UNL d   1      52.075  33.202  52.922  0.00  0.00    -0.145 NA
BRANCH  10  11
ATOM     11  C   UNL d   1      51.389  33.627  52.801  0.00  0.00     0.103 A 
ATOM     12  C   UNL d   1      50.822  33.657  53.386  0.00  0.00     0.023 A 
ATOM     13  C   UNL d   1      50.123  34.087  53.270  0.00  0.00     0.025 A 
ATOM     14  C   UNL d   1      50.004  34.481  52.565  0.00  0.00     0.127 A 
ATOM     15  C   UNL d   1      50.571  34.455  51.971  0.00  0.00     0.025 A 
ATOM     16  C   UNL d   1      51.270  34.026  52.086  0.00  0.00     0.023 A 
BRANCH  14  17
ATOM     17  N   UNL d   1      49.303  34.906  52.460  0.00  0.00    -0.114 N 
ATOM     18  O   UNL d   1      49.017  35.407  53.029  0.00  0.00    -0.532 OA
ATOM     19  O   UNL d   1      48.870  34.824  51.748  0.00  0.00    -0.532 OA
ENDBRANCH  14  17
ENDBRANCH  10  11
ENDBRANCH   8  10
ENDBRANCH   2   7
BRANCH   1  20
ATOM     20  C   UNL d   1      54.469  32.762  54.079  0.00  0.00     0.006 A 
ATOM     21  C   UNL d   1      54.430  33.011  54.855  0.00  0.00     0.064 A 
ATOM     22  C   UNL d   1      54.952  33.589  55.132  0.00  0.00     0.006 A 
ATOM     23  C   UNL d   1      55.507  33.913  54.630  0.00  0.00     0.000 A 
ATOM     24  C   UNL d   1      55.552  33.679  53.881  0.00  0.00     0.000 A 
ATOM     25  C   UNL d   1      55.036  33.099  53.583  0.00  0.00     0.000 A 
BRANCH  21  26
ATOM     26  C   UNL d   1      53.865  32.686  55.377  0.00  0.00     0.211 C 
ATOM     27  O   UNL d   1      53.170  33.115  55.563  0.00  0.00    -0.644 OA
ATOM     28  O   UNL d   1      53.981  31.941  55.717  0.00  0.00    -0.644 OA
ENDBRANCH  21  26
ENDBRANCH   1  20
TORSDOF 6
ENDMDL
MODEL 3
REMARK VINA RESULT:      -9.2      2.357      4.781
REMARK  6 active torsions:
REMARK  status: ('A' for Active; 'I' for Inactive)
REMARK    1  A    between atoms: C_9  and  N_1 
REMARK    2  A    between atoms: C_2  and  C_3 
REMARK    3  A    between atoms: C_4  and  C_6 
REMARK    4  A    between atoms: C_7  and  C_5 
REMARK       I    between atoms: C_6  and  N_8 
REMARK    5  A    between atoms: N_8  and  N_12 
REMARK    6  A    between atoms: N_12  and  C_17 
ROOT
ATOM      1  C   UNL d   1      53.017  33.673  53.953  0.00  0.00     0.005 A 
ATOM      2  C   UNL d   1      53.528  33.078  53.700  0.00  0.00     0.059 A 
ATOM      3  C   UNL d   1      53.290  34.196  54.528  0.00  0.00     0.000 A 
ATOM      4  C   UNL d   1      54.275  33.010  54.006  0.00  0.00     0.005 A 
ATOM      5  C   UNL d   1      54.054  34.127  54.842  0.00  0.00     0.000 A 
ATOM      6  C   UNL d   1      54.528  33.535  54.574  0.00  0.00     0.000 A 
ENDROOT
BRANCH   2   7
ATOM      7  C   UNL d   1      53.258  32.540  53.113  0.00  0.00     0.297 C 
ATOM      8  N   UNL d   1      53.267  31.734  53.286  0.00  0.00    -0.106 NA
ATOM      9  O   UNL d   1      52.989  32.819  52.378  0.00  0.00    -0.264 OA
BRANCH   8  10
ATOM     10  N   UNL d   1      53.535  31.456  54.018  0.00  0.00    -0.145 NA
BRANCH  10  11
ATOM     11  C   UNL d   1      53.473  30.664  54.202  0.00  0.00     0.103 A 
ATOM     12  C   UNL d   1      53.376  30.432  54.977  0.00  0.00     0.023 A 
ATOM     13  C   UNL d   1      53.312  29.629  55.171  0.00  0.00     0.025 A 
ATOM     14  C   UNL d   1      53.347  29.068  54.578  0.00  0.00     0.127 A 
ATOM     15  C   UNL d   1      53.445  29.292  53.794  0.00  0.00     0.025 A 
ATOM     16  C   UNL d   1      53.508  30.095  53.601  0.00  0.00     0.023 A 
BRANCH  14  17
ATOM     17  N   UNL d   1      53.282  28.270  54.783  0.00  0.00    -0.114 N 
ATOM     18  O   UNL d   1      53.485  27.678  54.268  0.00  0.00    -0.532 OA
ATOM     19  O   UNL d   1      53.001  28.057  55.543  0.00  0.00    -0.532 OA
ENDBRANCH  14  17
ENDBRANCH  10  11
ENDBRANCH   8  10
ENDBRANCH   2   7
BRANCH   1  20
ATOM     20  C   UNL d   1      52.271  33.741  53.647  0.00  0.00     0.006 A 
ATOM     21  C   UNL d   1      52.020  34.453  53.336  0.00  0.00     0.064 A 
ATOM     22  C   UNL d   1      51.257  34.523  53.023  0.00  0.00     0.006 A 
ATOM     23  C   UNL d   1      50.756  33.880  53.024  0.00  0.00     0.000 A 
ATOM     24  C   UNL d   1      50.990  33.191  53.321  0.00  0.00     0.000 A 
ATOM     25  C   UNL d   1      51.752  33.100  53.640  0.00  0.00     0.000 A 
BRANCH  21  26
ATOM     26  C   UNL d   1      52.526  35.117  53.330  0.00  0.00     0.211 C 
ATOM     27  O   UNL d   1      52.539  35.640  53.985  0.00  0.00    -0.644 OA
ATOM     28  O   UNL d   1      53.021  35.268  52.685  0.00  0.00    -0.644 OA
ENDBRANCH  21  26
ENDBRANCH   1  20
TORSDOF 6
ENDMDL
MODEL 4
REMARK VINA RESULT:      -8.8      0.756      1.857
REMARK  6 active torsions:
REMARK  status: ('A' for Active; 'I' for Inactive)
REMARK    1  A    between atoms: C_9  and  N_1 
REMARK    2  A    between atoms: C_2  and  C_3 
REMARK    3  A    between atoms: C_4  and  C_6 
REMARK    4  A    between atoms: C_7  and  C_5 
REMARK       I    between atoms: C_6  and  N_8 
REMARK    5  A    between atoms: N_8  and  N_12 
REMARK    6  A    between atoms: N_12  and  C_17 
ROOT
ATOM      1  C   UNL d   1      52.878  32.994  53.666  0.00  0.00     0.005 A 
ATOM      2  C   UNL d   1      52.473  33.283  53.009  0.00  0.00     0.059 A 
ATOM      3  C   UNL d   1      52.897  32.178  53.779  0.00  0.00     0.000 A 
ATOM      4  C   UNL d   1      52.106  32.781  52.490  0.00  0.00     0.005 A 
ATOM      5  C   UNL d   1      52.521  31.665  53.249  0.00  0.00     0.000 A 
ATOM      6  C   UNL d   1      52.134  31.978  52.617  0.00  0.00     0.000 A 
ENDROOT
BRANCH   2   7
ATOM      7  C   UNL d   1      52.450  34.115  52.886  0.00  0.00     0.297 C 
ATOM      8  N   UNL d   1      51.715  34.476  52.785  0.00  0.00    -0.106 NA
ATOM      9  O   UNL d   1      53.152  34.558  52.868  0.00  0.00    -0.264 OA
BRANCH   8  10
ATOM     10  N   UNL d   1      51.015  34.035  52.804  0.00  0.00    -0.145 NA
BRANCH  10  11
ATOM     11  C   UNL d   1      50.300  34.397  52.655  0.00  0.00     0.103 A 
ATOM     12  C   UNL d   1      49.921  34.808  53.249  0.00  0.00     0.023 A 
ATOM     13  C   UNL d   1      49.194  35.179  53.106  0.00  0.00     0.025 A 
ATOM     14  C   UNL d   1      48.858  35.131  52.363  0.00  0.00     0.127 A 
ATOM     15  C   UNL d   1      49.233  34.720  51.759  0.00  0.00     0.025 A 
ATOM     16  C   UNL d   1      49.959  34.349  51.902  0.00  0.00     0.023 A 
BRANCH  14  17
ATOM     17  N   UNL d   1      48.133  35.505  52.230  0.00  0.00    -0.114 N 
ATOM     18  O   UNL d   1      47.721  35.409  51.539  0.00  0.00    -0.532 OA
ATOM     19  O   UNL d   1      47.806  35.999  52.823  0.00  0.00    -0.532 OA
ENDBRANCH  14  17
ENDBRANCH  10  11
ENDBRANCH   8  10
ENDBRANCH   2   7
BRANCH   1  20
ATOM     20  C   UNL d   1      53.246  33.496  54.184  0.00  0.00     0.006 A 
ATOM     21  C   UNL d   1      54.026  33.373  54.389  0.00  0.00     0.064 A 
ATOM     22  C   UNL d   1      54.402  33.885  54.918  0.00  0.00     0.006 A 
ATOM     23  C   UNL d   1      53.992  34.514  55.237  0.00  0.00     0.000 A 
ATOM     24  C   UNL d   1      53.241  34.640  55.045  0.00  0.00     0.000 A 
ATOM     25  C   UNL d   1      52.845  34.137  54.515  0.00  0.00     0.000 A 
BRANCH  21  26
ATOM     26  C   UNL d   1      54.453  32.731  54.068  0.00  0.00     0.211 C 
ATOM     27  O   UNL d   1      54.945  32.847  53.399  0.00  0.00    -0.644 OA
ATOM     28  O   UNL d   1      54.399  31.976  54.402  0.00  0.00    -0.644 OA
ENDBRANCH  21  26
ENDBRANCH   1  20
TORSDOF 6
ENDMDL
MODEL 5
REMARK VINA RESULT:      -8.4      2.460      4.768
REMARK  6 active torsions:
REMARK  status: ('A' for Active; 'I' for Inactive)
REMARK    1  A    between atoms: C_9  and  N_1 
REMARK    2  A    between atoms: C_2  and  C_3 
REMARK    3  A    between atoms: C_4  and  C_6 
REMARK    4  A    between atoms: C_7  and  C_5 
REMARK       I    between atoms: C_6  and  N_8 
REMARK    5  A    between atoms: N_8  and  N_12 
REMARK    6  A    between atoms: N_12  and  C_17 
ROOT
ATOM      1  C   UNL d   1      52.705  33.573  53.820  0.00  0.00     0.005 A 
ATOM      2  C   UNL d   1      52.821  32.967  53.273  0.00  0.00     0.059 A 
ATOM      3  C   UNL d   1      51.955  33.912  53.865  0.00  0.00     0.000 A 
ATOM      4  C   UNL d   1      52.218  32.713  52.796  0.00  0.00     0.005 A 
ATOM      5  C   UNL d   1      51.338  33.652  53.377  0.00  0.00     0.000 A 
ATOM      6  C   UNL d   1      51.484  33.059  52.854  0.00  0.00     0.000 A 
ENDROOT
BRANCH   2   7
ATOM      7  C   UNL d   1      53.584  32.616  53.220  0.00  0.00     0.297 C 
ATOM      8  N   UNL d   1      53.657  31.810  53.378  0.00  0.00    -0.106 NA
ATOM      9  O   UNL d   1      54.245  33.075  53.013  0.00  0.00    -0.264 OA
BRANCH   8  10
ATOM     10  N   UNL d   1      52.998  31.353  53.585  0.00  0.00    -0.145 NA
BRANCH  10  11
ATOM     11  C   UNL d   1      53.099  30.596  53.870  0.00  0.00     0.103 A 
ATOM     12  C   UNL d   1      53.185  30.470  54.671  0.00  0.00     0.023 A 
ATOM     13  C   UNL d   1      53.288  29.704  54.967  0.00  0.00     0.025 A 
ATOM     14  C   UNL d   1      53.304  29.071  54.450  0.00  0.00     0.127 A 
ATOM     15  C   UNL d   1      53.219  29.188  53.642  0.00  0.00     0.025 A 
ATOM     16  C   UNL d   1      53.116  29.955  53.346  0.00  0.00     0.023 A 
BRANCH  14  17
ATOM     17  N   UNL d   1      53.408  28.311  54.756  0.00  0.00    -0.114 N 
ATOM     18  O   UNL d   1      53.620  27.685  54.287  0.00  0.00    -0.532 OA
ATOM     19  O   UNL d   1      53.293  28.173  55.575  0.00  0.00    -0.532 OA
ENDBRANCH  14  17
ENDBRANCH  10  11
ENDBRANCH   8  10
ENDBRANCH   2   7
BRANCH   1  20
ATOM     20  C   UNL d   1      53.307  33.827  54.297  0.00  0.00     0.006 A 
ATOM     21  C   UNL d   1      53.484  34.622  54.346  0.00  0.00     0.064 A 
ATOM     22  C   UNL d   1      54.099  34.881  54.833  0.00  0.00     0.006 A 
ATOM     23  C   UNL d   1      54.531  34.342  55.267  0.00  0.00     0.000 A 
ATOM     24  C   UNL d   1      54.368  33.575  55.226  0.00  0.00     0.000 A 
ATOM     25  C   UNL d   1      53.753  33.294  54.742  0.00  0.00     0.000 A 
BRANCH  21  26
ATOM     26  C   UNL d   1      53.047  35.181  53.906  0.00  0.00     0.211 C 
ATOM     27  O   UNL d   1      52.390  35.568  54.254  0.00  0.00    -0.644 OA
ATOM     28  O   UNL d   1      53.253  35.362  53.125  0.00  0.00    -0.644 OA
ENDBRANCH  21  26
ENDBRANCH   1  20
TORSDOF 6
ENDMDL
