MODEL 1
REMARK VINA RESULT:      11.7      0.000      0.000
REMARK  7 active torsions:
REMARK  status: ('A' for Active; 'I' for Inactive)
REMARK    1  A    between atoms: N_10  and  C_4 
REMARK    2  A    between atoms: C_16  and  N_5 
REMARK    3  A    between atoms: C_18  and  N_11 
REMARK    4  A    between atoms: C_22  and  C_16 
REMARK    5  A    between atoms: C_21  and  C_18 
REMARK    6  A    between atoms: C_24  and  C_22 
REMARK    7  A    between atoms: C_23  and  C_24 
ROOT
ATOM      1  C   UNL d   1      58.865   0.650  33.713  0.00  0.00     0.191 A 
ATOM      2  C   UNL d   1      58.783   0.662  32.893  0.00  0.00     0.174 A 
ATOM      3  N   UNL d   1      58.112   0.645  34.052  0.00  0.00    -0.042 NA
ATOM      4  C   UNL d   1      57.572   0.654  33.425  0.00  0.00     0.722 A 
ATOM      5  N   UNL d   1      57.977   0.665  32.710  0.00  0.00    -0.132 N 
ATOM      6  N   UNL d   1      59.619   0.645  34.061  0.00  0.00    -0.239 N 
ATOM      7  C   UNL d   1      60.307   0.652  33.569  0.00  0.00     0.358 A 
ATOM      8  N   UNL d   1      60.224   0.664  32.749  0.00  0.00    -0.152 NA
ATOM      9  C   UNL d   1      59.453   0.669  32.407  0.00  0.00     0.303 A 
ATOM     10  O   UNL d   1      61.082   0.647  33.914  0.00  0.00    -0.244 OA
ATOM     11  O   UNL d   1      59.371   0.681  31.579  0.00  0.00    -0.263 OA
ATOM     12  C   UNL d   1      59.701   0.633  34.881  0.00  0.00     0.105 C 
ENDROOT
BRANCH   4  13
ATOM     13  N   UNL d   1      56.748   0.653  33.507  0.00  0.00    -0.136 N 
ATOM     14  C   UNL d   1      56.408   0.661  34.261  0.00  0.00     0.117 A 
ATOM     15  C   UNL d   1      55.588   0.659  34.343  0.00  0.00     0.100 A 
ATOM     16  N   UNL d   1      55.107   0.651  33.676  0.00  0.00    -0.300 N 
ATOM     17  C   UNL d   1      55.437   0.644  32.914  0.00  0.00     0.100 A 
ATOM     18  C   UNL d   1      56.265   0.645  32.831  0.00  0.00     0.117 A 
BRANCH  16  19
ATOM     19  C   UNL d   1      54.358   0.646  33.337  0.00  0.00     0.080 C 
BRANCH  19  20
ATOM     20  C   UNL d   1      53.690   0.650  33.814  0.00  0.00     0.018 A 
ATOM     21  C   UNL d   1      52.948   0.644  33.473  0.00  0.00     0.002 A 
ATOM     22  C   UNL d   1      52.277   0.648  33.949  0.00  0.00     0.000 A 
ATOM     23  C   UNL d   1      52.354   0.659  34.768  0.00  0.00     0.000 A 
ATOM     24  C   UNL d   1      53.106   0.665  35.108  0.00  0.00     0.000 A 
ATOM     25  C   UNL d   1      53.770   0.661  34.629  0.00  0.00     0.002 A 
ENDBRANCH  19  20
ENDBRANCH  16  19
ENDBRANCH   4  13
BRANCH   5  26
ATOM     26  C   UNL d   1      57.687   0.676  31.936  0.00  0.00     0.098 C 
BRANCH  26  27
ATOM     27  C   UNL d   1      57.727  -0.008  31.472  0.00  0.00     0.020 C 
BRANCH  27  28
ATOM     28  C   UNL d   1      57.413  -0.005  30.707  0.00  0.00     0.002 C 
BRANCH  28  29
ATOM     29  C   UNL d   1      57.634  -0.594  30.170  0.00  0.00     0.000 A 
ATOM     30  C   UNL d   1      57.441  -1.373  30.329  0.00  0.00     0.000 A 
ATOM     31  C   UNL d   1      57.659  -1.969  29.796  0.00  0.00     0.000 A 
ATOM     32  C   UNL d   1      58.072  -1.769  29.104  0.00  0.00     0.000 A 
ATOM     33  C   UNL d   1      58.265  -0.980  28.949  0.00  0.00     0.000 A 
ATOM     34  C   UNL d   1      58.044  -0.390  29.485  0.00  0.00     0.000 A 
ENDBRANCH  28  29
ENDBRANCH  27  28
ENDBRANCH  26  27
ENDBRANCH   5  26
TORSDOF 7
ENDMDL
MODEL 2
REMARK VINA RESULT:      12.9      3.577      6.142
REMARK  7 active torsions:
REMARK  status: ('A' for Active; 'I' for Inactive)
REMARK    1  A    between atoms: N_10  and  C_4 
REMARK    2  A    between atoms: C_16  and  N_5 
REMARK    3  A    between atoms: C_18  and  N_11 
REMARK    4  A    between atoms: C_22  and  C_16 
REMARK    5  A    between atoms: C_21  and  C_18 
REMARK    6  A    between atoms: C_24  and  C_22 
REMARK    7  A    between atoms: C_23  and  C_24 
ROOT
ATOM      1  C   UNL d   1      59.913  -3.790  28.924  0.00  0.00     0.191 A 
ATOM      2  C   UNL d   1      59.123  -3.564  28.869  0.00  0.00     0.174 A 
ATOM      3  N   UNL d   1      60.368  -3.118  29.074  0.00  0.00    -0.042 NA
ATOM      4  C   UNL d   1      59.841  -2.480  29.109  0.00  0.00     0.722 A 
ATOM      5  N   UNL d   1      59.074  -2.748  28.983  0.00  0.00    -0.132 N 
ATOM      6  N   UNL d   1      60.131  -4.586  28.832  0.00  0.00    -0.239 N 
ATOM      7  C   UNL d   1      59.536  -5.168  28.679  0.00  0.00     0.358 A 
ATOM      8  N   UNL d   1      58.746  -4.942  28.624  0.00  0.00    -0.152 NA
ATOM      9  C   UNL d   1      58.536  -4.130  28.719  0.00  0.00     0.303 A 
ATOM     10  O   UNL d   1      59.748  -5.984  28.583  0.00  0.00    -0.244 OA
ATOM     11  O   UNL d   1      57.738  -3.902  28.663  0.00  0.00    -0.263 OA
ATOM     12  C   UNL d   1      60.921  -4.813  28.887  0.00  0.00     0.105 C 
ENDROOT
BRANCH   4  13
ATOM     13  N   UNL d   1      60.057  -1.693  29.249  0.00  0.00    -0.136 N 
ATOM     14  C   UNL d   1      59.892  -1.113  28.683  0.00  0.00     0.117 A 
ATOM     15  C   UNL d   1      60.106  -0.330  28.823  0.00  0.00     0.100 A 
ATOM     16  N   UNL d   1      60.484  -0.124  29.524  0.00  0.00    -0.300 N 
ATOM     17  C   UNL d   1      60.654  -0.698  30.099  0.00  0.00     0.100 A 
ATOM     18  C   UNL d   1      60.438  -1.489  29.958  0.00  0.00     0.117 A 
BRANCH  16  19
ATOM     19  C   UNL d   1      60.826   0.445  30.010  0.00  0.00     0.080 C 
BRANCH  19  20
ATOM     20  C   UNL d   1      60.580   0.523  30.789  0.00  0.00     0.018 A 
ATOM     21  C   UNL d   1      59.786   0.604  30.958  0.00  0.00     0.002 A 
ATOM     22  C   UNL d   1      59.537   0.682  31.738  0.00  0.00     0.000 A 
ATOM     23  C   UNL d   1      60.089   0.678  32.347  0.00  0.00     0.000 A 
ATOM     24  C   UNL d   1      60.891   0.596  32.172  0.00  0.00     0.000 A 
ATOM     25  C   UNL d   1      61.133   0.518  31.394  0.00  0.00     0.002 A 
ENDBRANCH  19  20
ENDBRANCH  16  19
ENDBRANCH   4  13
BRANCH   5  26
ATOM     26  C   UNL d   1      58.363  -2.327  28.965  0.00  0.00     0.098 C 
BRANCH  26  27
ATOM     27  C   UNL d   1      58.140  -1.868  29.617  0.00  0.00     0.020 C 
BRANCH  27  28
ATOM     28  C   UNL d   1      57.351  -1.862  29.864  0.00  0.00     0.002 C 
BRANCH  28  29
ATOM     29  C   UNL d   1      57.144  -1.474  30.565  0.00  0.00     0.000 A 
ATOM     30  C   UNL d   1      57.045  -1.909  31.250  0.00  0.00     0.000 A 
ATOM     31  C   UNL d   1      56.837  -1.527  31.956  0.00  0.00     0.000 A 
ATOM     32  C   UNL d   1      56.731  -0.704  31.960  0.00  0.00     0.000 A 
ATOM     33  C   UNL d   1      56.832  -0.268  31.265  0.00  0.00     0.000 A 
ATOM     34  C   UNL d   1      57.039  -0.656  30.564  0.00  0.00     0.000 A 
ENDBRANCH  28  29
ENDBRANCH  27  28
ENDBRANCH  26  27
ENDBRANCH   5  26
TORSDOF 7
ENDMDL
MODEL 3
REMARK VINA RESULT:      12.9      3.150      6.174
REMARK  7 active torsions:
REMARK  status: ('A' for Active; 'I' for Inactive)
REMARK    1  A    between atoms: N_10  and  C_4 
REMARK    2  A    between atoms: C_16  and  N_5 
REMARK    3  A    between atoms: C_18  and  N_11 
REMARK    4  A    between atoms: C_22  and  C_16 
REMARK    5  A    between atoms: C_21  and  C_18 
REMARK    6  A    between atoms: C_24  and  C_22 
REMARK    7  A    between atoms: C_23  and  C_24 
ROOT
ATOM      1  C   UNL d   1      59.705  -1.267  29.807  0.00  0.00     0.191 A 
ATOM      2  C   UNL d   1      58.949  -1.182  30.124  0.00  0.00     0.174 A 
ATOM      3  N   UNL d   1      59.747  -1.995  29.420  0.00  0.00    -0.042 NA
ATOM      4  C   UNL d   1      59.005  -2.351  29.507  0.00  0.00     0.722 A 
ATOM      5  N   UNL d   1      58.509  -1.856  29.939  0.00  0.00    -0.132 N 
ATOM      6  N   UNL d   1      60.273  -0.669  29.907  0.00  0.00    -0.239 N 
ATOM      7  C   UNL d   1      60.072   0.031  30.337  0.00  0.00     0.358 A 
ATOM      8  N   UNL d   1      59.316   0.115  30.654  0.00  0.00    -0.152 NA
ATOM      9  C   UNL d   1      58.748  -0.498  30.546  0.00  0.00     0.303 A 
ATOM     10  O   UNL d   1      60.645   0.648  30.445  0.00  0.00    -0.244 OA
ATOM     11  O   UNL d   1      57.985  -0.413  30.866  0.00  0.00    -0.263 OA
ATOM     12  C   UNL d   1      61.029  -0.753  29.590  0.00  0.00     0.105 C 
ENDROOT
BRANCH   4  13
ATOM     13  N   UNL d   1      58.795  -3.092  29.204  0.00  0.00    -0.136 N 
ATOM     14  C   UNL d   1      58.065  -3.193  28.829  0.00  0.00     0.117 A 
ATOM     15  C   UNL d   1      57.856  -3.931  28.527  0.00  0.00     0.100 A 
ATOM     16  N   UNL d   1      58.373  -4.567  28.599  0.00  0.00    -0.300 N 
ATOM     17  C   UNL d   1      59.108  -4.477  28.974  0.00  0.00     0.100 A 
ATOM     18  C   UNL d   1      59.319  -3.732  29.279  0.00  0.00     0.117 A 
BRANCH  16  19
ATOM     19  C   UNL d   1      58.552  -5.359  28.468  0.00  0.00     0.080 C 
BRANCH  19  20
ATOM     20  C   UNL d   1      57.955  -5.922  28.467  0.00  0.00     0.018 A 
ATOM     21  C   UNL d   1      57.174  -5.685  28.475  0.00  0.00     0.002 A 
ATOM     22  C   UNL d   1      56.573  -6.247  28.475  0.00  0.00     0.000 A 
ATOM     23  C   UNL d   1      56.760  -7.047  28.467  0.00  0.00     0.000 A 
ATOM     24  C   UNL d   1      57.551  -7.283  28.459  0.00  0.00     0.000 A 
ATOM     25  C   UNL d   1      58.144  -6.719  28.459  0.00  0.00     0.002 A 
ENDBRANCH  19  20
ENDBRANCH  16  19
ENDBRANCH   4  13
BRANCH   5  26
ATOM     26  C   UNL d   1      57.723  -1.964  30.168  0.00  0.00     0.098 C 
BRANCH  26  27
ATOM     27  C   UNL d   1      57.402  -1.496  30.771  0.00  0.00     0.020 C 
BRANCH  27  28
ATOM     28  C   UNL d   1      56.850  -1.820  31.293  0.00  0.00     0.002 C 
BRANCH  28  29
ATOM     29  C   UNL d   1      56.499  -1.340  31.869  0.00  0.00     0.000 A 
ATOM     30  C   UNL d   1      56.253  -0.587  31.667  0.00  0.00     0.000 A 
ATOM     31  C   UNL d   1      55.901  -0.101  32.238  0.00  0.00     0.000 A 
ATOM     32  C   UNL d   1      55.801  -0.383  33.012  0.00  0.00     0.000 A 
ATOM     33  C   UNL d   1      56.052  -1.145  33.211  0.00  0.00     0.000 A 
ATOM     34  C   UNL d   1      56.402  -1.626  32.637  0.00  0.00     0.000 A 
ENDBRANCH  28  29
ENDBRANCH  27  28
ENDBRANCH  26  27
ENDBRANCH   5  26
TORSDOF 7
ENDMDL
MODEL 4
REMARK VINA RESULT:      13.4      2.080      5.782
REMARK  7 active torsions:
REMARK  status: ('A' for Active; 'I' for Inactive)
REMARK    1  A    between atoms: N_10  and  C_4 
REMARK    2  A    between atoms: C_16  and  N_5 
REMARK    3  A    between atoms: C_18  and  N_11 
REMARK    4  A    between atoms: C_22  and  C_16 
REMARK    5  A    between atoms: C_21  and  C_18 
REMARK    6  A    between atoms: C_24  and  C_22 
REMARK    7  A    between atoms: C_23  and  C_24 
ROOT
ATOM      1  C   UNL d   1      55.903  -1.348  32.435  0.00  0.00     0.191 A 
ATOM      2  C   UNL d   1      56.206  -0.601  32.605  0.00  0.00     0.174 A 
ATOM      3  N   UNL d   1      56.312  -1.656  31.787  0.00  0.00    -0.042 NA
ATOM      4  C   UNL d   1      56.869  -1.084  31.567  0.00  0.00     0.722 A 
ATOM      5  N   UNL d   1      56.809  -0.433  32.066  0.00  0.00    -0.132 N 
ATOM      6  N   UNL d   1      55.285  -1.665  32.891  0.00  0.00    -0.239 N 
ATOM      7  C   UNL d   1      54.967  -1.218  33.533  0.00  0.00     0.358 A 
ATOM      8  N   UNL d   1      55.270  -0.471  33.704  0.00  0.00    -0.152 NA
ATOM      9  C   UNL d   1      55.897  -0.159  33.234  0.00  0.00     0.303 A 
ATOM     10  O   UNL d   1      54.335  -1.533  34.005  0.00  0.00    -0.244 OA
ATOM     11  O   UNL d   1      56.204   0.595  33.406  0.00  0.00    -0.263 OA
ATOM     12  C   UNL d   1      54.981  -2.412  32.720  0.00  0.00     0.105 C 
ENDROOT
BRANCH   4  13
ATOM     13  N   UNL d   1      57.404  -1.158  30.940  0.00  0.00    -0.136 N 
ATOM     14  C   UNL d   1      58.024  -0.618  30.860  0.00  0.00     0.117 A 
ATOM     15  C   UNL d   1      58.557  -0.692  30.235  0.00  0.00     0.100 A 
ATOM     16  N   UNL d   1      58.471  -1.303  29.691  0.00  0.00    -0.300 N 
ATOM     17  C   UNL d   1      57.852  -1.851  29.761  0.00  0.00     0.100 A 
ATOM     18  C   UNL d   1      57.314  -1.776  30.392  0.00  0.00     0.117 A 
BRANCH  16  19
ATOM     19  C   UNL d   1      58.727  -1.699  29.017  0.00  0.00     0.080 C 
BRANCH  19  20
ATOM     20  C   UNL d   1      59.527  -1.726  28.834  0.00  0.00     0.018 A 
ATOM     21  C   UNL d   1      59.921  -2.440  28.842  0.00  0.00     0.002 A 
ATOM     22  C   UNL d   1      60.723  -2.470  28.659  0.00  0.00     0.000 A 
ATOM     23  C   UNL d   1      61.126  -1.779  28.468  0.00  0.00     0.000 A 
ATOM     24  C   UNL d   1      60.724  -1.059  28.461  0.00  0.00     0.000 A 
ATOM     25  C   UNL d   1      59.926  -1.036  28.644  0.00  0.00     0.002 A 
ENDBRANCH  19  20
ENDBRANCH  16  19
ENDBRANCH   4  13
BRANCH   5  26
ATOM     26  C   UNL d   1      57.241   0.272  32.071  0.00  0.00     0.098 C 
BRANCH  26  27
ATOM     27  C   UNL d   1      57.660   0.493  32.749  0.00  0.00     0.020 C 
BRANCH  27  28
ATOM     28  C   UNL d   1      58.463   0.682  32.692  0.00  0.00     0.002 C 
BRANCH  28  29
ATOM     29  C   UNL d   1      58.934   0.680  33.373  0.00  0.00     0.000 A 
ATOM     30  C   UNL d   1      59.748   0.678  33.295  0.00  0.00     0.000 A 
ATOM     31  C   UNL d   1      60.227   0.676  33.972  0.00  0.00     0.000 A 
ATOM     32  C   UNL d   1      59.874   0.676  34.724  0.00  0.00     0.000 A 
ATOM     33  C   UNL d   1      59.050   0.678  34.796  0.00  0.00     0.000 A 
ATOM     34  C   UNL d   1      58.579   0.680  34.116  0.00  0.00     0.000 A 
ENDBRANCH  28  29
ENDBRANCH  27  28
ENDBRANCH  26  27
ENDBRANCH   5  26
TORSDOF 7
ENDMDL
