MODEL 1
REMARK VINA RESULT:      -7.6      0.000      0.000
REMARK  7 active torsions:
REMARK  status: ('A' for Active; 'I' for Inactive)
REMARK    1  A    between atoms: C_7  and  C_1 
REMARK    2  A    between atoms: C_10  and  C_2 
REMARK    3  A    between atoms: S_12  and  C_5 
REMARK    4  A    between atoms: C_11  and  C_6 
REMARK    5  A    between atoms: O_15  and  C_7 
REMARK    6  A    between atoms: C_21  and  S_12 
REMARK    7  A    between atoms: C_22  and  O_15 
ROOT
ATOM      1  C   UNL d   1      53.066  33.283  53.673  0.00  0.00     0.082 A 
ATOM      2  C   UNL d   1      53.697  32.814  53.981  0.00  0.00     0.087 A 
ATOM      3  C   UNL d   1      52.333  32.120  53.357  0.00  0.00     0.092 A 
ATOM      4  N   UNL d   1      53.620  31.971  53.966  0.00  0.00    -0.238 NA
ATOM      5  C   UNL d   1      52.939  31.645  53.654  0.00  0.00     0.120 A 
ATOM      6  C   UNL d   1      52.395  32.933  53.366  0.00  0.00     0.020 A 
ATOM      7  C   UNL d   1      51.637  31.763  53.038  0.00  0.00     0.103 C 
ATOM      8  N   UNL d   1      50.937  31.408  52.718  0.00  0.00    -0.191 NA
ENDROOT
BRANCH   6   9
ATOM      9  C   UNL d   1      51.789  33.408  53.069  0.00  0.00     0.020 A 
ATOM     10  C   UNL d   1      51.131  33.567  53.540  0.00  0.00     0.099 A 
ATOM     11  N   UNL d   1      50.526  34.042  53.243  0.00  0.00    -0.242 NA
ATOM     12  C   UNL d   1      50.578  34.359  52.476  0.00  0.00     0.099 A 
ATOM     13  C   UNL d   1      51.244  34.191  52.017  0.00  0.00     0.021 A 
ATOM     14  C   UNL d   1      51.849  33.716  52.313  0.00  0.00     0.003 A 
ENDBRANCH   6   9
BRANCH   5  15
ATOM     15  S   UNL d   1      52.873  30.793  53.644  0.00  0.00    -0.067 SA
BRANCH  15  16
ATOM     16  C   UNL d   1      53.539  30.314  53.807  0.00  0.00     0.037 C 
ATOM     17  C   UNL d   1      53.448  29.518  53.953  0.00  0.00     0.007 C 
ENDBRANCH  15  16
ENDBRANCH   5  15
BRANCH   1  18
ATOM     18  C   UNL d   1      53.142  34.126  53.688  0.00  0.00     0.302 C 
ATOM     19  O   UNL d   1      53.482  34.492  53.028  0.00  0.00    -0.259 OA
BRANCH  18  20
ATOM     20  O   UNL d   1      52.890  34.541  54.327  0.00  0.00    -0.271 OA
BRANCH  20  21
ATOM     21  C   UNL d   1      52.947  35.369  54.344  0.00  0.00     0.126 C 
ATOM     22  C   UNL d   1      52.697  35.795  55.005  0.00  0.00     0.029 C 
ENDBRANCH  20  21
ENDBRANCH  18  20
ENDBRANCH   1  18
BRANCH   2  23
ATOM     23  C   UNL d   1      54.370  33.162  54.290  0.00  0.00     0.018 A 
ATOM     24  C   UNL d   1      54.975  33.381  53.801  0.00  0.00     0.002 A 
ATOM     25  C   UNL d   1      55.659  33.732  54.108  0.00  0.00     0.000 A 
ATOM     26  C   UNL d   1      55.728  33.863  54.920  0.00  0.00     0.000 A 
ATOM     27  C   UNL d   1      55.093  33.633  55.428  0.00  0.00     0.000 A 
ATOM     28  C   UNL d   1      54.429  33.288  55.103  0.00  0.00     0.002 A 
ENDBRANCH   2  23
TORSDOF 7
ENDMDL
MODEL 2
REMARK VINA RESULT:      -7.1      0.833      3.114
REMARK  7 active torsions:
REMARK  status: ('A' for Active; 'I' for Inactive)
REMARK    1  A    between atoms: C_7  and  C_1 
REMARK    2  A    between atoms: C_10  and  C_2 
REMARK    3  A    between atoms: S_12  and  C_5 
REMARK    4  A    between atoms: C_11  and  C_6 
REMARK    5  A    between atoms: O_15  and  C_7 
REMARK    6  A    between atoms: C_21  and  S_12 
REMARK    7  A    between atoms: C_22  and  O_15 
ROOT
ATOM      1  C   UNL d   1      52.900  33.252  53.441  0.00  0.00     0.082 A 
ATOM      2  C   UNL d   1      52.209  32.954  53.058  0.00  0.00     0.087 A 
ATOM      3  C   UNL d   1      53.414  31.945  53.570  0.00  0.00     0.092 A 
ATOM      4  N   UNL d   1      52.142  32.118  52.938  0.00  0.00    -0.238 NA
ATOM      5  C   UNL d   1      52.747  31.634  53.198  0.00  0.00     0.120 A 
ATOM      6  C   UNL d   1      53.491  32.748  53.692  0.00  0.00     0.020 A 
ATOM      7  C   UNL d   1      54.029  31.428  53.832  0.00  0.00     0.103 C 
ATOM      8  N   UNL d   1      54.647  30.911  54.095  0.00  0.00    -0.191 NA
ENDROOT
BRANCH   6   9
ATOM      9  C   UNL d   1      54.158  33.059  54.064  0.00  0.00     0.020 A 
ATOM     10  C   UNL d   1      54.179  33.102  54.887  0.00  0.00     0.099 A 
ATOM     11  N   UNL d   1      54.846  33.414  55.260  0.00  0.00    -0.242 NA
ATOM     12  C   UNL d   1      55.492  33.681  54.810  0.00  0.00     0.099 A 
ATOM     13  C   UNL d   1      55.456  33.631  53.986  0.00  0.00     0.021 A 
ATOM     14  C   UNL d   1      54.789  33.320  53.614  0.00  0.00     0.003 A 
ENDBRANCH   6   9
BRANCH   5  15
ATOM     15  S   UNL d   1      52.667  30.793  53.071  0.00  0.00    -0.067 SA
BRANCH  15  16
ATOM     16  C   UNL d   1      51.953  30.402  53.262  0.00  0.00     0.037 C 
ATOM     17  C   UNL d   1      51.907  29.589  53.228  0.00  0.00     0.007 C 
ENDBRANCH  15  16
ENDBRANCH   5  15
BRANCH   1  18
ATOM     18  C   UNL d   1      52.968  34.087  53.561  0.00  0.00     0.302 C 
ATOM     19  O   UNL d   1      53.309  34.535  52.954  0.00  0.00    -0.259 OA
BRANCH  18  20
ATOM     20  O   UNL d   1      52.706  34.418  54.243  0.00  0.00    -0.271 OA
BRANCH  20  21
ATOM     21  C   UNL d   1      52.771  35.236  54.371  0.00  0.00     0.126 C 
ATOM     22  C   UNL d   1      52.524  35.572  55.082  0.00  0.00     0.029 C 
ENDBRANCH  20  21
ENDBRANCH  18  20
ENDBRANCH   1  18
BRANCH   2  23
ATOM     23  C   UNL d   1      51.615  33.456  52.805  0.00  0.00     0.018 A 
ATOM     24  C   UNL d   1      51.690  33.857  52.108  0.00  0.00     0.002 A 
ATOM     25  C   UNL d   1      51.091  34.367  51.848  0.00  0.00     0.000 A 
ATOM     26  C   UNL d   1      50.410  34.470  52.302  0.00  0.00     0.000 A 
ATOM     27  C   UNL d   1      50.336  34.049  53.031  0.00  0.00     0.000 A 
ATOM     28  C   UNL d   1      50.938  33.553  53.267  0.00  0.00     0.002 A 
ENDBRANCH   2  23
TORSDOF 7
ENDMDL
MODEL 3
REMARK VINA RESULT:      -6.0      1.354      3.005
REMARK  7 active torsions:
REMARK  status: ('A' for Active; 'I' for Inactive)
REMARK    1  A    between atoms: C_7  and  C_1 
REMARK    2  A    between atoms: C_10  and  C_2 
REMARK    3  A    between atoms: S_12  and  C_5 
REMARK    4  A    between atoms: C_11  and  C_6 
REMARK    5  A    between atoms: O_15  and  C_7 
REMARK    6  A    between atoms: C_21  and  S_12 
REMARK    7  A    between atoms: C_22  and  O_15 
ROOT
ATOM      1  C   UNL d   1      52.730  32.538  53.489  0.00  0.00     0.082 A 
ATOM      2  C   UNL d   1      53.408  32.179  53.840  0.00  0.00     0.087 A 
ATOM      3  C   UNL d   1      53.123  33.802  53.977  0.00  0.00     0.092 A 
ATOM      4  N   UNL d   1      53.949  32.670  54.270  0.00  0.00    -0.238 NA
ATOM      5  C   UNL d   1      53.792  33.470  54.327  0.00  0.00     0.120 A 
ATOM      6  C   UNL d   1      52.595  33.340  53.560  0.00  0.00     0.020 A 
ATOM      7  C   UNL d   1      52.979  34.631  54.047  0.00  0.00     0.103 C 
ATOM      8  N   UNL d   1      52.832  35.463  54.117  0.00  0.00    -0.191 NA
ENDROOT
BRANCH   6   9
ATOM      9  C   UNL d   1      51.926  33.672  53.210  0.00  0.00     0.020 A 
ATOM     10  C   UNL d   1      51.238  33.762  53.655  0.00  0.00     0.099 A 
ATOM     11  N   UNL d   1      50.569  34.093  53.304  0.00  0.00    -0.242 NA
ATOM     12  C   UNL d   1      50.588  34.335  52.508  0.00  0.00     0.099 A 
ATOM     13  C   UNL d   1      51.284  34.238  52.076  0.00  0.00     0.021 A 
ATOM     14  C   UNL d   1      51.953  33.907  52.426  0.00  0.00     0.003 A 
ENDBRANCH   6   9
BRANCH   5  15
ATOM     15  S   UNL d   1      54.345  33.954  54.763  0.00  0.00    -0.067 SA
BRANCH  15  16
ATOM     16  C   UNL d   1      55.011  33.609  55.133  0.00  0.00     0.037 C 
ATOM     17  C   UNL d   1      55.587  34.080  55.465  0.00  0.00     0.007 C 
ENDBRANCH  15  16
ENDBRANCH   5  15
BRANCH   1  18
ATOM     18  C   UNL d   1      52.189  32.048  53.059  0.00  0.00     0.302 C 
ATOM     19  O   UNL d   1      52.323  31.949  52.249  0.00  0.00    -0.259 OA
BRANCH  18  20
ATOM     20  O   UNL d   1      51.575  31.699  53.439  0.00  0.00    -0.271 OA
BRANCH  20  21
ATOM     21  C   UNL d   1      51.054  31.197  53.031  0.00  0.00     0.126 C 
ATOM     22  C   UNL d   1      50.465  30.783  53.434  0.00  0.00     0.029 C 
ENDBRANCH  20  21
ENDBRANCH  18  20
ENDBRANCH   1  18
BRANCH   2  23
ATOM     23  C   UNL d   1      53.546  31.376  53.770  0.00  0.00     0.018 A 
ATOM     24  C   UNL d   1      53.878  31.077  53.097  0.00  0.00     0.002 A 
ATOM     25  C   UNL d   1      54.019  30.265  53.022  0.00  0.00     0.000 A 
ATOM     26  C   UNL d   1      53.821  29.752  53.637  0.00  0.00     0.000 A 
ATOM     27  C   UNL d   1      53.475  30.068  54.339  0.00  0.00     0.000 A 
ATOM     28  C   UNL d   1      53.344  30.872  54.391  0.00  0.00     0.002 A 
ENDBRANCH   2  23
TORSDOF 7
ENDMDL
MODEL 4
REMARK VINA RESULT:      -5.5      1.623      3.796
REMARK  7 active torsions:
REMARK  status: ('A' for Active; 'I' for Inactive)
REMARK    1  A    between atoms: C_7  and  C_1 
REMARK    2  A    between atoms: C_10  and  C_2 
REMARK    3  A    between atoms: S_12  and  C_5 
REMARK    4  A    between atoms: C_11  and  C_6 
REMARK    5  A    between atoms: O_15  and  C_7 
REMARK    6  A    between atoms: C_21  and  S_12 
REMARK    7  A    between atoms: C_22  and  O_15 
ROOT
ATOM      1  C   UNL d   1      53.239  32.484  53.725  0.00  0.00     0.082 A 
ATOM      2  C   UNL d   1      52.665  32.187  53.181  0.00  0.00     0.087 A 
ATOM      3  C   UNL d   1      52.833  33.808  53.459  0.00  0.00     0.092 A 
ATOM      4  N   UNL d   1      52.169  32.740  52.774  0.00  0.00    -0.238 NA
ATOM      5  C   UNL d   1      52.266  33.538  52.924  0.00  0.00     0.120 A 
ATOM      6  C   UNL d   1      53.316  33.285  53.857  0.00  0.00     0.020 A 
ATOM      7  C   UNL d   1      52.917  34.636  53.600  0.00  0.00     0.103 C 
ATOM      8  N   UNL d   1      53.004  35.467  53.743  0.00  0.00    -0.191 NA
ENDROOT
BRANCH   6   9
ATOM      9  C   UNL d   1      53.883  33.555  54.392  0.00  0.00     0.020 A 
ATOM     10  C   UNL d   1      53.650  33.776  55.152  0.00  0.00     0.099 A 
ATOM     11  N   UNL d   1      54.217  34.046  55.687  0.00  0.00    -0.242 NA
ATOM     12  C   UNL d   1      55.017  34.094  55.463  0.00  0.00     0.099 A 
ATOM     13  C   UNL d   1      55.235  33.869  54.699  0.00  0.00     0.021 A 
ATOM     14  C   UNL d   1      54.668  33.599  54.164  0.00  0.00     0.003 A 
ENDBRANCH   6   9
BRANCH   5  15
ATOM     15  S   UNL d   1      51.760  34.086  52.507  0.00  0.00    -0.067 SA
BRANCH  15  16
ATOM     16  C   UNL d   1      51.003  33.847  52.244  0.00  0.00     0.037 C 
ATOM     17  C   UNL d   1      50.515  34.375  51.860  0.00  0.00     0.007 C 
ENDBRANCH  15  16
ENDBRANCH   5  15
BRANCH   1  18
ATOM     18  C   UNL d   1      53.735  31.931  54.132  0.00  0.00     0.302 C 
ATOM     19  O   UNL d   1      54.451  31.723  53.773  0.00  0.00    -0.259 OA
BRANCH  18  20
ATOM     20  O   UNL d   1      53.504  31.629  54.838  0.00  0.00    -0.271 OA
BRANCH  20  21
ATOM     21  C   UNL d   1      53.960  31.049  55.220  0.00  0.00     0.126 C 
ATOM     22  C   UNL d   1      53.698  30.703  55.922  0.00  0.00     0.029 C 
ENDBRANCH  20  21
ENDBRANCH  18  20
ENDBRANCH   1  18
BRANCH   2  23
ATOM     23  C   UNL d   1      52.585  31.384  53.046  0.00  0.00     0.018 A 
ATOM     24  C   UNL d   1      53.098  31.001  52.553  0.00  0.00     0.002 A 
ATOM     25  C   UNL d   1      53.021  30.189  52.413  0.00  0.00     0.000 A 
ATOM     26  C   UNL d   1      52.417  29.762  52.778  0.00  0.00     0.000 A 
ATOM     27  C   UNL d   1      51.883  30.166  53.293  0.00  0.00     0.000 A 
ATOM     28  C   UNL d   1      51.977  30.966  53.416  0.00  0.00     0.002 A 
ENDBRANCH   2  23
TORSDOF 7
ENDMDL
MODEL 5
REMARK VINA RESULT:      -5.2      1.584      4.139
REMARK  7 active torsions:
REMARK  status: ('A' for Active; 'I' for Inactive)
REMARK    1  A    between atoms: C_7  and  C_1 
REMARK    2  A    between atoms: C_10  and  C_2 
REMARK    3  A    between atoms: S_12  and  C_5 
REMARK    4  A    between atoms: C_11  and  C_6 
REMARK    5  A    between atoms: O_15  and  C_7 
REMARK    6  A    between atoms: C_21  and  S_12 
REMARK    7  A    between atoms: C_22  and  O_15 
ROOT
ATOM      1  C   UNL d   1      52.495  33.319  53.409  0.00  0.00     0.082 A 
ATOM      2  C   UNL d   1      52.097  34.062  53.361  0.00  0.00     0.087 A 
ATOM      3  C   UNL d   1      53.485  33.883  54.240  0.00  0.00     0.092 A 
ATOM      4  N   UNL d   1      52.423  34.724  53.777  0.00  0.00    -0.238 NA
ATOM      5  C   UNL d   1      53.110  34.617  54.207  0.00  0.00     0.120 A 
ATOM      6  C   UNL d   1      53.181  33.238  53.845  0.00  0.00     0.020 A 
ATOM      7  C   UNL d   1      54.194  33.794  54.690  0.00  0.00     0.103 C 
ATOM      8  N   UNL d   1      54.906  33.701  55.141  0.00  0.00    -0.191 NA
ENDROOT
BRANCH   6   9
ATOM      9  C   UNL d   1      53.555  32.504  53.878  0.00  0.00     0.020 A 
ATOM     10  C   UNL d   1      53.395  31.996  54.508  0.00  0.00     0.099 A 
ATOM     11  N   UNL d   1      53.769  31.262  54.541  0.00  0.00    -0.242 NA
ATOM     12  C   UNL d   1      54.304  31.035  53.946  0.00  0.00     0.099 A 
ATOM     13  C   UNL d   1      54.454  31.555  53.321  0.00  0.00     0.021 A 
ATOM     14  C   UNL d   1      54.079  32.289  53.288  0.00  0.00     0.003 A 
ENDBRANCH   6   9
BRANCH   5  15
ATOM     15  S   UNL d   1      53.430  35.293  54.622  0.00  0.00    -0.067 SA
BRANCH  15  16
ATOM     16  C   UNL d   1      52.967  35.980  54.732  0.00  0.00     0.037 C 
ATOM     17  C   UNL d   1      53.323  36.694  54.895  0.00  0.00     0.007 C 
ENDBRANCH  15  16
ENDBRANCH   5  15
BRANCH   1  18
ATOM     18  C   UNL d   1      52.169  32.658  52.993  0.00  0.00     0.302 C 
ATOM     19  O   UNL d   1      52.420  32.532  52.215  0.00  0.00    -0.259 OA
BRANCH  18  20
ATOM     20  O   UNL d   1      51.636  32.179  53.355  0.00  0.00    -0.271 OA
BRANCH  20  21
ATOM     21  C   UNL d   1      51.361  31.492  52.980  0.00  0.00     0.126 C 
ATOM     22  C   UNL d   1      50.844  30.979  53.368  0.00  0.00     0.029 C 
ENDBRANCH  20  21
ENDBRANCH  18  20
ENDBRANCH   1  18
BRANCH   2  23
ATOM     23  C   UNL d   1      51.410  34.147  52.925  0.00  0.00     0.018 A 
ATOM     24  C   UNL d   1      51.443  34.207  52.120  0.00  0.00     0.002 A 
ATOM     25  C   UNL d   1      50.751  34.293  51.674  0.00  0.00     0.000 A 
ATOM     26  C   UNL d   1      50.018  34.318  52.051  0.00  0.00     0.000 A 
ATOM     27  C   UNL d   1      49.986  34.254  52.893  0.00  0.00     0.000 A 
ATOM     28  C   UNL d   1      50.681  34.170  53.311  0.00  0.00     0.002 A 
ENDBRANCH   2  23
TORSDOF 7
ENDMDL
