MODEL 1
REMARK VINA RESULT:      40.6      0.000      0.000
REMARK  2 active torsions:
REMARK  status: ('A' for Active; 'I' for Inactive)
REMARK    1  A    between atoms: C_3  and  C_1 
REMARK       I    between atoms: N_7  and  C_3 
REMARK    2  A    between atoms: C_11  and  N_7 
ROOT
ATOM      1  C   UNL d   1     -51.410  25.348  33.429  0.00  0.00     0.121 A 
ATOM      2  C   UNL d   1     -50.990  24.641  33.359  0.00  0.00     0.305 A 
ATOM      3  C   UNL d   1     -52.242  25.339  33.480  0.00  0.00     0.012 A 
ATOM      4  O   UNL d   1     -51.408  23.935  33.341  0.00  0.00    -0.273 OA
ATOM      5  C   UNL d   1     -52.630  24.620  33.460  0.00  0.00     0.023 A 
ATOM      6  C   UNL d   1     -52.210  23.914  33.390  0.00  0.00     0.103 A 
ATOM      7  O   UNL d   1     -50.179  24.638  33.309  0.00  0.00    -0.259 OA
ATOM      8  C   UNL d   1     -53.466  24.609  33.511  0.00  0.00     0.002 A 
ATOM      9  C   UNL d   1     -52.632  23.205  33.372  0.00  0.00     0.025 A 
ATOM     10  C   UNL d   1     -53.845  23.896  33.490  0.00  0.00     0.000 A 
ATOM     11  C   UNL d   1     -53.425  23.189  33.420  0.00  0.00     0.002 A 
ENDROOT
BRANCH   1  12
ATOM     12  C   UNL d   1     -51.009  26.074  33.449  0.00  0.00     0.284 C 
ATOM     13  N   UNL d   1     -51.408  26.784  33.309  0.00  0.00    -0.208 NA
ATOM     14  O   UNL d   1     -50.202  26.133  33.607  0.00  0.00    -0.265 OA
BRANCH  13  15
ATOM     15  C   UNL d   1     -51.008  27.496  33.330  0.00  0.00     0.085 A 
ATOM     16  C   UNL d   1     -51.416  28.205  33.366  0.00  0.00     0.019 A 
ATOM     17  C   UNL d   1     -51.016  28.926  33.388  0.00  0.00     0.002 A 
ATOM     18  C   UNL d   1     -50.186  28.923  33.373  0.00  0.00     0.000 A 
ATOM     19  C   UNL d   1     -49.752  28.221  33.337  0.00  0.00     0.002 A 
ATOM     20  C   UNL d   1     -49.785  29.619  33.394  0.00  0.00     0.000 C 
ATOM     21  C   UNL d   1     -50.168  27.504  33.315  0.00  0.00     0.019 A 
ENDBRANCH  13  15
ENDBRANCH   1  12
TORSDOF 2
ENDMDL
