MODEL 1
REMARK VINA RESULT:      30.1      0.000      0.000
REMARK  4 active torsions:
REMARK  status: ('A' for Active; 'I' for Inactive)
REMARK    1  A    between atoms: N_2  and  S_1 
REMARK    2  A    between atoms: C_6  and  S_1 
REMARK    3  A    between atoms: O_17  and  C_12 
REMARK    4  A    between atoms: C_19  and  O_17 
ROOT
ATOM      1  S   UNL d   1      14.077  12.732  -2.072  0.00  0.00     0.271 S 
ATOM      2  O   UNL d   1      14.264  11.939  -1.907  0.00  0.00    -0.200 OA
ATOM      3  O   UNL d   1      13.892  13.520  -2.236  0.00  0.00    -0.200 OA
ENDROOT
BRANCH   1   4
ATOM      4  N   UNL d   1      14.368  12.956  -1.326  0.00  0.00    -0.232 N 
ATOM      5  C   UNL d   1      14.303  12.518  -0.628  0.00  0.00     0.075 A 
ATOM      6  C   UNL d   1      14.665  12.941  -0.021  0.00  0.00     0.020 A 
ATOM      7  C   UNL d   1      13.935  11.780  -0.555  0.00  0.00     0.020 C 
ATOM      8  C   UNL d   1      14.957  13.647  -0.347  0.00  0.00     0.018 A 
ATOM      9  C   UNL d   1      14.771  13.651  -1.150  0.00  0.00     0.075 A 
ATOM     10  C   UNL d   1      15.364  14.281  -0.015  0.00  0.00     0.002 A 
ATOM     11  C   UNL d   1      14.995  14.293  -1.624  0.00  0.00     0.018 A 
ATOM     12  C   UNL d   1      15.401  14.924  -1.292  0.00  0.00     0.002 A 
ATOM     13  C   UNL d   1      15.588  14.923  -0.489  0.00  0.00     0.000 A 
ENDBRANCH   1   4
BRANCH   1  14
ATOM     14  C   UNL d   1      13.788  12.510  -2.813  0.00  0.00     0.104 A 
ATOM     15  C   UNL d   1      13.057  12.799  -3.074  0.00  0.00     0.015 A 
ATOM     16  C   UNL d   1      12.770  12.578  -3.812  0.00  0.00     0.025 A 
ATOM     17  C   UNL d   1      13.210  12.064  -4.297  0.00  0.00     0.100 A 
ATOM     18  C   UNL d   1      13.939  11.779  -4.028  0.00  0.00     0.025 A 
ATOM     19  C   UNL d   1      14.227  12.001  -3.290  0.00  0.00     0.015 A 
BRANCH  17  20
ATOM     20  O   UNL d   1      12.922  11.843  -5.035  0.00  0.00    -0.305 OA
BRANCH  20  21
ATOM     21  C   UNL d   1      13.088  12.301  -5.695  0.00  0.00     0.123 C 
ATOM     22  C   UNL d   1      13.465  11.966  -6.345  0.00  0.00     0.029 C 
ENDBRANCH  20  21
ENDBRANCH  17  20
ENDBRANCH   1  14
TORSDOF 4
ENDMDL
