MODEL 1
REMARK VINA RESULT:      -9.2      0.000      0.000
REMARK  3 active torsions:
REMARK  status: ('A' for Active; 'I' for Inactive)
REMARK       I    between atoms: N_3  and  C_1 
REMARK       I    between atoms: N_5  and  C_1 
REMARK    1  A    between atoms: C_2  and  O_6 
REMARK       I    between atoms: N_4  and  C_2 
REMARK    2  A    between atoms: C_10  and  N_5 
REMARK    3  A    between atoms: O_6  and  C_11 
ROOT
ATOM      1  C   UNL d   1      50.108  34.319  52.422  0.00  0.00     0.086 A 
ATOM      2  C   UNL d   1      51.547  33.776  53.017  0.00  0.00     0.105 A 
ATOM      3  C   UNL d   1      50.129  33.851  53.119  0.00  0.00     0.021 A 
ATOM      4  C   UNL d   1      50.828  34.508  52.031  0.00  0.00     0.021 A 
ATOM      5  C   UNL d   1      50.839  33.583  53.413  0.00  0.00     0.026 A 
ATOM      6  C   UNL d   1      51.537  34.240  52.324  0.00  0.00     0.026 A 
ENDROOT
BRANCH   1   7
ATOM      7  N   UNL d   1      49.399  34.587  52.128  0.00  0.00    -0.192 NA
ATOM      8  C   UNL d   1      48.982  35.183  52.504  0.00  0.00     0.354 C 
ATOM      9  N   UNL d   1      48.262  35.455  52.206  0.00  0.00    -0.252 N 
ATOM     10  O   UNL d   1      49.304  35.515  53.205  0.00  0.00    -0.244 OA
ATOM     11  C   UNL d   1      47.853  36.063  52.605  0.00  0.00     0.111 A 
ATOM     12  C   UNL d   1      47.939  35.130  51.514  0.00  0.00     0.111 A 
ATOM     13  C   UNL d   1      47.123  36.339  52.303  0.00  0.00     0.142 A 
ATOM     14  O   UNL d   1      46.811  36.002  51.606  0.00  0.00    -0.300 OA
ATOM     15  C   UNL d   1      47.219  35.402  51.216  0.00  0.00     0.142 A 
ENDBRANCH   1   7
BRANCH   2  16
ATOM     16  O   UNL d   1      52.267  33.504  53.315  0.00  0.00    -0.259 OA
BRANCH  16  17
ATOM     17  C   UNL d   1      52.714  33.982  53.814  0.00  0.00     0.377 C 
ATOM     18  N   UNL d   1      53.352  33.664  54.229  0.00  0.00    -0.252 N 
ATOM     19  C   UNL d   1      53.799  34.143  54.728  0.00  0.00     0.085 A 
ATOM     20  C   UNL d   1      53.543  32.869  54.146  0.00  0.00     0.085 A 
ATOM     21  C   UNL d   1      54.438  33.829  55.145  0.00  0.00     0.019 A 
ATOM     22  C   UNL d   1      54.629  33.033  55.062  0.00  0.00     0.003 A 
ATOM     23  C   UNL d   1      54.184  32.549  54.563  0.00  0.00     0.019 A 
ATOM     24  O   UNL d   1      52.527  34.777  53.900  0.00  0.00    -0.237 OA
ENDBRANCH  16  17
ENDBRANCH   2  16
TORSDOF 3
ENDMDL
MODEL 2
REMARK VINA RESULT:      -8.9      0.822      5.672
REMARK  3 active torsions:
REMARK  status: ('A' for Active; 'I' for Inactive)
REMARK       I    between atoms: N_3  and  C_1 
REMARK       I    between atoms: N_5  and  C_1 
REMARK    1  A    between atoms: C_2  and  O_6 
REMARK       I    between atoms: N_4  and  C_2 
REMARK    2  A    between atoms: C_10  and  N_5 
REMARK    3  A    between atoms: O_6  and  C_11 
ROOT
ATOM      1  C   UNL d   1      51.732  33.734  52.962  0.00  0.00     0.086 A 
ATOM      2  C   UNL d   1      50.246  34.253  52.466  0.00  0.00     0.105 A 
ATOM      3  C   UNL d   1      51.662  34.279  52.325  0.00  0.00     0.021 A 
ATOM      4  C   UNL d   1      51.036  33.457  53.343  0.00  0.00     0.021 A 
ATOM      5  C   UNL d   1      50.930  34.534  52.081  0.00  0.00     0.026 A 
ATOM      6  C   UNL d   1      50.304  33.713  53.098  0.00  0.00     0.026 A 
ENDROOT
BRANCH   1   7
ATOM      7  N   UNL d   1      52.463  33.479  53.206  0.00  0.00    -0.192 NA
ATOM      8  C   UNL d   1      52.841  33.823  53.846  0.00  0.00     0.354 C 
ATOM      9  N   UNL d   1      53.584  33.563  54.094  0.00  0.00    -0.252 N 
ATOM     10  O   UNL d   1      52.454  34.450  54.249  0.00  0.00    -0.244 OA
ATOM     11  C   UNL d   1      53.951  33.928  54.749  0.00  0.00     0.111 A 
ATOM     12  C   UNL d   1      53.971  32.944  53.700  0.00  0.00     0.111 A 
ATOM     13  C   UNL d   1      54.705  33.665  55.001  0.00  0.00     0.142 A 
ATOM     14  O   UNL d   1      55.081  33.041  54.595  0.00  0.00    -0.300 OA
ATOM     15  C   UNL d   1      54.714  32.685  53.949  0.00  0.00     0.142 A 
ENDBRANCH   1   7
BRANCH   2  16
ATOM     16  O   UNL d   1      49.503  34.512  52.218  0.00  0.00    -0.259 OA
BRANCH  16  17
ATOM     17  C   UNL d   1      49.110  35.101  52.638  0.00  0.00     0.377 C 
ATOM     18  N   UNL d   1      48.398  35.406  52.354  0.00  0.00    -0.252 N 
ATOM     19  C   UNL d   1      48.005  35.995  52.775  0.00  0.00     0.085 A 
ATOM     20  C   UNL d   1      48.080  35.124  51.650  0.00  0.00     0.085 A 
ATOM     21  C   UNL d   1      47.293  36.303  52.494  0.00  0.00     0.019 A 
ATOM     22  C   UNL d   1      46.974  36.021  51.790  0.00  0.00     0.003 A 
ATOM     23  C   UNL d   1      47.365  35.431  51.364  0.00  0.00     0.019 A 
ATOM     24  O   UNL d   1      49.424  35.385  53.341  0.00  0.00    -0.237 OA
ENDBRANCH  16  17
ENDBRANCH   2  16
TORSDOF 3
ENDMDL
MODEL 3
REMARK VINA RESULT:      -6.3     10.327     11.279
REMARK  3 active torsions:
REMARK  status: ('A' for Active; 'I' for Inactive)
REMARK       I    between atoms: N_3  and  C_1 
REMARK       I    between atoms: N_5  and  C_1 
REMARK    1  A    between atoms: C_2  and  O_6 
REMARK       I    between atoms: N_4  and  C_2 
REMARK    2  A    between atoms: C_10  and  N_5 
REMARK    3  A    between atoms: O_6  and  C_11 
ROOT
ATOM      1  C   UNL d   1      45.033  26.590  56.644  0.00  0.00     0.086 A 
ATOM      2  C   UNL d   1      45.103  27.967  57.550  0.00  0.00     0.105 A 
ATOM      3  C   UNL d   1      45.680  26.725  57.163  0.00  0.00     0.021 A 
ATOM      4  C   UNL d   1      44.422  27.165  56.591  0.00  0.00     0.021 A 
ATOM      5  C   UNL d   1      45.715  27.403  57.609  0.00  0.00     0.026 A 
ATOM      6  C   UNL d   1      44.457  27.843  57.038  0.00  0.00     0.026 A 
ENDROOT
BRANCH   1   7
ATOM      7  N   UNL d   1      44.998  25.913  56.198  0.00  0.00    -0.192 NA
ATOM      8  C   UNL d   1      44.697  25.216  56.505  0.00  0.00     0.354 C 
ATOM      9  N   UNL d   1      44.661  24.528  56.052  0.00  0.00    -0.252 N 
ATOM     10  O   UNL d   1      44.421  25.217  57.299  0.00  0.00    -0.244 OA
ATOM     11  C   UNL d   1      44.350  23.829  56.385  0.00  0.00     0.111 A 
ATOM     12  C   UNL d   1      44.932  24.521  55.267  0.00  0.00     0.111 A 
ATOM     13  C   UNL d   1      44.314  23.131  55.926  0.00  0.00     0.142 A 
ATOM     14  O   UNL d   1      44.591  23.140  55.138  0.00  0.00    -0.300 OA
ATOM     15  C   UNL d   1      44.897  23.833  54.814  0.00  0.00     0.142 A 
ENDBRANCH   1   7
BRANCH   2  16
ATOM     16  O   UNL d   1      45.138  28.656  58.003  0.00  0.00    -0.259 OA
BRANCH  16  17
ATOM     17  C   UNL d   1      44.841  28.660  58.771  0.00  0.00     0.377 C 
ATOM     18  N   UNL d   1      44.842  29.358  59.211  0.00  0.00    -0.252 N 
ATOM     19  C   UNL d   1      44.544  29.362  59.978  0.00  0.00     0.085 A 
ATOM     20  C   UNL d   1      45.139  30.052  58.882  0.00  0.00     0.085 A 
ATOM     21  C   UNL d   1      44.543  30.058  60.421  0.00  0.00     0.019 A 
ATOM     22  C   UNL d   1      44.840  30.752  60.094  0.00  0.00     0.003 A 
ATOM     23  C   UNL d   1      45.139  30.753  59.324  0.00  0.00     0.019 A 
ATOM     24  O   UNL d   1      44.544  27.970  59.102  0.00  0.00    -0.237 OA
ENDBRANCH  16  17
ENDBRANCH   2  16
TORSDOF 3
ENDMDL
