MODEL 1
REMARK VINA RESULT:      34.3      0.000      0.000
REMARK  9 active torsions:
REMARK  status: ('A' for Active; 'I' for Inactive)
REMARK    1  A    between atoms: S_3  and  C_1 
REMARK    2  A    between atoms: C_7  and  S_3 
REMARK    3  A    between atoms: N_8  and  C_4 
REMARK    4  A    between atoms: C_19  and  N_8 
REMARK    5  A    between atoms: C_20  and  N_8 
REMARK    6  A    between atoms: O_17  and  C_22 
REMARK    7  A    between atoms: O_18  and  C_21 
REMARK    8  A    between atoms: C_21  and  C_19 
REMARK    9  A    between atoms: C_22  and  C_20 
ROOT
ATOM      1  C   UNL d   1      14.250  12.922  -1.351  0.00  0.00     0.187 A 
ATOM      2  N   UNL d   1      14.579  13.653  -1.217  0.00  0.00    -0.209 NA
ATOM      3  C   UNL d   1      14.746  13.702  -0.406  0.00  0.00     0.181 A 
ATOM      4  S   UNL d   1      14.515  12.997  -0.058  0.00  0.00    -0.036 SA
ATOM      5  C   UNL d   1      14.209  12.519  -0.645  0.00  0.00     0.118 A 
ATOM      6 CL   UNL d   1      13.874  11.780  -0.794  0.00  0.00    -0.073 Cl
ENDROOT
BRANCH   1   7
ATOM      7  S   UNL d   1      13.999  12.640  -2.082  0.00  0.00     0.228 S 
ATOM      8  O   UNL d   1      13.825  13.162  -2.686  0.00  0.00    -0.216 OA
ATOM      9  O   UNL d   1      13.925  11.828  -2.205  0.00  0.00    -0.216 OA
BRANCH   7  10
ATOM     10  C   UNL d   1      13.741  12.476  -2.855  0.00  0.00     0.089 A 
ATOM     11  C   UNL d   1      14.174  11.945  -3.331  0.00  0.00     0.011 A 
ATOM     12  C   UNL d   1      13.914  11.784  -4.101  0.00  0.00     0.001 A 
ATOM     13  C   UNL d   1      13.231  12.146  -4.395  0.00  0.00     0.000 A 
ATOM     14  C   UNL d   1      12.797  12.679  -3.916  0.00  0.00     0.001 A 
ATOM     15  C   UNL d   1      12.972  11.988  -5.156  0.00  0.00     0.000 C 
ATOM     16  C   UNL d   1      13.057  12.838  -3.150  0.00  0.00     0.011 A 
ENDBRANCH   7  10
ENDBRANCH   1   7
BRANCH   3  17
ATOM     17  N   UNL d   1      15.078  14.433  -0.258  0.00  0.00    -0.280 N 
BRANCH  17  18
ATOM     18  C   UNL d   1      15.884  14.551  -0.373  0.00  0.00     0.108 C 
BRANCH  18  19
ATOM     19  C   UNL d   1      16.430  14.047  -0.014  0.00  0.00     0.135 C 
BRANCH  19  20
ATOM     20  O   UNL d   1      17.235  14.134  -0.168  0.00  0.00    -0.325 OA
ATOM     21  C   UNL d   1      17.530  14.858  -0.432  0.00  0.00     0.182 C 
ENDBRANCH  19  20
ENDBRANCH  18  19
ENDBRANCH  17  18
BRANCH  17  22
ATOM     22  C   UNL d   1      14.997  15.217  -0.020  0.00  0.00     0.108 C 
BRANCH  22  23
ATOM     23  C   UNL d   1      15.386  15.810  -0.423  0.00  0.00     0.135 C 
BRANCH  23  24
ATOM     24  O   UNL d   1      15.021  16.183  -1.061  0.00  0.00    -0.325 OA
ATOM     25  C   UNL d   1      14.954  16.999  -1.080  0.00  0.00     0.182 C 
ENDBRANCH  23  24
ENDBRANCH  22  23
ENDBRANCH  17  22
ENDBRANCH   3  17
TORSDOF 9
ENDMDL
