MODEL 1
REMARK VINA RESULT:      73.2      0.000      0.000
REMARK  6 active torsions:
REMARK  status: ('A' for Active; 'I' for Inactive)
REMARK    1  A    between atoms: C_5  and  C_1 
REMARK    2  A    between atoms: N_8  and  C_5 
REMARK    3  A    between atoms: C_9  and  C_5 
REMARK    4  A    between atoms: C_19  and  C_7 
REMARK    5  A    between atoms: C_10  and  N_8 
REMARK    6  A    between atoms: O_20  and  C_16 
ROOT
ATOM      1  C   UNL d   1     -51.873  25.951  34.325  0.00  0.00     0.109 C 
ENDROOT
BRANCH   1   2
ATOM      2  C   UNL d   1     -51.953  25.201  33.988  0.00  0.00     0.160 A 
ATOM      3  C   UNL d   1     -51.289  24.729  33.819  0.00  0.00     0.258 A 
ATOM      4  C   UNL d   1     -51.402  23.969  33.475  0.00  0.00     0.238 A 
ATOM      5  O   UNL d   1     -50.538  25.002  33.984  0.00  0.00    -0.281 OA
ATOM      6  O   UNL d   1     -50.738  23.497  33.306  0.00  0.00    -0.283 OA
ATOM      7  C   UNL d   1     -52.153  23.696  33.309  0.00  0.00     0.073 A 
ATOM      8  C   UNL d   1     -52.817  24.168  33.479  0.00  0.00     0.146 A 
ATOM      9  O   UNL d   1     -52.721  24.907  33.812  0.00  0.00    -0.299 OA
BRANCH   8  10
ATOM     10  C   UNL d   1     -53.581  23.880  33.306  0.00  0.00     0.259 C 
ATOM     11  O   UNL d   1     -53.906  23.226  33.724  0.00  0.00    -0.281 OA
ENDBRANCH   8  10
ENDBRANCH   1   2
BRANCH   1  12
ATOM     12  N   UNL d   1     -52.395  26.219  34.910  0.00  0.00    -0.225 NA
BRANCH  12  13
ATOM     13  C   UNL d   1     -52.204  26.135  35.704  0.00  0.00     0.163 A 
ATOM     14  N   UNL d   1     -51.674  26.655  36.063  0.00  0.00    -0.225 NA
ATOM     15  C   UNL d   1     -51.486  26.570  36.852  0.00  0.00     0.101 A 
ATOM     16  C   UNL d   1     -51.826  25.964  37.292  0.00  0.00     0.021 A 
ATOM     17  C   UNL d   1     -52.359  25.433  36.953  0.00  0.00     0.005 A 
ATOM     18  C   UNL d   1     -52.549  25.518  36.158  0.00  0.00     0.039 A 
ENDBRANCH  12  13
ENDBRANCH   1  12
BRANCH   1  19
ATOM     19  C   UNL d   1     -51.251  26.446  34.067  0.00  0.00     0.020 A 
ATOM     20  C   UNL d   1     -51.410  27.085  33.571  0.00  0.00     0.004 A 
ATOM     21  C   UNL d   1     -50.793  27.567  33.320  0.00  0.00     0.024 A 
ATOM     22  C   UNL d   1     -50.021  27.413  33.563  0.00  0.00     0.094 A 
ATOM     23  C   UNL d   1     -49.857  26.775  34.059  0.00  0.00     0.024 A 
ATOM     24  C   UNL d   1     -50.479  26.292  34.310  0.00  0.00     0.004 A 
BRANCH  22  25
ATOM     25  O   UNL d   1     -49.395  27.907  33.306  0.00  0.00    -0.328 OA
ATOM     26  C   UNL d   1     -49.473  28.753  33.310  0.00  0.00     0.181 C 
ENDBRANCH  22  25
ENDBRANCH   1  19
TORSDOF 6
ENDMDL
