MODEL 1
REMARK VINA RESULT:      -1.3      0.000      0.000
REMARK  4 active torsions:
REMARK  status: ('A' for Active; 'I' for Inactive)
REMARK    1  A    between atoms: C_14  and  N_1 
REMARK    2  A    between atoms: S_12  and  C_2 
REMARK       I    between atoms: N_7  and  C_10 
REMARK    3  A    between atoms: C_10  and  C_16 
REMARK    4  A    between atoms: C_16  and  S_12 
ROOT
ATOM      1  N   UNL d   1      58.678  -9.525  29.830  0.00  0.00    -0.254 N 
ATOM      2  C   UNL d   1      58.523  -9.672  30.627  0.00  0.00     0.183 A 
ATOM      3  N   UNL d   1      57.746  -9.777  30.880  0.00  0.00    -0.201 NA
ATOM      4  C   UNL d   1      58.053  -9.482  29.282  0.00  0.00     0.271 A 
ATOM      5  C   UNL d   1      57.275  -9.589  29.543  0.00  0.00     0.115 A 
ATOM      6  C   UNL d   1      57.123  -9.736  30.344  0.00  0.00     0.192 A 
ATOM      7  N   UNL d   1      55.957  -9.721  29.700  0.00  0.00    -0.145 NA
ATOM      8  N   UNL d   1      56.302  -9.818  30.436  0.00  0.00    -0.128 NA
ATOM      9  C   UNL d   1      56.545  -9.580  29.143  0.00  0.00     0.130 A 
ATOM     10  O   UNL d   1      58.214  -9.334  28.477  0.00  0.00    -0.266 OA
ENDROOT
BRANCH   2  11
ATOM     11  S   UNL d   1      59.140  -9.713  31.162  0.00  0.00    -0.044 SA
BRANCH  11  12
ATOM     12  C   UNL d   1      58.984  -9.816  31.976  0.00  0.00     0.099 C 
BRANCH  12  13
ATOM     13  C   UNL d   1      59.521  -9.539  32.538  0.00  0.00     0.271 C 
ATOM     14  N   UNL d   1      59.303  -9.491  33.330  0.00  0.00    -0.273 N 
ATOM     15  C   UNL d   1      59.835  -9.217  33.889  0.00  0.00     0.067 A 
ATOM     16  C   UNL d   1      58.544  -9.722  33.556  0.00  0.00     0.083 A 
ATOM     17  C   UNL d   1      59.614  -9.169  34.684  0.00  0.00     0.016 A 
ATOM     18  C   UNL d   1      60.594  -8.987  33.660  0.00  0.00     0.018 A 
ATOM     19  C   UNL d   1      60.154  -8.893  35.240  0.00  0.00     0.001 A 
ATOM     20  C   UNL d   1      58.866  -9.395  34.918  0.00  0.00     0.003 A 
ATOM     21  C   UNL d   1      60.913  -8.662  35.015  0.00  0.00     0.000 A 
ATOM     22  C   UNL d   1      61.131  -8.711  34.221  0.00  0.00     0.002 A 
ATOM     23  C   UNL d   1      58.320  -9.675  34.351  0.00  0.00     0.019 A 
ATOM     24  O   UNL d   1      60.277  -9.312  32.301  0.00  0.00    -0.266 OA
ENDBRANCH  12  13
ENDBRANCH  11  12
ENDBRANCH   2  11
BRANCH   1  25
ATOM     25  C   UNL d   1      59.461  -9.418  29.569  0.00  0.00     0.069 A 
ATOM     26  C   UNL d   1      60.078  -9.790  29.971  0.00  0.00     0.018 A 
ATOM     27  C   UNL d   1      60.858  -9.685  29.713  0.00  0.00     0.002 A 
ATOM     28  C   UNL d   1      61.014  -9.208  29.054  0.00  0.00     0.000 A 
ATOM     29  C   UNL d   1      60.390  -8.840  28.658  0.00  0.00     0.002 A 
ATOM     30  C   UNL d   1      59.613  -8.947  28.918  0.00  0.00     0.018 A 
ENDBRANCH   1  25
TORSDOF 4
ENDMDL
MODEL 2
REMARK VINA RESULT:       1.5      1.041      2.716
REMARK  4 active torsions:
REMARK  status: ('A' for Active; 'I' for Inactive)
REMARK    1  A    between atoms: C_14  and  N_1 
REMARK    2  A    between atoms: S_12  and  C_2 
REMARK       I    between atoms: N_7  and  C_10 
REMARK    3  A    between atoms: C_10  and  C_16 
REMARK    4  A    between atoms: C_16  and  S_12 
ROOT
ATOM      1  N   UNL d   1      58.597  -9.637  30.585  0.00  0.00    -0.254 N 
ATOM      2  C   UNL d   1      59.215  -9.695  31.130  0.00  0.00     0.183 A 
ATOM      3  N   UNL d   1      59.995  -9.636  30.872  0.00  0.00    -0.201 NA
ATOM      4  C   UNL d   1      58.761  -9.519  29.778  0.00  0.00     0.271 A 
ATOM      5  C   UNL d   1      59.547  -9.461  29.526  0.00  0.00     0.115 A 
ATOM      6  C   UNL d   1      60.164  -9.519  30.076  0.00  0.00     0.192 A 
ATOM      7  N   UNL d   1      60.703  -9.335  28.872  0.00  0.00    -0.145 NA
ATOM      8  N   UNL d   1      60.880  -9.440  29.664  0.00  0.00    -0.128 NA
ATOM      9  C   UNL d   1      59.887  -9.346  28.774  0.00  0.00     0.130 A 
ATOM     10  O   UNL d   1      58.135  -9.461  29.229  0.00  0.00    -0.266 OA
ENDROOT
BRANCH   2  11
ATOM     11  S   UNL d   1      59.049  -9.810  31.922  0.00  0.00    -0.044 SA
BRANCH  11  12
ATOM     12  C   UNL d   1      59.632  -9.655  32.500  0.00  0.00     0.099 C 
BRANCH  12  13
ATOM     13  C   UNL d   1      59.413  -9.525  33.284  0.00  0.00     0.271 C 
ATOM     14  N   UNL d   1      59.910  -9.107  33.790  0.00  0.00    -0.273 N 
ATOM     15  C   UNL d   1      59.693  -8.978  34.569  0.00  0.00     0.067 A 
ATOM     16  C   UNL d   1      60.629  -8.820  33.504  0.00  0.00     0.083 A 
ATOM     17  C   UNL d   1      60.194  -8.558  35.074  0.00  0.00     0.016 A 
ATOM     18  C   UNL d   1      58.974  -9.267  34.852  0.00  0.00     0.018 A 
ATOM     19  C   UNL d   1      59.970  -8.432  35.856  0.00  0.00     0.001 A 
ATOM     20  C   UNL d   1      60.908  -8.270  34.802  0.00  0.00     0.003 A 
ATOM     21  C   UNL d   1      59.252  -8.719  36.142  0.00  0.00     0.000 A 
ATOM     22  C   UNL d   1      58.754  -9.137  35.636  0.00  0.00     0.002 A 
ATOM     23  C   UNL d   1      61.132  -8.399  34.008  0.00  0.00     0.019 A 
ATOM     24  O   UNL d   1      58.692  -9.817  33.559  0.00  0.00    -0.266 OA
ENDBRANCH  12  13
ENDBRANCH  11  12
ENDBRANCH   2  11
BRANCH   1  25
ATOM     25  C   UNL d   1      57.808  -9.696  30.840  0.00  0.00     0.069 A 
ATOM     26  C   UNL d   1      57.200  -9.712  30.282  0.00  0.00     0.018 A 
ATOM     27  C   UNL d   1      56.414  -9.771  30.533  0.00  0.00     0.002 A 
ATOM     28  C   UNL d   1      56.241  -9.813  31.342  0.00  0.00     0.000 A 
ATOM     29  C   UNL d   1      56.855  -9.796  31.893  0.00  0.00     0.002 A 
ATOM     30  C   UNL d   1      57.638  -9.737  31.639  0.00  0.00     0.018 A 
ENDBRANCH   1  25
TORSDOF 4
ENDMDL
