MODEL 1
REMARK VINA RESULT:      85.9      0.000      0.000
REMARK  6 active torsions:
REMARK  status: ('A' for Active; 'I' for Inactive)
REMARK       I    between atoms: C_2  and  N_1 
REMARK    1  A    between atoms: C_4  and  N_1 
REMARK    2  A    between atoms: C_11  and  N_1 
REMARK    3  A    between atoms: C_3  and  C_2 
REMARK    4  A    between atoms: C_5  and  C_4 
REMARK       I    between atoms: N_10  and  C_5 
REMARK    5  A    between atoms: C_21  and  N_10 
REMARK    6  A    between atoms: C_13  and  C_11 
ROOT
ATOM      1  N   UNL d   1     -55.248-101.242 -38.910  0.00  0.00    -0.281 N 
ATOM      2  C   UNL d   1     -55.295-101.830 -38.332  0.00  0.00     0.263 C 
ATOM      3  O   UNL d   1     -55.315-102.614 -38.539  0.00  0.00    -0.267 OA
ENDROOT
BRANCH   1   4
ATOM      4  C   UNL d   1     -55.191-101.390 -40.315  0.00  0.00     0.181 A 
ATOM      5  C   UNL d   1     -55.099-101.666 -40.957  0.00  0.00     0.007 A 
ATOM      6  C   UNL d   1     -54.853-102.436 -41.011  0.00  0.00    -0.002 A 
ATOM      7  C   UNL d   1     -54.717-102.875 -40.337  0.00  0.00    -0.001 A 
ATOM      8  C   UNL d   1     -54.833-102.529 -39.600  0.00  0.00    -0.002 A 
ATOM      9  C   UNL d   1     -55.079-101.759 -39.546  0.00  0.00     0.007 A 
BRANCH   4  10
ATOM     10  C   UNL d   1     -55.193-101.353 -41.738  0.00  0.00     0.282 C 
ATOM     11  N   UNL d   1     -54.714-101.649 -42.341  0.00  0.00    -0.210 NA
ATOM     12  O   UNL d   1     -55.866-100.912 -41.911  0.00  0.00    -0.268 OA
BRANCH  11  13
ATOM     13  C   UNL d   1     -54.910-101.501 -43.129  0.00  0.00     0.084 A 
ATOM     14  C   UNL d   1     -54.972-102.065 -43.719  0.00  0.00     0.019 A 
ATOM     15  C   UNL d   1     -55.174-101.687 -44.405  0.00  0.00     0.002 A 
ATOM     16  C   UNL d   1     -55.239-100.882 -44.244  0.00  0.00     0.002 A 
ATOM     17  C   UNL d   1     -55.075-100.778 -43.460  0.00  0.00     0.019 A 
ENDBRANCH  11  13
ENDBRANCH   4  10
ENDBRANCH   1   4
BRANCH   1  18
ATOM     18  C   UNL d   1     -55.230-100.426 -38.621  0.00  0.00     0.104 C 
BRANCH  18  19
ATOM     19  C   UNL d   1     -55.023-100.268 -37.785  0.00  0.00     0.117 A 
ATOM     20  O   UNL d   1     -54.905-100.795 -37.240  0.00  0.00    -0.304 OA
ATOM     21  C   UNL d   1     -54.712-100.383 -36.491  0.00  0.00     0.123 A 
ATOM     22  C   UNL d   1     -54.714 -99.603 -36.585  0.00  0.00     0.029 A 
ATOM     23  C   UNL d   1     -54.915 -99.481 -37.427  0.00  0.00     0.028 A 
ENDBRANCH  18  19
ENDBRANCH   1  18
BRANCH   2  24
ATOM     24  C   UNL d   1     -55.348-102.136 -37.401  0.00  0.00     0.076 A 
ATOM     25  C   UNL d   1     -56.237-102.164 -37.490  0.00  0.00     0.107 A 
ATOM     26  N   UNL d   1     -56.739-102.410 -36.832  0.00  0.00    -0.206 NA
ATOM     27  C   UNL d   1     -56.381-102.626 -36.098  0.00  0.00     0.279 A 
ATOM     28  C   UNL d   1     -55.514-102.607 -35.985  0.00  0.00     0.063 A 
ATOM     29  O   UNL d   1     -56.896-102.873 -35.439  0.00  0.00    -0.265 OA
ATOM     30  C   UNL d   1     -55.004-102.360 -36.643  0.00  0.00     0.011 A 
ENDBRANCH   2  24
TORSDOF 6
ENDMDL
