MODEL 1
REMARK VINA RESULT:      41.3      0.000      0.000
REMARK  4 active torsions:
REMARK  status: ('A' for Active; 'I' for Inactive)
REMARK    1  A    between atoms: C_7  and  C_1 
REMARK    2  A    between atoms: C_6  and  N_2 
REMARK    3  A    between atoms: C_8  and  C_6 
REMARK    4  A    between atoms: C_9  and  C_7 
ROOT
ATOM      1  C   UNL d   1      45.985 -17.142  43.869  0.00  0.00     0.148 A 
ATOM      2  N   UNL d   1      46.222 -17.606  43.273  0.00  0.00    -0.289 N 
ATOM      3  N   UNL d   1      45.932 -17.528  44.556  0.00  0.00    -0.227 NA
ATOM      4  C   UNL d   1      46.342 -18.393  43.602  0.00  0.00     0.083 A 
ATOM      5  C   UNL d   1      46.166 -18.346  44.379  0.00  0.00     0.099 A 
ATOM      6  C   UNL d   1      46.577 -19.110  43.301  0.00  0.00     0.019 A 
ATOM      7  C   UNL d   1      46.213 -19.012  44.908  0.00  0.00     0.021 A 
ATOM      8  C   UNL d   1      46.642 -19.782  43.754  0.00  0.00     0.002 A 
ATOM      9  C   UNL d   1      46.466 -19.734  44.531  0.00  0.00     0.002 A 
ENDROOT
BRANCH   2  10
ATOM     10  C   UNL d   1      46.294 -17.273  42.557  0.00  0.00     0.082 C 
BRANCH  10  11
ATOM     11  C   UNL d   1      46.152 -17.678  41.879  0.00  0.00     0.018 A 
ATOM     12  C   UNL d   1      46.644 -18.312  41.687  0.00  0.00     0.002 A 
ATOM     13  C   UNL d   1      46.530 -18.761  40.988  0.00  0.00     0.000 A 
ATOM     14  C   UNL d   1      45.891 -18.535  40.493  0.00  0.00     0.000 A 
ATOM     15  C   UNL d   1      45.399 -17.901  40.685  0.00  0.00     0.000 A 
ATOM     16  C   UNL d   1      45.774 -18.984  39.790  0.00  0.00     0.000 C 
ATOM     17  C   UNL d   1      45.546 -17.494  41.372  0.00  0.00     0.002 A 
ENDBRANCH  10  11
ENDBRANCH   2  10
BRANCH   1  18
ATOM     18  C   UNL d   1      45.931 -16.496  43.393  0.00  0.00     0.037 C 
BRANCH  18  19
ATOM     19  C   UNL d   1      45.856 -15.749  43.738  0.00  0.00     0.003 A 
ATOM     20  C   UNL d   1      45.877 -15.669  44.560  0.00  0.00     0.000 A 
ATOM     21  C   UNL d   1      45.803 -14.922  44.904  0.00  0.00     0.000 A 
ATOM     22  C   UNL d   1      45.708 -14.256  44.428  0.00  0.00     0.000 A 
ATOM     23  C   UNL d   1      45.684 -14.316  43.592  0.00  0.00     0.000 A 
ATOM     24  C   UNL d   1      45.761 -15.083  43.261  0.00  0.00     0.000 A 
ENDBRANCH  18  19
ENDBRANCH   1  18
TORSDOF 4
ENDMDL
