MODEL 1
REMARK VINA RESULT:      -9.2      0.000      0.000
REMARK  5 active torsions:
REMARK  status: ('A' for Active; 'I' for Inactive)
REMARK    1  A    between atoms: C_9  and  C_1 
REMARK    2  A    between atoms: N_4  and  C_2 
REMARK    3  A    between atoms: C_8  and  C_3 
REMARK       I    between atoms: C_7  and  N_4 
REMARK    4  A    between atoms: C_10  and  C_7 
REMARK    5  A    between atoms: O_18  and  C_9 
ROOT
ATOM      1  C   UNL d   1      53.386  32.566  53.536  0.00  0.00     0.088 A 
ATOM      2  C   UNL d   1      53.029  33.214  53.187  0.00  0.00     0.119 A 
ATOM      3  C   UNL d   1      53.022  31.892  53.200  0.00  0.00     0.020 A 
ATOM      4  S   UNL d   1      52.479  33.015  52.668  0.00  0.00    -0.067 SA
ATOM      5  C   UNL d   1      52.452  32.164  52.654  0.00  0.00     0.038 A 
ENDROOT
BRANCH   2   6
ATOM      6  N   UNL d   1      53.213  34.052  53.350  0.00  0.00    -0.201 NA
ATOM      7  C   UNL d   1      52.589  34.629  53.297  0.00  0.00     0.281 C 
ATOM      8  O   UNL d   1      52.785  35.425  53.456  0.00  0.00    -0.265 OA
BRANCH   7   9
ATOM      9  C   UNL d   1      51.837  34.435  53.105  0.00  0.00     0.077 A 
ATOM     10  C   UNL d   1      51.315  34.248  53.692  0.00  0.00     0.104 A 
ATOM     11  N   UNL d   1      50.535  34.044  53.528  0.00  0.00    -0.242 NA
ATOM     12  C   UNL d   1      50.270  34.029  52.734  0.00  0.00     0.099 A 
ATOM     13  C   UNL d   1      50.813  34.224  52.129  0.00  0.00     0.021 A 
ATOM     14  C   UNL d   1      51.583  34.423  52.311  0.00  0.00     0.008 A 
ENDBRANCH   7   9
ENDBRANCH   2   6
BRANCH   1  15
ATOM     15  C   UNL d   1      53.993  32.563  54.112  0.00  0.00     0.298 C 
ATOM     16  O   UNL d   1      54.799  32.542  53.872  0.00  0.00    -0.259 OA
BRANCH  15  17
ATOM     17  O   UNL d   1      53.788  32.580  54.911  0.00  0.00    -0.296 OA
ATOM     18  C   UNL d   1      54.339  32.867  55.478  0.00  0.00     0.185 C 
ENDBRANCH  15  17
ENDBRANCH   1  15
BRANCH   3  19
ATOM     19  C   UNL d   1      53.248  31.129  53.426  0.00  0.00     0.030 A 
ATOM     20  S   UNL d   1      53.749  30.646  53.840  0.00  0.00    -0.086 SA
ATOM     21  C   UNL d   1      53.498  29.884  53.704  0.00  0.00     0.035 A 
ATOM     22  C   UNL d   1      52.856  29.888  53.217  0.00  0.00     0.007 A 
ATOM     23  C   UNL d   1      52.696  30.677  53.040  0.00  0.00     0.007 A 
ENDBRANCH   3  19
TORSDOF 5
ENDMDL
MODEL 2
REMARK VINA RESULT:      -8.1      1.485      2.670
REMARK  5 active torsions:
REMARK  status: ('A' for Active; 'I' for Inactive)
REMARK    1  A    between atoms: C_9  and  C_1 
REMARK    2  A    between atoms: N_4  and  C_2 
REMARK    3  A    between atoms: C_8  and  C_3 
REMARK       I    between atoms: C_7  and  N_4 
REMARK    4  A    between atoms: C_10  and  C_7 
REMARK    5  A    between atoms: O_18  and  C_9 
ROOT
ATOM      1  C   UNL d   1      53.005  32.457  53.206  0.00  0.00     0.088 A 
ATOM      2  C   UNL d   1      53.517  33.075  53.363  0.00  0.00     0.119 A 
ATOM      3  C   UNL d   1      53.437  31.755  53.349  0.00  0.00     0.020 A 
ATOM      4  S   UNL d   1      54.226  32.832  53.590  0.00  0.00    -0.067 SA
ATOM      5  C   UNL d   1      54.204  31.981  53.591  0.00  0.00     0.038 A 
ENDROOT
BRANCH   2   6
ATOM      6  N   UNL d   1      53.333  33.926  53.296  0.00  0.00    -0.201 NA
ATOM      7  C   UNL d   1      53.616  34.458  53.898  0.00  0.00     0.281 C 
ATOM      8  O   UNL d   1      53.429  35.267  53.816  0.00  0.00    -0.265 OA
BRANCH   7   9
ATOM      9  C   UNL d   1      54.046  34.210  54.525  0.00  0.00     0.077 A 
ATOM     10  C   UNL d   1      53.670  34.038  55.219  0.00  0.00     0.104 A 
ATOM     11  N   UNL d   1      54.083  33.781  55.882  0.00  0.00    -0.242 NA
ATOM     12  C   UNL d   1      54.914  33.693  55.843  0.00  0.00     0.099 A 
ATOM     13  C   UNL d   1      55.301  33.871  55.123  0.00  0.00     0.021 A 
ATOM     14  C   UNL d   1      54.874  34.125  54.476  0.00  0.00     0.008 A 
ENDBRANCH   7   9
ENDBRANCH   2   6
BRANCH   1  15
ATOM     15  C   UNL d   1      52.209  32.502  52.952  0.00  0.00     0.298 C 
ATOM     16  O   UNL d   1      52.029  32.488  52.130  0.00  0.00    -0.259 OA
BRANCH  15  17
ATOM     17  O   UNL d   1      51.610  32.561  53.517  0.00  0.00    -0.296 OA
ATOM     18  C   UNL d   1      50.852  32.850  53.295  0.00  0.00     0.185 C 
ENDBRANCH  15  17
ENDBRANCH   1  15
BRANCH   3  19
ATOM     19  C   UNL d   1      53.089  31.012  53.246  0.00  0.00     0.030 A 
ATOM     20  S   UNL d   1      52.508  30.557  52.913  0.00  0.00    -0.086 SA
ATOM     21  C   UNL d   1      52.641  29.794  53.165  0.00  0.00     0.035 A 
ATOM     22  C   UNL d   1      53.289  29.771  53.643  0.00  0.00     0.007 A 
ATOM     23  C   UNL d   1      53.574  30.543  53.695  0.00  0.00     0.007 A 
ENDBRANCH   3  19
TORSDOF 5
ENDMDL
MODEL 3
REMARK VINA RESULT:      -7.7      1.802      3.927
REMARK  5 active torsions:
REMARK  status: ('A' for Active; 'I' for Inactive)
REMARK    1  A    between atoms: C_9  and  C_1 
REMARK    2  A    between atoms: N_4  and  C_2 
REMARK    3  A    between atoms: C_8  and  C_3 
REMARK       I    between atoms: C_7  and  N_4 
REMARK    4  A    between atoms: C_10  and  C_7 
REMARK    5  A    between atoms: O_18  and  C_9 
ROOT
ATOM      1  C   UNL d   1      53.033  32.525  53.412  0.00  0.00     0.088 A 
ATOM      2  C   UNL d   1      53.294  31.797  53.142  0.00  0.00     0.119 A 
ATOM      3  C   UNL d   1      53.543  32.735  54.040  0.00  0.00     0.020 A 
ATOM      4  S   UNL d   1      53.915  31.532  53.538  0.00  0.00    -0.067 SA
ATOM      5  C   UNL d   1      54.099  32.119  54.126  0.00  0.00     0.038 A 
ENDROOT
BRANCH   2   6
ATOM      6  N   UNL d   1      52.945  31.336  52.488  0.00  0.00    -0.201 NA
ATOM      7  C   UNL d   1      52.806  30.503  52.599  0.00  0.00     0.281 C 
ATOM      8  O   UNL d   1      52.472  30.079  51.962  0.00  0.00    -0.265 OA
BRANCH   7   9
ATOM      9  C   UNL d   1      52.982  30.124  53.281  0.00  0.00     0.077 A 
ATOM     10  C   UNL d   1      52.402  30.015  53.834  0.00  0.00     0.104 A 
ATOM     11  N   UNL d   1      52.550  29.628  54.544  0.00  0.00    -0.242 NA
ATOM     12  C   UNL d   1      53.318  29.339  54.705  0.00  0.00     0.099 A 
ATOM     13  C   UNL d   1      53.916  29.453  54.132  0.00  0.00     0.021 A 
ATOM     14  C   UNL d   1      53.750  29.839  53.432  0.00  0.00     0.008 A 
ENDBRANCH   7   9
ENDBRANCH   2   6
BRANCH   1  15
ATOM     15  C   UNL d   1      52.389  32.976  53.127  0.00  0.00     0.298 C 
ATOM     16  O   UNL d   1      51.655  32.967  53.540  0.00  0.00    -0.259 OA
BRANCH  15  17
ATOM     17  O   UNL d   1      52.486  33.426  52.442  0.00  0.00    -0.296 OA
ATOM     18  C   UNL d   1      51.827  33.830  52.110  0.00  0.00     0.185 C 
ENDBRANCH  15  17
ENDBRANCH   1  15
BRANCH   3  19
ATOM     19  C   UNL d   1      53.443  33.447  54.449  0.00  0.00     0.030 A 
ATOM     20  S   UNL d   1      52.989  34.097  54.612  0.00  0.00    -0.086 SA
ATOM     21  C   UNL d   1      53.409  34.542  55.150  0.00  0.00     0.035 A 
ATOM     22  C   UNL d   1      54.108  34.181  55.320  0.00  0.00     0.007 A 
ATOM     23  C   UNL d   1      54.131  33.486  54.877  0.00  0.00     0.007 A 
ENDBRANCH   3  19
TORSDOF 5
ENDMDL
MODEL 4
REMARK VINA RESULT:      -7.5      1.231      3.489
REMARK  5 active torsions:
REMARK  status: ('A' for Active; 'I' for Inactive)
REMARK    1  A    between atoms: C_9  and  C_1 
REMARK    2  A    between atoms: N_4  and  C_2 
REMARK    3  A    between atoms: C_8  and  C_3 
REMARK       I    between atoms: C_7  and  N_4 
REMARK    4  A    between atoms: C_10  and  C_7 
REMARK    5  A    between atoms: O_18  and  C_9 
ROOT
ATOM      1  C   UNL d   1      52.604  33.961  53.496  0.00  0.00     0.088 A 
ATOM      2  C   UNL d   1      53.238  33.473  53.323  0.00  0.00     0.119 A 
ATOM      3  C   UNL d   1      51.972  33.699  53.017  0.00  0.00     0.020 A 
ATOM      4  S   UNL d   1      53.066  32.932  52.785  0.00  0.00    -0.067 SA
ATOM      5  C   UNL d   1      52.251  33.053  52.567  0.00  0.00     0.038 A 
ENDROOT
BRANCH   2   6
ATOM      6  N   UNL d   1      54.034  33.518  53.678  0.00  0.00    -0.201 NA
ATOM      7  C   UNL d   1      54.407  32.801  53.947  0.00  0.00     0.281 C 
ATOM      8  O   UNL d   1      55.168  32.865  54.284  0.00  0.00    -0.265 OA
BRANCH   7   9
ATOM      9  C   UNL d   1      54.057  32.085  53.889  0.00  0.00     0.077 A 
ATOM     10  C   UNL d   1      53.637  31.797  54.517  0.00  0.00     0.104 A 
ATOM     11  N   UNL d   1      53.265  31.064  54.488  0.00  0.00    -0.242 NA
ATOM     12  C   UNL d   1      53.319  30.599  53.795  0.00  0.00     0.099 A 
ATOM     13  C   UNL d   1      53.754  30.899  53.147  0.00  0.00     0.021 A 
ATOM     14  C   UNL d   1      54.116  31.629  53.193  0.00  0.00     0.008 A 
ENDBRANCH   7   9
ENDBRANCH   2   6
BRANCH   1  15
ATOM     15  C   UNL d   1      52.581  34.598  54.039  0.00  0.00     0.298 C 
ATOM     16  O   UNL d   1      52.226  34.490  54.795  0.00  0.00    -0.259 OA
BRANCH  15  17
ATOM     17  O   UNL d   1      52.908  35.323  53.822  0.00  0.00    -0.296 OA
ATOM     18  C   UNL d   1      53.087  35.895  54.413  0.00  0.00     0.185 C 
ENDBRANCH  15  17
ENDBRANCH   1  15
BRANCH   3  19
ATOM     19  C   UNL d   1      51.233  34.070  53.045  0.00  0.00     0.030 A 
ATOM     20  S   UNL d   1      50.680  34.487  53.466  0.00  0.00    -0.086 SA
ATOM     21  C   UNL d   1      50.056  34.615  52.959  0.00  0.00     0.035 A 
ATOM     22  C   UNL d   1      50.212  34.289  52.240  0.00  0.00     0.007 A 
ATOM     23  C   UNL d   1      50.958  33.942  52.293  0.00  0.00     0.007 A 
ENDBRANCH   3  19
TORSDOF 5
ENDMDL
MODEL 5
REMARK VINA RESULT:      -6.5      1.636      3.574
REMARK  5 active torsions:
REMARK  status: ('A' for Active; 'I' for Inactive)
REMARK    1  A    between atoms: C_9  and  C_1 
REMARK    2  A    between atoms: N_4  and  C_2 
REMARK    3  A    between atoms: C_8  and  C_3 
REMARK       I    between atoms: C_7  and  N_4 
REMARK    4  A    between atoms: C_10  and  C_7 
REMARK    5  A    between atoms: O_18  and  C_9 
ROOT
ATOM      1  C   UNL d   1      52.727  33.087  53.114  0.00  0.00     0.088 A 
ATOM      2  C   UNL d   1      53.499  33.315  53.257  0.00  0.00     0.119 A 
ATOM      3  C   UNL d   1      52.249  33.739  53.325  0.00  0.00     0.020 A 
ATOM      4  S   UNL d   1      53.554  34.044  53.537  0.00  0.00    -0.067 SA
ATOM      5  C   UNL d   1      52.759  34.344  53.592  0.00  0.00     0.038 A 
ENDROOT
BRANCH   2   6
ATOM      6  N   UNL d   1      54.212  32.829  53.126  0.00  0.00    -0.201 NA
ATOM      7  C   UNL d   1      54.804  32.790  53.737  0.00  0.00     0.281 C 
ATOM      8  O   UNL d   1      55.479  32.321  53.592  0.00  0.00    -0.265 OA
BRANCH   7   9
ATOM      9  C   UNL d   1      54.735  33.183  54.430  0.00  0.00     0.077 A 
ATOM     10  C   UNL d   1      55.036  33.931  54.493  0.00  0.00     0.104 A 
ATOM     11  N   UNL d   1      54.980  34.361  55.191  0.00  0.00    -0.242 NA
ATOM     12  C   UNL d   1      54.604  34.023  55.857  0.00  0.00     0.099 A 
ATOM     13  C   UNL d   1      54.294  33.249  55.789  0.00  0.00     0.021 A 
ATOM     14  C   UNL d   1      54.358  32.837  55.088  0.00  0.00     0.008 A 
ENDBRANCH   7   9
ENDBRANCH   2   6
BRANCH   1  15
ATOM     15  C   UNL d   1      52.456  32.353  52.816  0.00  0.00     0.298 C 
ATOM     16  O   UNL d   1      52.369  32.244  51.985  0.00  0.00    -0.259 OA
BRANCH  15  17
ATOM     17  O   UNL d   1      52.277  31.746  53.345  0.00  0.00    -0.296 OA
ATOM     18  C   UNL d   1      52.241  30.951  53.073  0.00  0.00     0.185 C 
ENDBRANCH  15  17
ENDBRANCH   1  15
BRANCH   3  19
ATOM     19  C   UNL d   1      51.426  33.706  53.252  0.00  0.00     0.030 A 
ATOM     20  S   UNL d   1      50.743  33.271  53.270  0.00  0.00    -0.086 SA
ATOM     21  C   UNL d   1      50.136  33.789  53.111  0.00  0.00     0.035 A 
ATOM     22  C   UNL d   1      50.429  34.531  52.997  0.00  0.00     0.007 A 
ATOM     23  C   UNL d   1      51.247  34.480  53.086  0.00  0.00     0.007 A 
ENDBRANCH   3  19
TORSDOF 5
ENDMDL
MODEL 6
REMARK VINA RESULT:      -6.4      1.507      3.515
REMARK  5 active torsions:
REMARK  status: ('A' for Active; 'I' for Inactive)
REMARK    1  A    between atoms: C_9  and  C_1 
REMARK    2  A    between atoms: N_4  and  C_2 
REMARK    3  A    between atoms: C_8  and  C_3 
REMARK       I    between atoms: C_7  and  N_4 
REMARK    4  A    between atoms: C_10  and  C_7 
REMARK    5  A    between atoms: O_18  and  C_9 
ROOT
ATOM      1  C   UNL d   1      53.523  32.562  53.518  0.00  0.00     0.088 A 
ATOM      2  C   UNL d   1      53.566  31.796  53.236  0.00  0.00     0.119 A 
ATOM      3  C   UNL d   1      52.774  32.853  53.286  0.00  0.00     0.020 A 
ATOM      4  S   UNL d   1      52.921  31.577  52.851  0.00  0.00    -0.067 SA
ATOM      5  C   UNL d   1      52.389  32.242  52.867  0.00  0.00     0.038 A 
ENDROOT
BRANCH   2   6
ATOM      6  N   UNL d   1      54.240  31.249  53.333  0.00  0.00    -0.201 NA
ATOM      7  C   UNL d   1      54.085  30.425  53.482  0.00  0.00     0.281 C 
ATOM      8  O   UNL d   1      54.742  29.919  53.571  0.00  0.00    -0.265 OA
BRANCH   7   9
ATOM      9  C   UNL d   1      53.344  30.129  53.537  0.00  0.00     0.077 A 
ATOM     10  C   UNL d   1      53.011  30.032  54.267  0.00  0.00     0.104 A 
ATOM     11  N   UNL d   1      52.252  29.730  54.358  0.00  0.00    -0.242 NA
ATOM     12  C   UNL d   1      51.807  29.516  53.683  0.00  0.00     0.099 A 
ATOM     13  C   UNL d   1      52.155  29.617  52.929  0.00  0.00     0.021 A 
ATOM     14  C   UNL d   1      52.910  29.918  52.858  0.00  0.00     0.008 A 
ENDBRANCH   7   9
ENDBRANCH   2   6
BRANCH   1  15
ATOM     15  C   UNL d   1      54.102  32.983  53.952  0.00  0.00     0.298 C 
ATOM     16  O   UNL d   1      54.700  33.414  53.545  0.00  0.00    -0.259 OA
BRANCH  15  17
ATOM     17  O   UNL d   1      54.076  32.967  54.777  0.00  0.00    -0.296 OA
ATOM     18  C   UNL d   1      54.728  33.259  55.222  0.00  0.00     0.185 C 
ENDBRANCH  15  17
ENDBRANCH   1  15
BRANCH   3  19
ATOM     19  C   UNL d   1      52.537  33.622  53.479  0.00  0.00     0.030 A 
ATOM     20  S   UNL d   1      52.670  34.309  53.886  0.00  0.00    -0.086 SA
ATOM     21  C   UNL d   1      52.056  34.809  53.700  0.00  0.00     0.035 A 
ATOM     22  C   UNL d   1      51.550  34.446  53.189  0.00  0.00     0.007 A 
ATOM     23  C   UNL d   1      51.853  33.693  53.048  0.00  0.00     0.007 A 
ENDBRANCH   3  19
TORSDOF 5
ENDMDL
