MODEL 1
REMARK VINA RESULT:      69.2      0.000      0.000
REMARK  2 active torsions:
REMARK  status: ('A' for Active; 'I' for Inactive)
REMARK    1  A    between atoms: S_5  and  C_3 
REMARK    2  A    between atoms: C_12  and  S_5 
ROOT
ATOM      1  C   UNL d   1      58.971  49.553  49.976  0.00  0.00     0.155 A 
ATOM      2  C   UNL d   1      58.776  49.502  50.767  0.00  0.00     0.092 A 
ATOM      3  C   UNL d   1      60.145  49.584  51.112  0.00  0.00     0.124 A 
ATOM      4  N   UNL d   1      58.378  49.537  49.404  0.00  0.00    -0.210 NA
ATOM      5  N   UNL d   1      59.746  49.619  49.750  0.00  0.00    -0.272 N 
ATOM      6  C   UNL d   1      60.341  49.635  50.313  0.00  0.00     0.181 A 
ATOM      7  C   UNL d   1      57.990  49.434  50.995  0.00  0.00     0.269 A 
ATOM      8  N   UNL d   1      57.402  49.419  50.424  0.00  0.00    -0.258 N 
ATOM      9  C   UNL d   1      59.360  49.517  51.337  0.00  0.00     0.022 A 
ATOM     10  C   UNL d   1      57.603  49.471  49.626  0.00  0.00     0.152 A 
ATOM     11  N   UNL d   1      61.134  49.704  50.077  0.00  0.00    -0.128 N 
ATOM     12  C   UNL d   1      56.610  49.352  50.642  0.00  0.00     0.084 A 
ATOM     13  O   UNL d   1      57.786  49.382  51.802  0.00  0.00    -0.266 OA
ATOM     14  C   UNL d   1      57.010  49.455  49.054  0.00  0.00     0.038 A 
ATOM     15  C   UNL d   1      56.033  49.337  50.074  0.00  0.00     0.019 A 
ATOM     16  C   UNL d   1      56.235  49.389  49.276  0.00  0.00     0.005 A 
ATOM     17  C   UNL d   1      59.947  49.672  48.937  0.00  0.00     0.102 C 
ENDROOT
BRANCH   3  18
ATOM     18  S   UNL d   1      60.743  49.600  51.686  0.00  0.00     0.213 S 
ATOM     19  O   UNL d   1      61.328  49.558  51.093  0.00  0.00    -0.217 OA
ATOM     20  O   UNL d   1      60.169  49.642  52.282  0.00  0.00    -0.217 OA
BRANCH  18  21
ATOM     21  C   UNL d   1      61.337  49.617  52.273  0.00  0.00     0.088 A 
ATOM     22  C   UNL d   1      62.134  49.565  52.058  0.00  0.00     0.014 A 
ATOM     23  C   UNL d   1      62.729  49.582  52.645  0.00  0.00     0.030 A 
ATOM     24  C   UNL d   1      62.521  49.651  53.444  0.00  0.00     0.140 A 
ATOM     25  C   UNL d   1      61.709  49.703  53.656  0.00  0.00     0.030 A 
ATOM     26  F   UNL d   1      63.104  49.668  54.033  0.00  0.00    -0.204 F 
ATOM     27  C   UNL d   1      61.119  49.686  53.071  0.00  0.00     0.014 A 
ENDBRANCH  18  21
ENDBRANCH   3  18
TORSDOF 2
ENDMDL
