MODEL 1
REMARK VINA RESULT:      -9.1      0.000      0.000
REMARK  10 active torsions:
REMARK  status: ('A' for Active; 'I' for Inactive)
REMARK    1  A    between atoms: C_14  and  N_1 
REMARK    2  A    between atoms: C_7  and  N_3 
REMARK    3  A    between atoms: C_9  and  C_7 
REMARK       I    between atoms: N_18  and  C_9 
REMARK    4  A    between atoms: C_11  and  C_24 
REMARK       I    between atoms: N_12  and  C_11 
REMARK    5  A    between atoms: C_21  and  N_12 
REMARK    6  A    between atoms: C_13  and  C_25 
REMARK    7  A    between atoms: C_23  and  C_14 
REMARK    8  A    between atoms: C_22  and  N_18 
REMARK    9  A    between atoms: C_25  and  C_22 
REMARK   10  A    between atoms: C_24  and  C_23 
ROOT
ATOM      1  N   UNL d   1      53.051  32.873  53.143  0.00  0.00    -0.226 N 
ATOM      2  C   UNL d   1      52.461  33.297  52.752  0.00  0.00     0.342 A 
ATOM      3  N   UNL d   1      52.264  34.061  53.007  0.00  0.00    -0.254 N 
ATOM      4  C   UNL d   1      53.445  33.215  53.789  0.00  0.00     0.270 A 
ATOM      5  C   UNL d   1      53.247  33.974  54.039  0.00  0.00     0.073 A 
ATOM      6  C   UNL d   1      52.657  34.398  53.648  0.00  0.00     0.073 A 
ATOM      7  O   UNL d   1      52.064  32.960  52.106  0.00  0.00    -0.245 OA
ATOM      8  O   UNL d   1      54.036  32.791  54.179  0.00  0.00    -0.266 OA
ATOM      9  C   UNL d   1      53.640  34.309  54.680  0.00  0.00     0.006 A 
ATOM     10  C   UNL d   1      52.459  35.156  53.898  0.00  0.00     0.018 A 
ATOM     11  C   UNL d   1      53.442  35.069  54.930  0.00  0.00     0.000 A 
ATOM     12  C   UNL d   1      52.852  35.492  54.539  0.00  0.00     0.002 A 
ENDROOT
BRANCH   3  13
ATOM     13  C   UNL d   1      51.673  34.485  52.616  0.00  0.00     0.147 C 
BRANCH  13  14
ATOM     14  C   UNL d   1      50.885  34.376  52.835  0.00  0.00     0.297 C 
ATOM     15  O   UNL d   1      50.654  33.701  53.249  0.00  0.00    -0.264 OA
ATOM     16  N   UNL d   1      50.312  34.948  52.641  0.00  0.00    -0.205 NA
BRANCH  16  17
ATOM     17  C   UNL d   1      49.520  34.847  52.857  0.00  0.00     0.102 C 
BRANCH  17  18
ATOM     18  C   UNL d   1      48.920  35.146  52.376  0.00  0.00     0.021 C 
BRANCH  18  19
ATOM     19  C   UNL d   1      48.302  35.581  52.704  0.00  0.00     0.002 A 
ATOM     20  C   UNL d   1      48.340  35.831  53.490  0.00  0.00     0.000 A 
ATOM     21  C   UNL d   1      47.724  36.264  53.815  0.00  0.00     0.000 A 
ATOM     22  C   UNL d   1      47.063  36.450  53.354  0.00  0.00     0.000 A 
ATOM     23  C   UNL d   1      47.025  36.201  52.569  0.00  0.00     0.000 A 
ATOM     24  C   UNL d   1      47.644  35.765  52.241  0.00  0.00     0.000 A 
ENDBRANCH  18  19
ENDBRANCH  17  18
ENDBRANCH  16  17
ENDBRANCH  13  14
ENDBRANCH   3  13
BRANCH   1  25
ATOM     25  C   UNL d   1      53.249  32.111  52.890  0.00  0.00     0.088 C 
BRANCH  25  26
ATOM     26  C   UNL d   1      52.885  31.450  53.225  0.00  0.00     0.024 C 
BRANCH  26  27
ATOM     27  C   UNL d   1      53.031  30.696  52.931  0.00  0.00     0.064 C 
BRANCH  27  28
ATOM     28  C   UNL d   1      52.949  30.037  53.433  0.00  0.00     0.279 C 
ATOM     29  N   UNL d   1      53.551  29.851  53.967  0.00  0.00    -0.208 NA
ATOM     30  O   UNL d   1      52.273  29.567  53.403  0.00  0.00    -0.265 OA
BRANCH  29  31
ATOM     31  C   UNL d   1      53.485  29.201  54.471  0.00  0.00     0.085 A 
ATOM     32  C   UNL d   1      53.533  28.384  54.348  0.00  0.00     0.019 A 
ATOM     33  C   UNL d   1      53.420  28.009  55.071  0.00  0.00     0.002 A 
ATOM     34  C   UNL d   1      53.301  28.589  55.646  0.00  0.00     0.002 A 
ATOM     35  C   UNL d   1      53.339  29.323  55.284  0.00  0.00     0.019 A 
ENDBRANCH  29  31
ENDBRANCH  27  28
ENDBRANCH  26  27
ENDBRANCH  25  26
ENDBRANCH   1  25
TORSDOF 10
ENDMDL
MODEL 2
REMARK VINA RESULT:      -8.9      0.890      6.271
REMARK  10 active torsions:
REMARK  status: ('A' for Active; 'I' for Inactive)
REMARK    1  A    between atoms: C_14  and  N_1 
REMARK    2  A    between atoms: C_7  and  N_3 
REMARK    3  A    between atoms: C_9  and  C_7 
REMARK       I    between atoms: N_18  and  C_9 
REMARK    4  A    between atoms: C_11  and  C_24 
REMARK       I    between atoms: N_12  and  C_11 
REMARK    5  A    between atoms: C_21  and  N_12 
REMARK    6  A    between atoms: C_13  and  C_25 
REMARK    7  A    between atoms: C_23  and  C_14 
REMARK    8  A    between atoms: C_22  and  N_18 
REMARK    9  A    between atoms: C_25  and  C_22 
REMARK   10  A    between atoms: C_24  and  C_23 
ROOT
ATOM      1  N   UNL d   1      51.948  34.348  52.995  0.00  0.00    -0.226 N 
ATOM      2  C   UNL d   1      52.232  33.628  52.710  0.00  0.00     0.342 A 
ATOM      3  N   UNL d   1      52.881  33.266  53.080  0.00  0.00    -0.254 N 
ATOM      4  C   UNL d   1      52.313  34.707  53.649  0.00  0.00     0.270 A 
ATOM      5  C   UNL d   1      52.957  34.344  54.013  0.00  0.00     0.073 A 
ATOM      6  C   UNL d   1      53.241  33.623  53.728  0.00  0.00     0.073 A 
ATOM      7  O   UNL d   1      51.871  33.265  52.057  0.00  0.00    -0.245 OA
ATOM      8  O   UNL d   1      52.029  35.427  53.933  0.00  0.00    -0.266 OA
ATOM      9  C   UNL d   1      53.316  34.703  54.661  0.00  0.00     0.006 A 
ATOM     10  C   UNL d   1      53.884  33.262  54.092  0.00  0.00     0.018 A 
ATOM     11  C   UNL d   1      53.960  34.340  55.025  0.00  0.00     0.000 A 
ATOM     12  C   UNL d   1      54.244  33.619  54.740  0.00  0.00     0.002 A 
ENDROOT
BRANCH   3  13
ATOM     13  C   UNL d   1      53.165  32.544  52.795  0.00  0.00     0.147 C 
BRANCH  13  14
ATOM     14  C   UNL d   1      52.796  31.844  53.028  0.00  0.00     0.297 C 
ATOM     15  O   UNL d   1      51.974  31.791  53.054  0.00  0.00    -0.264 OA
ATOM     16  N   UNL d   1      53.252  31.180  53.242  0.00  0.00    -0.205 NA
BRANCH  16  17
ATOM     17  C   UNL d   1      52.890  30.474  53.477  0.00  0.00     0.102 C 
BRANCH  17  18
ATOM     18  C   UNL d   1      53.322  29.771  53.478  0.00  0.00     0.021 C 
BRANCH  18  19
ATOM     19  C   UNL d   1      53.356  29.306  54.158  0.00  0.00     0.002 A 
ATOM     20  C   UNL d   1      53.007  29.566  54.859  0.00  0.00     0.000 A 
ATOM     21  C   UNL d   1      53.041  29.102  55.534  0.00  0.00     0.000 A 
ATOM     22  C   UNL d   1      53.427  28.371  55.512  0.00  0.00     0.000 A 
ATOM     23  C   UNL d   1      53.776  28.111  54.811  0.00  0.00     0.000 A 
ATOM     24  C   UNL d   1      53.742  28.577  54.131  0.00  0.00     0.000 A 
ENDBRANCH  18  19
ENDBRANCH  17  18
ENDBRANCH  16  17
ENDBRANCH  13  14
ENDBRANCH   3  13
BRANCH   1  25
ATOM     25  C   UNL d   1      51.301  34.711  52.628  0.00  0.00     0.088 C 
BRANCH  25  26
ATOM     26  C   UNL d   1      50.545  34.646  52.952  0.00  0.00     0.024 C 
BRANCH  26  27
ATOM     27  C   UNL d   1      49.879  34.666  52.469  0.00  0.00     0.064 C 
BRANCH  27  28
ATOM     28  C   UNL d   1      49.204  35.087  52.717  0.00  0.00     0.279 C 
ATOM     29  N   UNL d   1      48.686  35.398  52.156  0.00  0.00    -0.208 NA
ATOM     30  O   UNL d   1      49.049  35.196  53.519  0.00  0.00    -0.265 OA
BRANCH  29  31
ATOM     31  C   UNL d   1      48.014  35.818  52.386  0.00  0.00     0.085 A 
ATOM     32  C   UNL d   1      47.857  36.332  53.017  0.00  0.00     0.019 A 
ATOM     33  C   UNL d   1      47.076  36.582  52.955  0.00  0.00     0.002 A 
ATOM     34  C   UNL d   1      46.744  36.227  52.288  0.00  0.00     0.002 A 
ATOM     35  C   UNL d   1      47.314  35.757  51.935  0.00  0.00     0.019 A 
ENDBRANCH  29  31
ENDBRANCH  27  28
ENDBRANCH  26  27
ENDBRANCH  25  26
ENDBRANCH   1  25
TORSDOF 10
ENDMDL
