MODEL 1
REMARK VINA RESULT:      69.1      0.000      0.000
REMARK  3 active torsions:
REMARK  status: ('A' for Active; 'I' for Inactive)
REMARK    1  A    between atoms: N_9  and  C_7 
REMARK       I    between atoms: C_10  and  N_9 
REMARK    2  A    between atoms: C_13  and  C_10 
REMARK    3  A    between atoms: O_23  and  C_18 
ROOT
ATOM      1  C   UNL d   1     -50.632  24.563  33.342  0.00  0.00     0.081 A 
ATOM      2  C   UNL d   1     -50.816  23.765  33.320  0.00  0.00     0.301 A 
ATOM      3  C   UNL d   1     -51.220  25.137  33.353  0.00  0.00     0.090 A 
ATOM      4  O   UNL d   1     -51.615  23.532  33.308  0.00  0.00    -0.273 OA
ATOM      5  N   UNL d   1     -51.024  25.940  33.376  0.00  0.00    -0.226 NA
ATOM      6  C   UNL d   1     -52.012  24.903  33.341  0.00  0.00     0.041 A 
ATOM      7  C   UNL d   1     -50.222  26.164  33.388  0.00  0.00     0.166 A 
ATOM      8  C   UNL d   1     -49.835  24.793  33.354  0.00  0.00     0.010 A 
ATOM      9  C   UNL d   1     -52.213  24.100  33.318  0.00  0.00     0.105 A 
ATOM     10  C   UNL d   1     -49.629  25.593  33.377  0.00  0.00     0.039 A 
ATOM     11  O   UNL d   1     -50.220  23.189  33.309  0.00  0.00    -0.259 OA
ATOM     12  C   UNL d   1     -52.609  25.475  33.351  0.00  0.00     0.004 A 
ATOM     13  C   UNL d   1     -49.248  24.214  33.344  0.00  0.00     0.000 C 
ATOM     14  C   UNL d   1     -52.995  23.867  33.306  0.00  0.00     0.025 A 
ATOM     15  C   UNL d   1     -53.397  25.235  33.339  0.00  0.00     0.000 A 
ATOM     16  C   UNL d   1     -53.590  24.430  33.316  0.00  0.00     0.002 A 
ENDROOT
BRANCH   7  17
ATOM     17  N   UNL d   1     -50.019  26.975  33.411  0.00  0.00    -0.189 NA
ATOM     18  C   UNL d   1     -49.651  27.285  34.079  0.00  0.00     0.281 C 
ATOM     19  O   UNL d   1     -49.482  26.792  34.727  0.00  0.00    -0.265 OA
BRANCH  18  20
ATOM     20  C   UNL d   1     -49.452  28.074  34.105  0.00  0.00     0.058 A 
ATOM     21  C   UNL d   1     -49.821  28.618  33.591  0.00  0.00     0.007 A 
ATOM     22  C   UNL d   1     -49.619  29.420  33.617  0.00  0.00     0.024 A 
ATOM     23  C   UNL d   1     -49.044  29.659  34.166  0.00  0.00     0.094 A 
ATOM     24  C   UNL d   1     -48.681  29.126  34.671  0.00  0.00     0.024 A 
ATOM     25  C   UNL d   1     -48.889  28.334  34.636  0.00  0.00     0.007 A 
BRANCH  23  26
ATOM     26  O   UNL d   1     -48.832  30.467  34.201  0.00  0.00    -0.328 OA
ATOM     27  C   UNL d   1     -48.041  30.701  34.253  0.00  0.00     0.181 C 
ENDBRANCH  23  26
ENDBRANCH  18  20
ENDBRANCH   7  17
TORSDOF 3
ENDMDL
