MODEL 1
REMARK VINA RESULT:      97.9      0.000      0.000
REMARK  6 active torsions:
REMARK  status: ('A' for Active; 'I' for Inactive)
REMARK    1  A    between atoms: N_10  and  C_3 
REMARK    2  A    between atoms: C_9  and  C_4 
REMARK    3  A    between atoms: C_20  and  N_13 
REMARK    4  A    between atoms: O_24  and  C_14 
REMARK    5  A    between atoms: O_26  and  C_16 
REMARK    6  A    between atoms: C_25  and  C_20 
ROOT
ATOM      1  N   UNL d   1     -55.026-100.421 -41.234  0.00  0.00    -0.196 N 
ATOM      2  C   UNL d   1     -54.971-100.959 -40.611  0.00  0.00     0.167 A 
ATOM      3  C   UNL d   1     -55.012-100.697 -41.998  0.00  0.00     0.152 A 
ATOM      4  C   UNL d   1     -54.983-100.703 -39.844  0.00  0.00     0.055 A 
ATOM      5  N   UNL d   1     -55.106 -99.362 -40.314  0.00  0.00    -0.163 NA
ATOM      6  C   UNL d   1     -55.051 -99.900 -39.690  0.00  0.00     0.104 A 
ATOM      7  N   UNL d   1     -54.904-101.761 -40.764  0.00  0.00    -0.227 NA
ATOM      8  C   UNL d   1     -54.946-101.489 -42.163  0.00  0.00     0.057 A 
ATOM      9  C   UNL d   1     -54.891-102.027 -41.540  0.00  0.00     0.086 A 
ATOM     10  C   UNL d   1     -55.064 -99.633 -38.930  0.00  0.00     0.023 C 
ATOM     11  C   UNL d   1     -54.821-102.858 -41.700  0.00  0.00     0.021 C 
ENDROOT
BRANCH   3  12
ATOM     12  N   UNL d   1     -55.069-100.146 -42.637  0.00  0.00    -0.286 N 
ATOM     13  C   UNL d   1     -55.556-100.556 -43.193  0.00  0.00     0.101 A 
ATOM     14  C   UNL d   1     -55.751-100.187 -43.927  0.00  0.00     0.100 A 
ATOM     15  N   UNL d   1     -55.466 -99.416 -44.111  0.00  0.00    -0.300 N 
ATOM     16  C   UNL d   1     -54.974 -99.005 -43.545  0.00  0.00     0.100 A 
ATOM     17  C   UNL d   1     -54.777 -99.366 -42.815  0.00  0.00     0.101 A 
BRANCH  15  18
ATOM     18  C   UNL d   1     -55.668 -99.053 -44.855  0.00  0.00     0.080 C 
BRANCH  18  19
ATOM     19  C   UNL d   1     -56.481 -98.954 -45.063  0.00  0.00     0.018 A 
ATOM     20  C   UNL d   1     -56.702 -98.876 -45.867  0.00  0.00     0.002 A 
ATOM     21  C   UNL d   1     -57.518 -98.778 -46.074  0.00  0.00     0.000 A 
ATOM     22  C   UNL d   1     -58.100 -98.759 -45.471  0.00  0.00     0.000 A 
ATOM     23  C   UNL d   1     -57.872 -98.839 -44.662  0.00  0.00     0.000 A 
ATOM     24  C   UNL d   1     -57.063 -98.936 -44.460  0.00  0.00     0.002 A 
ENDBRANCH  18  19
ENDBRANCH  15  18
ENDBRANCH   3  12
BRANCH   4  25
ATOM     25  C   UNL d   1     -54.929-101.232 -39.230  0.00  0.00     0.007 A 
ATOM     26  C   UNL d   1     -54.922-100.957 -38.464  0.00  0.00     0.026 A 
ATOM     27  C   UNL d   1     -54.867-101.495 -37.841  0.00  0.00     0.116 A 
ATOM     28  C   UNL d   1     -54.820-102.296 -37.996  0.00  0.00     0.116 A 
ATOM     29  C   UNL d   1     -54.828-102.554 -38.763  0.00  0.00     0.026 A 
ATOM     30  C   UNL d   1     -54.883-102.019 -39.383  0.00  0.00     0.002 A 
BRANCH  27  31
ATOM     31  O   UNL d   1     -54.859-101.227 -37.053  0.00  0.00    -0.326 OA
ATOM     32  C   UNL d   1     -54.730-101.783 -36.415  0.00  0.00     0.181 C 
ENDBRANCH  27  31
BRANCH  28  33
ATOM     33  O   UNL d   1     -54.763-102.851 -37.354  0.00  0.00    -0.326 OA
ATOM     34  C   UNL d   1     -54.800-102.565 -36.552  0.00  0.00     0.181 C 
ENDBRANCH  28  33
ENDBRANCH   4  25
TORSDOF 6
ENDMDL
