MODEL 1
REMARK VINA RESULT:      -0.9      0.000      0.000
REMARK  3 active torsions:
REMARK  status: ('A' for Active; 'I' for Inactive)
REMARK    1  A    between atoms: C_8  and  N_1 
REMARK    2  A    between atoms: C_2  and  C_7 
REMARK    3  A    between atoms: C_7  and  C_9 
ROOT
ATOM      1  N   UNL d   1      57.167   0.228  32.167  0.00  0.00    -0.242 N 
ATOM      2  C   UNL d   1      57.967   0.276  32.400  0.00  0.00     0.267 A 
ATOM      3  C   UNL d   1      57.136   0.373  31.353  0.00  0.00     0.267 A 
ATOM      4  C   UNL d   1      57.906   0.511  31.082  0.00  0.00     0.062 A 
ATOM      5  C   UNL d   1      58.419   0.451  31.727  0.00  0.00     0.066 A 
ATOM      6  O   UNL d   1      58.249   0.169  33.164  0.00  0.00    -0.267 OA
ATOM      7  O   UNL d   1      56.447   0.379  30.894  0.00  0.00    -0.267 OA
ENDROOT
BRANCH   4   8
ATOM      8  C   UNL d   1      58.121   0.678  30.304  0.00  0.00     0.018 C 
BRANCH   8   9
ATOM      9  C   UNL d   1      58.697   0.173  30.011  0.00  0.00     0.045 A 
ATOM     10  N   UNL d   1      59.492   0.170  30.217  0.00  0.00    -0.308 N 
ATOM     11  C   UNL d   1      59.871  -0.422  29.797  0.00  0.00     0.060 A 
ATOM     12  C   UNL d   1      59.849   0.681  30.761  0.00  0.00     0.099 C 
ATOM     13  C   UNL d   1      60.650  -0.673  29.781  0.00  0.00     0.017 A 
ATOM     14  C   UNL d   1      59.310  -0.792  29.324  0.00  0.00    -0.002 A 
ATOM     15  C   UNL d   1      60.875  -1.301  29.289  0.00  0.00     0.002 A 
ATOM     16  C   UNL d   1      60.305  -1.669  28.815  0.00  0.00    -0.000 A 
ATOM     17  C   UNL d   1      59.529  -1.417  28.832  0.00  0.00    -0.003 A 
ATOM     18  C   UNL d   1      58.581  -0.424  29.456  0.00  0.00     0.054 A 
ATOM     19  C   UNL d   1      58.601  -1.050  28.911  0.00  0.00     0.010 C 
ATOM     20  C   UNL d   1      57.886  -0.659  29.067  0.00  0.00     0.010 C 
ENDBRANCH   8   9
ENDBRANCH   4   8
BRANCH   1  21
ATOM     21  C   UNL d   1      56.529   0.066  32.653  0.00  0.00     0.070 A 
ATOM     22  C   UNL d   1      56.238  -0.707  32.720  0.00  0.00     0.016 A 
ATOM     23  C   UNL d   1      55.593  -0.861  33.212  0.00  0.00     0.001 A 
ATOM     24  C   UNL d   1      56.586  -1.315  32.302  0.00  0.00     0.001 A 
ATOM     25  C   UNL d   1      55.305  -1.627  33.279  0.00  0.00     0.000 A 
ATOM     26  C   UNL d   1      55.241  -0.252  33.634  0.00  0.00     0.000 A 
ATOM     27  C   UNL d   1      55.652  -2.239  32.861  0.00  0.00     0.000 A 
ATOM     28  C   UNL d   1      56.297  -2.080  32.369  0.00  0.00     0.000 A 
ATOM     29  C   UNL d   1      55.533   0.521  33.567  0.00  0.00     0.002 A 
ATOM     30  C   UNL d   1      56.175   0.681  33.078  0.00  0.00     0.018 A 
ENDBRANCH   1  21
TORSDOF 3
ENDMDL
MODEL 2
REMARK VINA RESULT:       1.0      1.220      4.757
REMARK  3 active torsions:
REMARK  status: ('A' for Active; 'I' for Inactive)
REMARK    1  A    between atoms: C_8  and  N_1 
REMARK    2  A    between atoms: C_2  and  C_7 
REMARK    3  A    between atoms: C_7  and  C_9 
ROOT
ATOM      1  N   UNL d   1      58.033  -0.676  30.390  0.00  0.00    -0.242 N 
ATOM      2  C   UNL d   1      57.860  -1.133  31.067  0.00  0.00     0.267 A 
ATOM      3  C   UNL d   1      57.661   0.057  30.484  0.00  0.00     0.267 A 
ATOM      4  C   UNL d   1      57.261   0.058  31.209  0.00  0.00     0.062 A 
ATOM      5  C   UNL d   1      57.384  -0.677  31.568  0.00  0.00     0.066 A 
ATOM      6  O   UNL d   1      58.119  -1.900  31.203  0.00  0.00    -0.267 OA
ATOM      7  O   UNL d   1      57.688   0.681  29.941  0.00  0.00    -0.267 OA
ENDROOT
BRANCH   4   8
ATOM      8  C   UNL d   1      56.818   0.681  31.517  0.00  0.00     0.018 C 
BRANCH   8   9
ATOM      9  C   UNL d   1      56.654   0.599  32.316  0.00  0.00     0.045 A 
ATOM     10  N   UNL d   1      57.203   0.597  32.927  0.00  0.00    -0.308 N 
ATOM     11  C   UNL d   1      56.806   0.501  33.637  0.00  0.00     0.060 A 
ATOM     12  C   UNL d   1      58.021   0.679  32.838  0.00  0.00     0.099 C 
ATOM     13  C   UNL d   1      57.067   0.459  34.412  0.00  0.00     0.017 A 
ATOM     14  C   UNL d   1      56.003   0.443  33.470  0.00  0.00    -0.002 A 
ATOM     15  C   UNL d   1      56.523   0.358  35.029  0.00  0.00     0.002 A 
ATOM     16  C   UNL d   1      55.716   0.300  34.853  0.00  0.00    -0.000 A 
ATOM     17  C   UNL d   1      55.458   0.342  34.081  0.00  0.00    -0.003 A 
ATOM     18  C   UNL d   1      55.908   0.503  32.651  0.00  0.00     0.054 A 
ATOM     19  C   UNL d   1      55.224   0.403  33.109  0.00  0.00     0.010 C 
ATOM     20  C   UNL d   1      55.164   0.467  32.284  0.00  0.00     0.010 C 
ENDBRANCH   8   9
ENDBRANCH   4   8
BRANCH   1  21
ATOM     21  C   UNL d   1      58.487  -0.907  29.751  0.00  0.00     0.070 A 
ATOM     22  C   UNL d   1      59.299  -0.742  29.729  0.00  0.00     0.016 A 
ATOM     23  C   UNL d   1      59.748  -0.979  29.080  0.00  0.00     0.001 A 
ATOM     24  C   UNL d   1      59.653  -0.345  30.348  0.00  0.00     0.001 A 
ATOM     25  C   UNL d   1      60.553  -0.815  29.058  0.00  0.00     0.000 A 
ATOM     26  C   UNL d   1      59.395  -1.378  28.456  0.00  0.00     0.000 A 
ATOM     27  C   UNL d   1      60.912  -0.418  29.678  0.00  0.00     0.000 A 
ATOM     28  C   UNL d   1      60.457  -0.182  30.327  0.00  0.00     0.000 A 
ATOM     29  C   UNL d   1      58.583  -1.544  28.477  0.00  0.00     0.002 A 
ATOM     30  C   UNL d   1      58.128  -1.310  29.122  0.00  0.00     0.018 A 
ENDBRANCH   1  21
TORSDOF 3
ENDMDL
MODEL 3
REMARK VINA RESULT:       1.5      1.080      4.780
REMARK  3 active torsions:
REMARK  status: ('A' for Active; 'I' for Inactive)
REMARK    1  A    between atoms: C_8  and  N_1 
REMARK    2  A    between atoms: C_2  and  C_7 
REMARK    3  A    between atoms: C_7  and  C_9 
ROOT
ATOM      1  N   UNL d   1      58.866  -0.369  30.073  0.00  0.00    -0.242 N 
ATOM      2  C   UNL d   1      58.848  -0.001  30.822  0.00  0.00     0.267 A 
ATOM      3  C   UNL d   1      58.136  -0.744  29.963  0.00  0.00     0.267 A 
ATOM      4  C   UNL d   1      57.669  -0.611  30.633  0.00  0.00     0.062 A 
ATOM      5  C   UNL d   1      58.108  -0.153  31.163  0.00  0.00     0.066 A 
ATOM      6  O   UNL d   1      59.460   0.433  31.155  0.00  0.00    -0.267 OA
ATOM      7  O   UNL d   1      57.916  -1.176  29.292  0.00  0.00    -0.267 OA
ENDROOT
BRANCH   4   8
ATOM      8  C   UNL d   1      56.901  -0.887  30.750  0.00  0.00     0.018 C 
BRANCH   8   9
ATOM      9  C   UNL d   1      56.574  -0.646  31.462  0.00  0.00     0.045 A 
ATOM     10  N   UNL d   1      56.205   0.073  31.608  0.00  0.00    -0.308 N 
ATOM     11  C   UNL d   1      55.959   0.089  32.389  0.00  0.00     0.060 A 
ATOM     12  C   UNL d   1      56.099   0.680  31.056  0.00  0.00     0.099 C 
ATOM     13  C   UNL d   1      55.568   0.656  32.832  0.00  0.00     0.017 A 
ATOM     14  C   UNL d   1      56.176  -0.625  32.735  0.00  0.00    -0.002 A 
ATOM     15  C   UNL d   1      55.389   0.512  33.628  0.00  0.00     0.002 A 
ATOM     16  C   UNL d   1      55.611  -0.209  33.970  0.00  0.00    -0.000 A 
ATOM     17  C   UNL d   1      56.001  -0.772  33.528  0.00  0.00    -0.003 A 
ATOM     18  C   UNL d   1      56.558  -1.081  32.161  0.00  0.00     0.054 A 
ATOM     19  C   UNL d   1      56.476  -1.410  32.918  0.00  0.00     0.010 C 
ATOM     20  C   UNL d   1      56.854  -1.841  32.319  0.00  0.00     0.010 C 
ENDBRANCH   8   9
ENDBRANCH   4   8
BRANCH   1  21
ATOM     21  C   UNL d   1      59.489  -0.363  29.543  0.00  0.00     0.070 A 
ATOM     22  C   UNL d   1      60.000  -1.013  29.488  0.00  0.00     0.016 A 
ATOM     23  C   UNL d   1      60.626  -0.998  28.951  0.00  0.00     0.001 A 
ATOM     24  C   UNL d   1      59.886  -1.667  29.962  0.00  0.00     0.001 A 
ATOM     25  C   UNL d   1      61.133  -1.642  28.896  0.00  0.00     0.000 A 
ATOM     26  C   UNL d   1      60.744  -0.342  28.472  0.00  0.00     0.000 A 
ATOM     27  C   UNL d   1      61.020  -2.300  29.371  0.00  0.00     0.000 A 
ATOM     28  C   UNL d   1      60.392  -2.311  29.907  0.00  0.00     0.000 A 
ATOM     29  C   UNL d   1      60.233   0.308  28.528  0.00  0.00     0.002 A 
ATOM     30  C   UNL d   1      59.606   0.299  29.062  0.00  0.00     0.018 A 
ENDBRANCH   1  21
TORSDOF 3
ENDMDL
