MODEL 1
REMARK VINA RESULT:      -7.1      0.000      0.000
REMARK  1 active torsions:
REMARK  status: ('A' for Active; 'I' for Inactive)
REMARK    1  A    between atoms: C_2  and  C_1 
REMARK       I    between atoms: N_3  and  C_2 
ROOT
ATOM      1  C   UNL d   1     -41.469-122.564 -53.625  0.00  0.00     0.109 A 
ATOM      2  C   UNL d   1     -41.126-123.189 -53.877  0.00  0.00     0.026 A 
ATOM      3  C   UNL d   1     -41.881-122.252 -54.119  0.00  0.00    -0.014 A 
ATOM      4  C   UNL d   1     -41.993-121.964 -53.882  0.00  0.00    -0.014 A 
ATOM      5  C   UNL d   1     -41.343-123.319 -54.674  0.00  0.00     0.045 A 
ATOM      6  C   UNL d   1     -42.182-122.058 -54.540  0.00  0.00    -0.007 A 
ATOM      7  C   UNL d   1     -42.107-122.384 -54.940  0.00  0.00    -0.007 A 
ATOM      8  C   UNL d   1     -41.772-122.993 -55.186  0.00  0.00    -0.022 A 
ATOM      9  C   UNL d   1     -42.641-121.780 -55.220  0.00  0.00    -0.001 A 
ATOM     10  C   UNL d   1     -41.756-122.853 -54.889  0.00  0.00    -0.022 A 
ENDROOT
BRANCH   1  11
ATOM     11  C   UNL d   1     -41.307-122.316 -52.755  0.00  0.00     0.248 C 
ATOM     12  N   UNL d   1     -41.315-122.669 -52.041  0.00  0.00    -0.275 N 
ATOM     13  C   UNL d   1     -41.136-122.254 -51.388  0.00  0.00     0.083 A 
ATOM     14  C   UNL d   1     -41.506-123.446 -51.996  0.00  0.00     0.083 A 
ATOM     15  C   UNL d   1     -41.146-122.625 -50.651  0.00  0.00     0.019 A 
ATOM     16  C   UNL d   1     -41.336-123.405 -50.588  0.00  0.00     0.003 A 
ATOM     17  C   UNL d   1     -41.516-123.817 -51.261  0.00  0.00     0.019 A 
ATOM     18  O   UNL d   1     -41.128-121.469 -53.061  0.00  0.00    -0.271 OA
ENDBRANCH   1  11
TORSDOF 1
ENDMDL
MODEL 2
REMARK VINA RESULT:      -6.2      1.139      3.757
REMARK  1 active torsions:
REMARK  status: ('A' for Active; 'I' for Inactive)
REMARK    1  A    between atoms: C_2  and  C_1 
REMARK       I    between atoms: N_3  and  C_2 
ROOT
ATOM      1  C   UNL d   1     -41.631-122.851 -50.747  0.00  0.00     0.109 A 
ATOM      2  C   UNL d   1     -41.123-123.337 -50.471  0.00  0.00     0.026 A 
ATOM      3  C   UNL d   1     -42.187-122.747 -50.308  0.00  0.00    -0.014 A 
ATOM      4  C   UNL d   1     -42.363-122.495 -50.548  0.00  0.00    -0.014 A 
ATOM      5  C   UNL d   1     -41.378-123.606 -49.721  0.00  0.00     0.045 A 
ATOM      6  C   UNL d   1     -42.588-122.708 -49.930  0.00  0.00    -0.007 A 
ATOM      7  C   UNL d   1     -42.453-123.022 -49.536  0.00  0.00    -0.007 A 
ATOM      8  C   UNL d   1     -41.957-123.496 -49.267  0.00  0.00    -0.022 A 
ATOM      9  C   UNL d   1     -43.198-122.670 -49.317  0.00  0.00    -0.001 A 
ATOM     10  C   UNL d   1     -41.954-123.333 -49.552  0.00  0.00    -0.022 A 
ENDROOT
BRANCH   1  11
ATOM     11  C   UNL d   1     -41.460-122.484 -51.572  0.00  0.00     0.248 C 
ATOM     12  N   UNL d   1     -41.384-122.751 -52.319  0.00  0.00    -0.275 N 
ATOM     13  C   UNL d   1     -41.229-122.243 -52.911  0.00  0.00     0.083 A 
ATOM     14  C   UNL d   1     -41.466-123.535 -52.460  0.00  0.00     0.083 A 
ATOM     15  C   UNL d   1     -41.151-122.525 -53.682  0.00  0.00     0.019 A 
ATOM     16  C   UNL d   1     -41.231-123.310 -53.842  0.00  0.00     0.003 A 
ATOM     17  C   UNL d   1     -41.388-123.817 -53.231  0.00  0.00     0.019 A 
ATOM     18  O   UNL d   1     -41.413-121.663 -51.165  0.00  0.00    -0.271 OA
ENDBRANCH   1  11
TORSDOF 1
ENDMDL
MODEL 3
REMARK VINA RESULT:      -5.9      0.836      3.449
REMARK  1 active torsions:
REMARK  status: ('A' for Active; 'I' for Inactive)
REMARK    1  A    between atoms: C_2  and  C_1 
REMARK       I    between atoms: N_3  and  C_2 
ROOT
ATOM      1  C   UNL d   1     -41.404-122.748 -52.338  0.00  0.00     0.109 A 
ATOM      2  C   UNL d   1     -41.144-122.052 -52.194  0.00  0.00     0.026 A 
ATOM      3  C   UNL d   1     -41.560-123.117 -51.746  0.00  0.00    -0.014 A 
ATOM      4  C   UNL d   1     -41.675-123.434 -51.942  0.00  0.00    -0.014 A 
ATOM      5  C   UNL d   1     -41.123-121.934 -51.366  0.00  0.00     0.045 A 
ATOM      6  C   UNL d   1     -41.663-123.351 -51.256  0.00  0.00    -0.007 A 
ATOM      7  C   UNL d   1     -41.539-122.998 -50.893  0.00  0.00    -0.007 A 
ATOM      8  C   UNL d   1     -41.286-122.320 -50.752  0.00  0.00    -0.022 A 
ATOM      9  C   UNL d   1     -41.812-123.688 -50.473  0.00  0.00    -0.001 A 
ATOM     10  C   UNL d   1     -41.334-122.467 -51.042  0.00  0.00    -0.022 A 
ENDROOT
BRANCH   1  11
ATOM     11  C   UNL d   1     -41.474-122.997 -53.220  0.00  0.00     0.248 C 
ATOM     12  N   UNL d   1     -41.727-122.663 -53.898  0.00  0.00    -0.275 N 
ATOM     13  C   UNL d   1     -41.699-123.071 -54.579  0.00  0.00     0.083 A 
ATOM     14  C   UNL d   1     -42.006-121.912 -53.878  0.00  0.00     0.083 A 
ATOM     15  C   UNL d   1     -41.962-122.720 -55.278  0.00  0.00     0.019 A 
ATOM     16  C   UNL d   1     -42.246-121.966 -55.276  0.00  0.00     0.003 A 
ATOM     17  C   UNL d   1     -42.269-121.561 -54.575  0.00  0.00     0.019 A 
ATOM     18  O   UNL d   1     -41.123-123.812 -52.987  0.00  0.00    -0.271 OA
ENDBRANCH   1  11
TORSDOF 1
ENDMDL
MODEL 4
REMARK VINA RESULT:      -5.5      1.561      4.293
REMARK  1 active torsions:
REMARK  status: ('A' for Active; 'I' for Inactive)
REMARK    1  A    between atoms: C_2  and  C_1 
REMARK       I    between atoms: N_3  and  C_2 
ROOT
ATOM      1  C   UNL d   1     -42.086-122.777 -50.103  0.00  0.00     0.109 A 
ATOM      2  C   UNL d   1     -42.828-122.911 -50.056  0.00  0.00     0.026 A 
ATOM      3  C   UNL d   1     -41.733-122.940 -49.503  0.00  0.00    -0.014 A 
ATOM      4  C   UNL d   1     -41.387-122.834 -49.646  0.00  0.00    -0.014 A 
ATOM      5  C   UNL d   1     -43.005-123.214 -49.297  0.00  0.00     0.045 A 
ATOM      6  C   UNL d   1     -41.516-123.084 -49.015  0.00  0.00    -0.007 A 
ATOM      7  C   UNL d   1     -41.912-123.253 -48.720  0.00  0.00    -0.007 A 
ATOM      8  C   UNL d   1     -42.636-123.383 -48.674  0.00  0.00    -0.022 A 
ATOM      9  C   UNL d   1     -41.210-123.317 -48.240  0.00  0.00    -0.001 A 
ATOM     10  C   UNL d   1     -42.463-123.264 -48.926  0.00  0.00    -0.022 A 
ENDROOT
BRANCH   1  11
ATOM     11  C   UNL d   1     -41.767-122.439 -50.896  0.00  0.00     0.248 C 
ATOM     12  N   UNL d   1     -41.583-122.728 -51.616  0.00  0.00    -0.275 N 
ATOM     13  C   UNL d   1     -41.312-122.242 -52.184  0.00  0.00     0.083 A 
ATOM     14  C   UNL d   1     -41.675-123.511 -51.754  0.00  0.00     0.083 A 
ATOM     15  C   UNL d   1     -41.123-122.546 -52.927  0.00  0.00     0.019 A 
ATOM     16  C   UNL d   1     -41.209-123.332 -53.082  0.00  0.00     0.003 A 
ATOM     17  C   UNL d   1     -41.486-123.816 -52.496  0.00  0.00     0.019 A 
ATOM     18  O   UNL d   1     -41.751-121.611 -50.503  0.00  0.00    -0.271 OA
ENDBRANCH   1  11
TORSDOF 1
ENDMDL
