MODEL 1
REMARK VINA RESULT:      15.4      0.000      0.000
REMARK  3 active torsions:
REMARK  status: ('A' for Active; 'I' for Inactive)
REMARK    1  A    between atoms: S_6  and  C_1 
REMARK    2  A    between atoms: C_3  and  C_9 
REMARK       I    between atoms: N_4  and  C_3 
REMARK    3  A    between atoms: C_9  and  S_6 
ROOT
ATOM      1  C   UNL d   1      45.493 -15.536  44.525  0.00  0.00     0.114 A 
ATOM      2  C   UNL d   1      45.684 -14.738  44.568  0.00  0.00     0.042 A 
ATOM      3  N   UNL d   1      44.724 -15.782  44.697  0.00  0.00    -0.217 NA
ATOM      4  N   UNL d   1      44.343 -14.426  44.954  0.00  0.00    -0.224 NA
ATOM      5  C   UNL d   1      44.149 -15.227  44.911  0.00  0.00     0.200 A 
ATOM      6  C   UNL d   1      45.109 -14.183  44.782  0.00  0.00     0.085 A 
ATOM      7  C   UNL d   1      46.453 -14.492  44.397  0.00  0.00     0.004 A 
ATOM      8  C   UNL d   1      45.303 -13.383  44.825  0.00  0.00     0.019 A 
ATOM      9  C   UNL d   1      46.646 -13.691  44.439  0.00  0.00     0.000 A 
ATOM     10  C   UNL d   1      46.072 -13.136  44.653  0.00  0.00     0.002 A 
ENDROOT
BRANCH   1  11
ATOM     11  S   UNL d   1      46.067 -16.090  44.312  0.00  0.00    -0.062 SA
BRANCH  11  12
ATOM     12  C   UNL d   1      45.952 -16.886  44.467  0.00  0.00     0.098 C 
BRANCH  12  13
ATOM     13  C   UNL d   1      46.184 -17.458  43.919  0.00  0.00     0.271 C 
ATOM     14  N   UNL d   1      46.321 -18.241  44.165  0.00  0.00    -0.272 N 
ATOM     15  C   UNL d   1      46.250 -18.524  44.924  0.00  0.00     0.083 A 
ATOM     16  C   UNL d   1      46.552 -18.865  43.681  0.00  0.00     0.083 A 
ATOM     17  C   UNL d   1      46.437 -19.330  44.922  0.00  0.00     0.021 A 
ATOM     18  C   UNL d   1      46.623 -19.530  44.143  0.00  0.00     0.021 A 
ATOM     19  O   UNL d   1      46.277 -17.256  43.136  0.00  0.00    -0.266 OA
ENDBRANCH  12  13
ENDBRANCH  11  12
ENDBRANCH   1  11
TORSDOF 3
ENDMDL
MODEL 2
REMARK VINA RESULT:      17.2      1.021      1.658
REMARK  3 active torsions:
REMARK  status: ('A' for Active; 'I' for Inactive)
REMARK    1  A    between atoms: S_6  and  C_1 
REMARK    2  A    between atoms: C_3  and  C_9 
REMARK       I    between atoms: N_4  and  C_3 
REMARK    3  A    between atoms: C_9  and  S_6 
ROOT
ATOM      1  C   UNL d   1      45.741 -15.387  44.278  0.00  0.00     0.114 A 
ATOM      2  C   UNL d   1      45.148 -14.849  44.464  0.00  0.00     0.042 A 
ATOM      3  N   UNL d   1      46.459 -15.116  43.975  0.00  0.00    -0.217 NA
ATOM      4  N   UNL d   1      45.984 -13.768  44.045  0.00  0.00    -0.224 NA
ATOM      5  C   UNL d   1      46.580 -14.306  43.858  0.00  0.00     0.200 A 
ATOM      6  C   UNL d   1      45.270 -14.039  44.347  0.00  0.00     0.085 A 
ATOM      7  C   UNL d   1      44.431 -15.120  44.767  0.00  0.00     0.004 A 
ATOM      8  C   UNL d   1      44.673 -13.501  44.533  0.00  0.00     0.019 A 
ATOM      9  C   UNL d   1      43.834 -14.581  44.954  0.00  0.00     0.000 A 
ATOM     10  C   UNL d   1      43.956 -13.771  44.837  0.00  0.00     0.002 A 
ENDROOT
BRANCH   1  11
ATOM     11  S   UNL d   1      45.620 -16.196  44.395  0.00  0.00    -0.062 SA
BRANCH  11  12
ATOM     12  C   UNL d   1      45.969 -16.743  43.896  0.00  0.00     0.098 C 
BRANCH  12  13
ATOM     13  C   UNL d   1      46.123 -17.511  44.158  0.00  0.00     0.271 C 
ATOM     14  N   UNL d   1      46.275 -18.116  43.608  0.00  0.00    -0.272 N 
ATOM     15  C   UNL d   1      46.291 -18.036  42.799  0.00  0.00     0.083 A 
ATOM     16  C   UNL d   1      46.436 -18.903  43.789  0.00  0.00     0.083 A 
ATOM     17  C   UNL d   1      46.462 -18.774  42.466  0.00  0.00     0.021 A 
ATOM     18  C   UNL d   1      46.550 -19.305  43.091  0.00  0.00     0.021 A 
ATOM     19  O   UNL d   1      46.125 -17.676  44.955  0.00  0.00    -0.266 OA
ENDBRANCH  12  13
ENDBRANCH  11  12
ENDBRANCH   1  11
TORSDOF 3
ENDMDL
