MODEL 1
REMARK VINA RESULT:      -0.7      0.000      0.000
REMARK  1 active torsions:
REMARK  status: ('A' for Active; 'I' for Inactive)
REMARK    1  A    between atoms: C_9  and  C_1 
ROOT
ATOM      1  C   UNL d   1     -41.650-122.982 -51.531  0.00  0.00     0.087 A 
ATOM      2  N   UNL d   1     -41.730-123.556 -52.148  0.00  0.00    -0.191 NA
ATOM      3  C   UNL d   1     -41.475-122.204 -51.712  0.00  0.00     0.036 A 
ATOM      4  C   UNL d   1     -41.621-123.287 -52.961  0.00  0.00     0.369 A 
ATOM      5  N   UNL d   1     -41.441-122.466 -53.092  0.00  0.00    -0.191 NA
ATOM      6  C   UNL d   1     -41.372-121.949 -52.485  0.00  0.00     0.088 A 
ATOM      7  C   UNL d   1     -41.405-121.668 -51.064  0.00  0.00     0.014 A 
ATOM      8  O   UNL d   1     -41.685-123.809 -53.654  0.00  0.00    -0.242 OA
ATOM      9  C   UNL d   1     -41.196-121.152 -52.624  0.00  0.00     0.020 A 
ATOM     10  C   UNL d   1     -41.232-120.884 -51.198  0.00  0.00     0.058 A 
ATOM     11  C   UNL d   1     -41.123-120.615 -52.011  0.00  0.00     0.013 A 
ATOM     12 CL   UNL d   1     -41.164-120.354 -50.529  0.00  0.00    -0.082 Cl
ENDROOT
BRANCH   1  13
ATOM     13  C   UNL d   1     -41.749-123.227 -50.789  0.00  0.00     0.018 A 
ATOM     14  C   UNL d   1     -42.487-123.161 -50.439  0.00  0.00     0.002 A 
ATOM     15  C   UNL d   1     -42.631-123.405 -49.667  0.00  0.00     0.000 A 
ATOM     16  C   UNL d   1     -41.962-123.753 -49.198  0.00  0.00     0.000 A 
ATOM     17  C   UNL d   1     -41.227-123.812 -49.569  0.00  0.00     0.000 A 
ATOM     18  C   UNL d   1     -41.123-123.553 -50.352  0.00  0.00     0.002 A 
ENDBRANCH   1  13
TORSDOF 1
ENDMDL
MODEL 2
REMARK VINA RESULT:       1.5      1.800      3.178
REMARK  1 active torsions:
REMARK  status: ('A' for Active; 'I' for Inactive)
REMARK    1  A    between atoms: C_9  and  C_1 
ROOT
ATOM      1  C   UNL d   1     -41.499-121.615 -52.664  0.00  0.00     0.087 A 
ATOM      2  N   UNL d   1     -41.399-120.797 -52.859  0.00  0.00    -0.191 NA
ATOM      3  C   UNL d   1     -41.446-121.863 -51.887  0.00  0.00     0.036 A 
ATOM      4  C   UNL d   1     -41.241-120.249 -52.212  0.00  0.00     0.369 A 
ATOM      5  N   UNL d   1     -41.196-120.561 -51.421  0.00  0.00    -0.191 NA
ATOM      6  C   UNL d   1     -41.296-121.341 -51.272  0.00  0.00     0.088 A 
ATOM      7  C   UNL d   1     -41.554-122.688 -51.742  0.00  0.00     0.014 A 
ATOM      8  O   UNL d   1     -41.125-119.393 -52.321  0.00  0.00    -0.242 OA
ATOM      9  C   UNL d   1     -41.251-121.634 -50.499  0.00  0.00     0.020 A 
ATOM     10  C   UNL d   1     -41.510-122.979 -50.983  0.00  0.00     0.058 A 
ATOM     11  C   UNL d   1     -41.352-122.430 -50.336  0.00  0.00     0.013 A 
ATOM     12 CL   UNL d   1     -41.621-123.817 -50.853  0.00  0.00    -0.082 Cl
ENDROOT
BRANCH   1  13
ATOM     13  C   UNL d   1     -41.643-122.116 -53.255  0.00  0.00     0.018 A 
ATOM     14  C   UNL d   1     -42.320-122.020 -53.708  0.00  0.00     0.002 A 
ATOM     15  C   UNL d   1     -42.505-122.521 -54.332  0.00  0.00     0.000 A 
ATOM     16  C   UNL d   1     -41.952-123.189 -54.522  0.00  0.00     0.000 A 
ATOM     17  C   UNL d   1     -41.276-123.268 -54.054  0.00  0.00     0.000 A 
ATOM     18  C   UNL d   1     -41.125-122.740 -53.431  0.00  0.00     0.002 A 
ENDBRANCH   1  13
TORSDOF 1
ENDMDL
MODEL 3
REMARK VINA RESULT:       1.5      2.344      3.899
REMARK  1 active torsions:
REMARK  status: ('A' for Active; 'I' for Inactive)
REMARK    1  A    between atoms: C_9  and  C_1 
ROOT
ATOM      1  C   UNL d   1     -43.079-123.261 -49.560  0.00  0.00     0.087 A 
ATOM      2  N   UNL d   1     -43.858-123.382 -49.870  0.00  0.00    -0.191 NA
ATOM      3  C   UNL d   1     -42.922-123.410 -48.772  0.00  0.00     0.036 A 
ATOM      4  C   UNL d   1     -44.465-123.665 -49.325  0.00  0.00     0.369 A 
ATOM      5  N   UNL d   1     -44.245-123.804 -48.515  0.00  0.00    -0.191 NA
ATOM      6  C   UNL d   1     -43.498-123.679 -48.255  0.00  0.00     0.088 A 
ATOM      7  C   UNL d   1     -42.131-123.274 -48.509  0.00  0.00     0.014 A 
ATOM      8  O   UNL d   1     -45.289-123.817 -49.558  0.00  0.00    -0.242 OA
ATOM      9  C   UNL d   1     -43.296-123.817 -47.464  0.00  0.00     0.020 A 
ATOM     10  C   UNL d   1     -41.929-123.409 -47.733  0.00  0.00     0.058 A 
ATOM     11  C   UNL d   1     -42.535-123.692 -47.188  0.00  0.00     0.013 A 
ATOM     12 CL   UNL d   1     -41.123-123.266 -47.483  0.00  0.00    -0.082 Cl
ENDROOT
BRANCH   1  13
ATOM     13  C   UNL d   1     -42.525-123.002 -50.057  0.00  0.00     0.018 A 
ATOM     14  C   UNL d   1     -42.015-123.540 -50.405  0.00  0.00     0.002 A 
ATOM     15  C   UNL d   1     -41.424-123.311 -50.928  0.00  0.00     0.000 A 
ATOM     16  C   UNL d   1     -41.337-122.448 -51.123  0.00  0.00     0.000 A 
ATOM     17  C   UNL d   1     -41.862-121.923 -50.762  0.00  0.00     0.000 A 
ATOM     18  C   UNL d   1     -42.446-122.195 -50.237  0.00  0.00     0.002 A 
ENDBRANCH   1  13
TORSDOF 1
ENDMDL
MODEL 4
REMARK VINA RESULT:       1.9      1.431      2.995
REMARK  1 active torsions:
REMARK  status: ('A' for Active; 'I' for Inactive)
REMARK    1  A    between atoms: C_9  and  C_1 
ROOT
ATOM      1  C   UNL d   1     -41.698-122.295 -52.547  0.00  0.00     0.087 A 
ATOM      2  N   UNL d   1     -41.807-123.047 -52.175  0.00  0.00    -0.191 NA
ATOM      3  C   UNL d   1     -41.508-121.638 -52.100  0.00  0.00     0.036 A 
ATOM      4  C   UNL d   1     -41.711-123.086 -51.318  0.00  0.00     0.369 A 
ATOM      5  N   UNL d   1     -41.513-122.371 -50.902  0.00  0.00    -0.191 NA
ATOM      6  C   UNL d   1     -41.417-121.675 -51.286  0.00  0.00     0.088 A 
ATOM      7  C   UNL d   1     -41.409-120.909 -52.516  0.00  0.00     0.014 A 
ATOM      8  O   UNL d   1     -41.805-123.817 -50.854  0.00  0.00    -0.242 OA
ATOM      9  C   UNL d   1     -41.225-120.985 -50.871  0.00  0.00     0.020 A 
ATOM     10  C   UNL d   1     -41.220-120.229 -52.111  0.00  0.00     0.058 A 
ATOM     11  C   UNL d   1     -41.124-120.269 -51.254  0.00  0.00     0.013 A 
ATOM     12 CL   UNL d   1     -41.123-119.500 -52.547  0.00  0.00    -0.082 Cl
ENDROOT
BRANCH   1  13
ATOM     13  C   UNL d   1     -41.785-122.259 -53.329  0.00  0.00     0.018 A 
ATOM     14  C   UNL d   1     -41.158-122.466 -53.814  0.00  0.00     0.002 A 
ATOM     15  C   UNL d   1     -41.210-122.442 -54.634  0.00  0.00     0.000 A 
ATOM     16  C   UNL d   1     -41.973-122.182 -55.006  0.00  0.00     0.000 A 
ATOM     17  C   UNL d   1     -42.592-121.977 -54.500  0.00  0.00     0.000 A 
ATOM     18  C   UNL d   1     -42.500-122.015 -53.675  0.00  0.00     0.002 A 
ENDBRANCH   1  13
TORSDOF 1
ENDMDL
