MODEL 1
REMARK VINA RESULT:     125.3      0.000      0.000
REMARK  5 active torsions:
REMARK  status: ('A' for Active; 'I' for Inactive)
REMARK    1  A    between atoms: C_10  and  N_2 
REMARK    2  A    between atoms: C_11  and  N_4 
REMARK    3  A    between atoms: C_12  and  C_11 
REMARK       I    between atoms: N_16  and  C_12 
REMARK       I    between atoms: C_15  and  N_17 
REMARK    4  A    between atoms: C_22  and  N_16 
REMARK    5  A    between atoms: N_17  and  C_23 
ROOT
ATOM      1  C   UNL d   1     -51.049  26.678  35.892  0.00  0.00     0.172 A 
ATOM      2  N   UNL d   1     -50.572  27.281  37.108  0.00  0.00    -0.226 N 
ATOM      3  C   UNL d   1     -49.860  27.490  36.704  0.00  0.00     0.342 A 
ATOM      4  N   UNL d   1     -49.761  27.293  35.918  0.00  0.00    -0.252 N 
ATOM      5  C   UNL d   1     -50.348  26.890  35.512  0.00  0.00     0.098 A 
ATOM      6  C   UNL d   1     -51.157  26.876  36.693  0.00  0.00     0.292 A 
ATOM      7  O   UNL d   1     -51.533  26.284  35.362  0.00  0.00    -0.301 OA
ATOM      8  C   UNL d   1     -50.423  26.615  34.743  0.00  0.00     0.041 A 
ATOM      9  C   UNL d   1     -51.150  26.249  34.667  0.00  0.00     0.102 A 
ATOM     10  O   UNL d   1     -49.252  27.904  37.111  0.00  0.00    -0.245 OA
ATOM     11  O   UNL d   1     -51.866  26.662  37.081  0.00  0.00    -0.264 OA
ATOM     12  C   UNL d   1     -49.905  26.658  34.093  0.00  0.00     0.004 A 
ATOM     13  C   UNL d   1     -51.374  25.917  33.940  0.00  0.00     0.025 A 
ATOM     14  C   UNL d   1     -50.129  26.326  33.366  0.00  0.00     0.000 A 
ATOM     15  C   UNL d   1     -50.859  25.963  33.306  0.00  0.00     0.002 A 
ENDROOT
BRANCH   4  16
ATOM     16  C   UNL d   1     -49.050  27.503  35.515  0.00  0.00     0.147 C 
BRANCH  16  17
ATOM     17  C   UNL d   1     -48.834  28.322  35.458  0.00  0.00     0.297 C 
ATOM     18  N   UNL d   1     -48.063  28.543  35.577  0.00  0.00    -0.207 NA
ATOM     19  O   UNL d   1     -49.416  28.878  35.281  0.00  0.00    -0.264 OA
BRANCH  18  20
ATOM     20  C   UNL d   1     -47.858  29.327  35.522  0.00  0.00     0.085 A 
ATOM     21  C   UNL d   1     -48.125  29.792  34.895  0.00  0.00     0.021 A 
ATOM     22  C   UNL d   1     -47.916  30.582  34.843  0.00  0.00     0.021 A 
ATOM     23  C   UNL d   1     -47.432  30.921  35.424  0.00  0.00     0.085 A 
ATOM     24  C   UNL d   1     -47.158  30.459  36.061  0.00  0.00     0.021 A 
ATOM     25  C   UNL d   1     -47.371  29.661  36.110  0.00  0.00     0.021 A 
BRANCH  23  26
ATOM     26  N   UNL d   1     -47.219  31.719  35.375  0.00  0.00    -0.208 NA
ATOM     27  C   UNL d   1     -47.459  32.171  34.718  0.00  0.00     0.279 C 
ATOM     28  O   UNL d   1     -47.251  32.943  34.674  0.00  0.00    -0.265 OA
ATOM     29  C   UNL d   1     -47.917  31.801  34.115  0.00  0.00     0.068 C 
ENDBRANCH  23  26
ENDBRANCH  18  20
ENDBRANCH  16  17
ENDBRANCH   4  16
BRANCH   2  30
ATOM     30  C   UNL d   1     -50.688  27.475  37.908  0.00  0.00     0.071 A 
ATOM     31  C   UNL d   1     -50.795  26.886  38.466  0.00  0.00     0.020 A 
ATOM     32  C   UNL d   1     -50.909  27.069  39.253  0.00  0.00     0.031 A 
ATOM     33  C   UNL d   1     -50.917  27.859  39.487  0.00  0.00     0.140 A 
ATOM     34  C   UNL d   1     -50.813  28.451  38.946  0.00  0.00     0.031 A 
ATOM     35  F   UNL d   1     -51.034  28.045  40.291  0.00  0.00    -0.204 F 
ATOM     36  C   UNL d   1     -50.696  28.264  38.143  0.00  0.00     0.020 A 
ENDBRANCH   2  30
TORSDOF 5
ENDMDL
MODEL 2
REMARK VINA RESULT:     125.9      1.971      5.461
REMARK  5 active torsions:
REMARK  status: ('A' for Active; 'I' for Inactive)
REMARK    1  A    between atoms: C_10  and  N_2 
REMARK    2  A    between atoms: C_11  and  N_4 
REMARK    3  A    between atoms: C_12  and  C_11 
REMARK       I    between atoms: N_16  and  C_12 
REMARK       I    between atoms: C_15  and  N_17 
REMARK    4  A    between atoms: C_22  and  N_16 
REMARK    5  A    between atoms: N_17  and  C_23 
ROOT
ATOM      1  C   UNL d   1     -48.759  28.066  34.671  0.00  0.00     0.172 A 
ATOM      2  N   UNL d   1     -49.814  27.092  34.758  0.00  0.00    -0.226 N 
ATOM      3  C   UNL d   1     -49.880  27.264  35.582  0.00  0.00     0.342 A 
ATOM      4  N   UNL d   1     -49.393  27.822  35.926  0.00  0.00    -0.252 N 
ATOM      5  C   UNL d   1     -48.836  28.222  35.477  0.00  0.00     0.098 A 
ATOM      6  C   UNL d   1     -49.251  27.499  34.314  0.00  0.00     0.292 A 
ATOM      7  O   UNL d   1     -48.166  28.539  34.362  0.00  0.00    -0.301 OA
ATOM      8  C   UNL d   1     -48.277  28.798  35.645  0.00  0.00     0.041 A 
ATOM      9  C   UNL d   1     -47.877  28.981  34.956  0.00  0.00     0.102 A 
ATOM     10  O   UNL d   1     -50.449  26.859  36.051  0.00  0.00    -0.245 OA
ATOM     11  O   UNL d   1     -49.175  27.339  33.497  0.00  0.00    -0.264 OA
ATOM     12  C   UNL d   1     -48.084  29.183  36.357  0.00  0.00     0.004 A 
ATOM     13  C   UNL d   1     -47.275  29.553  34.964  0.00  0.00     0.025 A 
ATOM     14  C   UNL d   1     -47.482  29.755  36.365  0.00  0.00     0.000 A 
ATOM     15  C   UNL d   1     -47.091  29.927  35.668  0.00  0.00     0.002 A 
ENDROOT
BRANCH   4  16
ATOM     16  C   UNL d   1     -49.460  27.992  36.750  0.00  0.00     0.147 C 
BRANCH  16  17
ATOM     17  C   UNL d   1     -49.886  27.454  37.250  0.00  0.00     0.297 C 
ATOM     18  N   UNL d   1     -50.613  27.665  37.539  0.00  0.00    -0.207 NA
ATOM     19  O   UNL d   1     -49.547  26.724  37.432  0.00  0.00    -0.264 OA
BRANCH  18  20
ATOM     20  C   UNL d   1     -51.019  27.149  38.017  0.00  0.00     0.085 A 
ATOM     21  C   UNL d   1     -51.505  26.565  37.695  0.00  0.00     0.021 A 
ATOM     22  C   UNL d   1     -51.912  26.046  38.181  0.00  0.00     0.021 A 
ATOM     23  C   UNL d   1     -51.838  26.106  39.004  0.00  0.00     0.085 A 
ATOM     24  C   UNL d   1     -51.349  26.692  39.338  0.00  0.00     0.021 A 
ATOM     25  C   UNL d   1     -50.940  27.214  38.844  0.00  0.00     0.021 A 
BRANCH  23  26
ATOM     26  N   UNL d   1     -52.247  25.584  39.498  0.00  0.00    -0.208 NA
ATOM     27  C   UNL d   1     -52.745  25.005  39.165  0.00  0.00     0.279 C 
ATOM     28  O   UNL d   1     -53.140  24.501  39.646  0.00  0.00    -0.265 OA
ATOM     29  C   UNL d   1     -52.819  24.965  38.327  0.00  0.00     0.068 C 
ENDBRANCH  23  26
ENDBRANCH  18  20
ENDBRANCH  16  17
ENDBRANCH   4  16
BRANCH   2  30
ATOM     30  C   UNL d   1     -50.302  26.527  34.393  0.00  0.00     0.071 A 
ATOM     31  C   UNL d   1     -49.979  25.856  34.054  0.00  0.00     0.020 A 
ATOM     32  C   UNL d   1     -50.451  25.297  33.694  0.00  0.00     0.031 A 
ATOM     33  C   UNL d   1     -51.267  25.411  33.673  0.00  0.00     0.140 A 
ATOM     34  C   UNL d   1     -51.601  26.070  34.004  0.00  0.00     0.031 A 
ATOM     35  F   UNL d   1     -51.750  24.840  33.306  0.00  0.00    -0.204 F 
ATOM     36  C   UNL d   1     -51.118  26.641  34.371  0.00  0.00     0.020 A 
ENDBRANCH   2  30
TORSDOF 5
ENDMDL
MODEL 3
REMARK VINA RESULT:     126.3      1.481      4.755
REMARK  5 active torsions:
REMARK  status: ('A' for Active; 'I' for Inactive)
REMARK    1  A    between atoms: C_10  and  N_2 
REMARK    2  A    between atoms: C_11  and  N_4 
REMARK    3  A    between atoms: C_12  and  C_11 
REMARK       I    between atoms: N_16  and  C_12 
REMARK       I    between atoms: C_15  and  N_17 
REMARK    4  A    between atoms: C_22  and  N_16 
REMARK    5  A    between atoms: N_17  and  C_23 
ROOT
ATOM      1  C   UNL d   1     -48.684  29.008  36.769  0.00  0.00     0.172 A 
ATOM      2  N   UNL d   1     -49.704  28.076  37.168  0.00  0.00    -0.226 N 
ATOM      3  C   UNL d   1     -49.677  27.741  36.393  0.00  0.00     0.342 A 
ATOM      4  N   UNL d   1     -49.164  28.042  35.834  0.00  0.00    -0.252 N 
ATOM      5  C   UNL d   1     -48.670  28.670  36.017  0.00  0.00     0.098 A 
ATOM      6  C   UNL d   1     -49.205  28.706  37.344  0.00  0.00     0.292 A 
ATOM      7  O   UNL d   1     -48.140  29.619  36.799  0.00  0.00    -0.301 OA
ATOM      8  C   UNL d   1     -48.106  29.092  35.597  0.00  0.00     0.041 A 
ATOM      9  C   UNL d   1     -47.792  29.667  36.087  0.00  0.00     0.102 A 
ATOM     10  O   UNL d   1     -50.180  27.097  36.195  0.00  0.00    -0.245 OA
ATOM     11  O   UNL d   1     -49.221  29.047  38.107  0.00  0.00    -0.264 OA
ATOM     12  C   UNL d   1     -47.837  29.018  34.812  0.00  0.00     0.004 A 
ATOM     13  C   UNL d   1     -47.204  30.179  35.803  0.00  0.00     0.025 A 
ATOM     14  C   UNL d   1     -47.249  29.530  34.529  0.00  0.00     0.000 A 
ATOM     15  C   UNL d   1     -46.945  30.099  35.031  0.00  0.00     0.002 A 
ENDROOT
BRANCH   4  16
ATOM     16  C   UNL d   1     -49.137  27.707  35.060  0.00  0.00     0.147 C 
BRANCH  16  17
ATOM     17  C   UNL d   1     -49.684  27.091  34.857  0.00  0.00     0.297 C 
ATOM     18  N   UNL d   1     -49.784  26.883  34.079  0.00  0.00    -0.207 NA
ATOM     19  O   UNL d   1     -50.106  26.716  35.458  0.00  0.00    -0.264 OA
BRANCH  18  20
ATOM     20  C   UNL d   1     -50.308  26.293  33.887  0.00  0.00     0.085 A 
ATOM     21  C   UNL d   1     -50.054  25.610  33.500  0.00  0.00     0.021 A 
ATOM     22  C   UNL d   1     -50.586  25.017  33.308  0.00  0.00     0.021 A 
ATOM     23  C   UNL d   1     -51.387  25.101  33.502  0.00  0.00     0.085 A 
ATOM     24  C   UNL d   1     -51.652  25.788  33.893  0.00  0.00     0.021 A 
ATOM     25  C   UNL d   1     -51.112  26.384  34.086  0.00  0.00     0.021 A 
BRANCH  23  26
ATOM     26  N   UNL d   1     -51.927  24.505  33.310  0.00  0.00    -0.208 NA
ATOM     27  C   UNL d   1     -51.874  23.763  33.683  0.00  0.00     0.279 C 
ATOM     28  O   UNL d   1     -52.398  23.188  33.495  0.00  0.00    -0.265 OA
ATOM     29  C   UNL d   1     -51.266  23.637  34.252  0.00  0.00     0.068 C 
ENDBRANCH  23  26
ENDBRANCH  18  20
ENDBRANCH  16  17
ENDBRANCH   4  16
BRANCH   2  30
ATOM     30  C   UNL d   1     -50.222  27.780  37.748  0.00  0.00     0.071 A 
ATOM     31  C   UNL d   1     -49.979  27.188  38.257  0.00  0.00     0.020 A 
ATOM     32  C   UNL d   1     -50.482  26.893  38.829  0.00  0.00     0.031 A 
ATOM     33  C   UNL d   1     -51.244  27.199  38.893  0.00  0.00     0.140 A 
ATOM     34  C   UNL d   1     -51.497  27.785  38.396  0.00  0.00     0.031 A 
ATOM     35  F   UNL d   1     -51.757  26.898  39.477  0.00  0.00    -0.204 F 
ATOM     36  C   UNL d   1     -50.984  28.086  37.813  0.00  0.00     0.020 A 
ENDBRANCH   2  30
TORSDOF 5
ENDMDL
MODEL 4
REMARK VINA RESULT:     128.1      2.699      5.784
REMARK  5 active torsions:
REMARK  status: ('A' for Active; 'I' for Inactive)
REMARK    1  A    between atoms: C_10  and  N_2 
REMARK    2  A    between atoms: C_11  and  N_4 
REMARK    3  A    between atoms: C_12  and  C_11 
REMARK       I    between atoms: N_16  and  C_12 
REMARK       I    between atoms: C_15  and  N_17 
REMARK    4  A    between atoms: C_22  and  N_16 
REMARK    5  A    between atoms: N_17  and  C_23 
ROOT
ATOM      1  C   UNL d   1     -46.840  30.818  36.467  0.00  0.00     0.172 A 
ATOM      2  N   UNL d   1     -47.483  31.223  35.246  0.00  0.00    -0.226 N 
ATOM      3  C   UNL d   1     -47.513  30.412  35.013  0.00  0.00     0.342 A 
ATOM      4  N   UNL d   1     -47.212  29.833  35.503  0.00  0.00    -0.252 N 
ATOM      5  C   UNL d   1     -46.877  30.030  36.225  0.00  0.00     0.098 A 
ATOM      6  C   UNL d   1     -47.145  31.413  35.972  0.00  0.00     0.292 A 
ATOM      7  O   UNL d   1     -46.482  30.857  37.203  0.00  0.00    -0.301 OA
ATOM      8  C   UNL d   1     -46.534  29.598  36.831  0.00  0.00     0.041 A 
ATOM      9  C   UNL d   1     -46.298  30.114  37.420  0.00  0.00     0.102 A 
ATOM     10  O   UNL d   1     -47.854  30.198  34.275  0.00  0.00    -0.245 OA
ATOM     11  O   UNL d   1     -47.109  32.213  36.216  0.00  0.00    -0.264 OA
ATOM     12  C   UNL d   1     -46.407  28.779  36.917  0.00  0.00     0.004 A 
ATOM     13  C   UNL d   1     -45.931  29.824  38.105  0.00  0.00     0.025 A 
ATOM     14  C   UNL d   1     -46.039  28.489  37.602  0.00  0.00     0.000 A 
ATOM     15  C   UNL d   1     -45.810  29.019  38.181  0.00  0.00     0.002 A 
ENDROOT
BRANCH   4  16
ATOM     16  C   UNL d   1     -47.242  29.022  35.270  0.00  0.00     0.147 C 
BRANCH  16  17
ATOM     17  C   UNL d   1     -47.979  28.696  35.004  0.00  0.00     0.297 C 
ATOM     18  N   UNL d   1     -47.998  28.242  34.333  0.00  0.00    -0.207 NA
ATOM     19  O   UNL d   1     -48.664  28.850  35.437  0.00  0.00    -0.264 OA
BRANCH  18  20
ATOM     20  C   UNL d   1     -48.704  27.931  34.079  0.00  0.00     0.085 A 
ATOM     21  C   UNL d   1     -49.361  28.414  33.959  0.00  0.00     0.021 A 
ATOM     22  C   UNL d   1     -50.072  28.097  33.703  0.00  0.00     0.021 A 
ATOM     23  C   UNL d   1     -50.134  27.283  33.564  0.00  0.00     0.085 A 
ATOM     24  C   UNL d   1     -49.476  26.787  33.683  0.00  0.00     0.021 A 
ATOM     25  C   UNL d   1     -48.760  27.111  33.941  0.00  0.00     0.021 A 
BRANCH  23  26
ATOM     26  N   UNL d   1     -50.850  26.959  33.306  0.00  0.00    -0.208 NA
ATOM     27  C   UNL d   1     -51.421  26.720  33.863  0.00  0.00     0.279 C 
ATOM     28  O   UNL d   1     -52.112  26.406  33.610  0.00  0.00    -0.265 OA
ATOM     29  C   UNL d   1     -51.253  26.816  34.683  0.00  0.00     0.068 C 
ENDBRANCH  23  26
ENDBRANCH  18  20
ENDBRANCH  16  17
ENDBRANCH   4  16
BRANCH   2  30
ATOM     30  C   UNL d   1     -47.786  31.824  34.757  0.00  0.00     0.071 A 
ATOM     31  C   UNL d   1     -48.592  31.948  34.704  0.00  0.00     0.020 A 
ATOM     32  C   UNL d   1     -48.897  32.536  34.227  0.00  0.00     0.031 A 
ATOM     33  C   UNL d   1     -48.382  33.011  33.794  0.00  0.00     0.140 A 
ATOM     34  C   UNL d   1     -47.582  32.900  33.837  0.00  0.00     0.031 A 
ATOM     35  F   UNL d   1     -48.693  33.612  33.307  0.00  0.00    -0.204 F 
ATOM     36  C   UNL d   1     -47.271  32.300  34.324  0.00  0.00     0.020 A 
ENDBRANCH   2  30
TORSDOF 5
ENDMDL
