MODEL 1
REMARK VINA RESULT:      24.3      0.000      0.000
REMARK  3 active torsions:
REMARK  status: ('A' for Active; 'I' for Inactive)
REMARK    1  A    between atoms: C_4  and  C_1 
REMARK       I    between atoms: N_8  and  C_4 
REMARK    2  A    between atoms: C_15  and  C_11 
REMARK    3  A    between atoms: C_12  and  C_15 
ROOT
ATOM      1  C   UNL d   1     -51.540  24.691  33.330  0.00  0.00     0.120 A 
ATOM      2  C   UNL d   1     -50.712  24.714  33.317  0.00  0.00     0.305 A 
ATOM      3  O   UNL d   1     -50.315  25.452  33.317  0.00  0.00    -0.273 OA
ATOM      4  C   UNL d   1     -51.985  25.402  33.341  0.00  0.00     0.012 A 
ATOM      5  C   UNL d   1     -50.745  26.151  33.328  0.00  0.00     0.103 A 
ATOM      6  C   UNL d   1     -51.583  26.127  33.340  0.00  0.00     0.023 A 
ATOM      7  O   UNL d   1     -50.276  24.015  33.306  0.00  0.00    -0.259 OA
ATOM      8  C   UNL d   1     -50.361  26.889  33.327  0.00  0.00     0.023 A 
ATOM      9  C   UNL d   1     -52.018  26.835  33.352  0.00  0.00     0.002 A 
ATOM     10  C   UNL d   1     -51.621  27.561  33.351  0.00  0.00     0.000 A 
ATOM     11  C   UNL d   1     -50.797  27.588  33.338  0.00  0.00     0.002 A 
ENDROOT
BRANCH   1  12
ATOM     12  C   UNL d   1     -51.930  23.966  33.331  0.00  0.00     0.270 C 
ATOM     13  N   UNL d   1     -52.753  23.935  33.321  0.00  0.00    -0.269 N 
ATOM     14  C   UNL d   1     -53.143  23.209  33.322  0.00  0.00     0.102 C 
ATOM     15  C   UNL d   1     -53.185  24.637  33.310  0.00  0.00     0.102 C 
ATOM     16  O   UNL d   1     -51.498  23.264  33.342  0.00  0.00    -0.266 OA
ENDBRANCH   1  12
BRANCH   8  17
ATOM     17  C   UNL d   1     -49.537  26.916  33.315  0.00  0.00     0.002 C 
BRANCH  17  18
ATOM     18  C   UNL d   1     -49.137  27.505  33.729  0.00  0.00     0.000 C 
ATOM     19  C   UNL d   1     -48.423  27.334  34.103  0.00  0.00     0.000 C 
ENDBRANCH  17  18
ENDBRANCH   8  17
TORSDOF 3
ENDMDL
MODEL 2
REMARK VINA RESULT:      25.5      1.233      2.110
REMARK  3 active torsions:
REMARK  status: ('A' for Active; 'I' for Inactive)
REMARK    1  A    between atoms: C_4  and  C_1 
REMARK       I    between atoms: N_8  and  C_4 
REMARK    2  A    between atoms: C_15  and  C_11 
REMARK    3  A    between atoms: C_12  and  C_15 
ROOT
ATOM      1  C   UNL d   1     -52.650  24.779  33.350  0.00  0.00     0.120 A 
ATOM      2  C   UNL d   1     -52.403  25.570  33.345  0.00  0.00     0.305 A 
ATOM      3  O   UNL d   1     -51.585  25.752  33.334  0.00  0.00    -0.273 OA
ATOM      4  C   UNL d   1     -52.086  24.158  33.344  0.00  0.00     0.012 A 
ATOM      5  C   UNL d   1     -51.029  25.148  33.328  0.00  0.00     0.103 A 
ATOM      6  C   UNL d   1     -51.279  24.348  33.333  0.00  0.00     0.023 A 
ATOM      7  O   UNL d   1     -52.958  26.179  33.350  0.00  0.00    -0.259 OA
ATOM      8  C   UNL d   1     -50.215  25.318  33.317  0.00  0.00     0.023 A 
ATOM      9  C   UNL d   1     -50.716  23.738  33.328  0.00  0.00     0.002 A 
ATOM     10  C   UNL d   1     -49.909  23.923  33.317  0.00  0.00     0.000 A 
ATOM     11  C   UNL d   1     -49.660  24.709  33.312  0.00  0.00     0.002 A 
ENDROOT
BRANCH   1  12
ATOM     12  C   UNL d   1     -53.453  24.600  33.360  0.00  0.00     0.270 C 
ATOM     13  N   UNL d   1     -53.706  23.819  33.425  0.00  0.00    -0.269 N 
ATOM     14  C   UNL d   1     -54.510  23.640  33.436  0.00  0.00     0.102 C 
ATOM     15  C   UNL d   1     -53.147  23.215  33.479  0.00  0.00     0.102 C 
ATOM     16  O   UNL d   1     -54.011  25.204  33.306  0.00  0.00    -0.266 OA
ENDBRANCH   1  12
BRANCH   8  17
ATOM     17  C   UNL d   1     -49.966  26.104  33.312  0.00  0.00     0.002 C 
BRANCH  17  18
ATOM     18  C   UNL d   1     -49.173  26.287  33.443  0.00  0.00     0.000 C 
ATOM     19  C   UNL d   1     -48.970  26.966  33.863  0.00  0.00     0.000 C 
ENDBRANCH  17  18
ENDBRANCH   8  17
TORSDOF 3
ENDMDL
