MODEL 1
REMARK VINA RESULT:      26.1      0.000      0.000
REMARK  4 active torsions:
REMARK  status: ('A' for Active; 'I' for Inactive)
REMARK       I    between atoms: C_4  and  N_1 
REMARK    1  A    between atoms: C_7  and  C_3 
REMARK    2  A    between atoms: C_8  and  C_4 
REMARK    3  A    between atoms: C_10  and  C_5 
REMARK    4  A    between atoms: O_23  and  C_18 
ROOT
ATOM      1  N   UNL d   1      45.954 -17.841  43.885  0.00  0.00    -0.194 N 
ATOM      2  N   UNL d   1      45.895 -17.181  44.364  0.00  0.00    -0.163 NA
ATOM      3  C   UNL d   1      45.977 -17.587  43.098  0.00  0.00     0.091 A 
ATOM      4  C   UNL d   1      45.987 -18.649  44.141  0.00  0.00     0.286 C 
ATOM      5  C   UNL d   1      45.882 -16.518  43.872  0.00  0.00     0.103 A 
ATOM      6  C   UNL d   1      45.932 -16.771  43.104  0.00  0.00     0.040 A 
ATOM      7  O   UNL d   1      45.957 -18.810  44.954  0.00  0.00    -0.265 OA
ENDROOT
BRANCH   5   8
ATOM      8  C   UNL d   1      45.827 -15.735  44.127  0.00  0.00     0.019 A 
ATOM      9  C   UNL d   1      46.471 -15.224  44.055  0.00  0.00     0.004 A 
ATOM     10  C   UNL d   1      46.416 -14.441  44.310  0.00  0.00     0.024 A 
ATOM     11  C   UNL d   1      45.708 -14.166  44.641  0.00  0.00     0.094 A 
ATOM     12  C   UNL d   1      45.061 -14.676  44.714  0.00  0.00     0.024 A 
ATOM     13  C   UNL d   1      45.120 -15.460  44.458  0.00  0.00     0.004 A 
BRANCH  11  14
ATOM     14  O   UNL d   1      45.649 -13.382  44.897  0.00  0.00    -0.328 OA
ATOM     15  C   UNL d   1      45.281 -12.816  44.420  0.00  0.00     0.181 C 
ENDBRANCH  11  14
ENDBRANCH   5   8
BRANCH   3  16
ATOM     16  C   UNL d   1      46.036 -18.086  42.435  0.00  0.00     0.057 A 
ATOM     17  C   UNL d   1      45.522 -17.973  41.813  0.00  0.00     0.197 A 
ATOM     18  O   UNL d   1      44.962 -17.389  41.831  0.00  0.00    -0.286 OA
ATOM     19  C   UNL d   1      45.578 -18.471  41.145  0.00  0.00     0.042 A 
ATOM     20  C   UNL d   1      46.144 -19.075  41.107  0.00  0.00     0.003 A 
ATOM     21  C   UNL d   1      46.645 -19.161  41.750  0.00  0.00     0.000 A 
ATOM     22  C   UNL d   1      46.595 -18.685  42.392  0.00  0.00     0.005 A 
ENDBRANCH   3  16
BRANCH   4  23
ATOM     23  C   UNL d   1      46.045 -19.247  43.602  0.00  0.00     0.087 A 
ATOM     24  S   UNL d   1      46.646 -19.769  43.563  0.00  0.00    -0.082 SA
ATOM     25  C   UNL d   1      46.485 -20.294  42.923  0.00  0.00     0.036 A 
ATOM     26  C   UNL d   1      45.762 -20.062  42.583  0.00  0.00     0.008 A 
ATOM     27  C   UNL d   1      45.491 -19.411  43.007  0.00  0.00     0.012 A 
ENDBRANCH   4  23
TORSDOF 4
ENDMDL
MODEL 2
REMARK VINA RESULT:      26.9      0.802      1.839
REMARK  4 active torsions:
REMARK  status: ('A' for Active; 'I' for Inactive)
REMARK       I    between atoms: C_4  and  N_1 
REMARK    1  A    between atoms: C_7  and  C_3 
REMARK    2  A    between atoms: C_8  and  C_4 
REMARK    3  A    between atoms: C_10  and  C_5 
REMARK    4  A    between atoms: O_23  and  C_18 
ROOT
ATOM      1  N   UNL d   1      45.738 -17.659  42.702  0.00  0.00    -0.194 N 
ATOM      2  N   UNL d   1      45.574 -16.863  42.800  0.00  0.00    -0.163 NA
ATOM      3  C   UNL d   1      45.987 -17.962  43.429  0.00  0.00     0.091 A 
ATOM      4  C   UNL d   1      45.667 -18.103  41.983  0.00  0.00     0.286 C 
ATOM      5  C   UNL d   1      45.722 -16.676  43.590  0.00  0.00     0.103 A 
ATOM      6  C   UNL d   1      45.973 -17.348  43.968  0.00  0.00     0.040 A 
ATOM      7  O   UNL d   1      45.408 -17.714  41.298  0.00  0.00    -0.265 OA
ENDROOT
BRANCH   5   8
ATOM      8  C   UNL d   1      45.628 -15.929  43.930  0.00  0.00     0.019 A 
ATOM      9  C   UNL d   1      44.912 -15.526  43.864  0.00  0.00     0.004 A 
ATOM     10  C   UNL d   1      44.818 -14.779  44.203  0.00  0.00     0.024 A 
ATOM     11  C   UNL d   1      45.449 -14.433  44.613  0.00  0.00     0.094 A 
ATOM     12  C   UNL d   1      46.169 -14.835  44.680  0.00  0.00     0.024 A 
ATOM     13  C   UNL d   1      46.259 -15.583  44.339  0.00  0.00     0.004 A 
BRANCH  11  14
ATOM     14  O   UNL d   1      45.359 -13.685  44.954  0.00  0.00    -0.328 OA
ATOM     15  C   UNL d   1      45.853 -13.062  44.725  0.00  0.00     0.181 C 
ENDBRANCH  11  14
ENDBRANCH   5   8
BRANCH   3  16
ATOM     16  C   UNL d   1      46.208 -18.752  43.569  0.00  0.00     0.057 A 
ATOM     17  C   UNL d   1      46.203 -19.030  44.335  0.00  0.00     0.197 A 
ATOM     18  O   UNL d   1      45.989 -18.555  44.954  0.00  0.00    -0.286 OA
ATOM     19  C   UNL d   1      46.424 -19.823  44.480  0.00  0.00     0.042 A 
ATOM     20  C   UNL d   1      46.647 -20.326  43.859  0.00  0.00     0.003 A 
ATOM     21  C   UNL d   1      46.640 -20.014  43.102  0.00  0.00     0.000 A 
ATOM     22  C   UNL d   1      46.429 -19.254  42.959  0.00  0.00     0.005 A 
ENDBRANCH   3  16
BRANCH   4  23
ATOM     23  C   UNL d   1      45.850 -18.889  41.968  0.00  0.00     0.087 A 
ATOM     24  S   UNL d   1      46.534 -19.194  41.694  0.00  0.00    -0.082 SA
ATOM     25  C   UNL d   1      46.491 -20.032  41.782  0.00  0.00     0.036 A 
ATOM     26  C   UNL d   1      45.753 -20.212  42.121  0.00  0.00     0.008 A 
ATOM     27  C   UNL d   1      45.356 -19.501  42.235  0.00  0.00     0.012 A 
ENDBRANCH   4  23
TORSDOF 4
ENDMDL
