MODEL 1
REMARK VINA RESULT:      41.0      0.000      0.000
REMARK  5 active torsions:
REMARK  status: ('A' for Active; 'I' for Inactive)
REMARK    1  A    between atoms: C_4  and  C_1 
REMARK    2  A    between atoms: C_10  and  C_2 
REMARK    3  A    between atoms: C_8  and  C_4 
REMARK    4  A    between atoms: C_9  and  C_4 
REMARK    5  A    between atoms: N_5  and  C_9 
ROOT
ATOM      1  C   UNL d   1      46.143 -18.692  42.478  0.00  0.00     0.023 A 
ATOM      2  C   UNL d   1      46.084 -17.862  42.428  0.00  0.00     0.081 A 
ATOM      3  N   UNL d   1      46.218 -17.644  41.651  0.00  0.00    -0.246 NA
ATOM      4  C   UNL d   1      46.313 -18.979  41.724  0.00  0.00     0.019 A 
ATOM      5  C   UNL d   1      46.362 -18.334  41.206  0.00  0.00     0.081 A 
ATOM      6  C   UNL d   1      46.432 -19.743  41.438  0.00  0.00     0.002 A 
ATOM      7  C   UNL d   1      46.527 -18.446  40.411  0.00  0.00     0.019 A 
ATOM      8  C   UNL d   1      46.598 -19.858  40.638  0.00  0.00     0.000 A 
ATOM      9  C   UNL d   1      46.645 -19.222  40.128  0.00  0.00     0.002 A 
ENDROOT
BRANCH   1  10
ATOM     10  C   UNL d   1      46.047 -19.153  43.161  0.00  0.00     0.048 C 
BRANCH  10  11
ATOM     11  C   UNL d   1      45.369 -19.599  43.269  0.00  0.00     0.102 A 
ATOM     12  O   UNL d   1      44.818 -19.808  42.684  0.00  0.00    -0.305 OA
ATOM     13  C   UNL d   1      44.232 -20.254  43.042  0.00  0.00     0.123 A 
ATOM     14  C   UNL d   1      44.412 -20.329  43.856  0.00  0.00     0.029 A 
ATOM     15  C   UNL d   1      45.109 -19.924  43.982  0.00  0.00     0.027 A 
ENDBRANCH  10  11
BRANCH  10  16
ATOM     16  C   UNL d   1      46.646 -19.157  43.736  0.00  0.00     0.150 C 
BRANCH  16  17
ATOM     17  N   UNL d   1      46.445 -19.261  44.530  0.00  0.00    -0.112 N 
ATOM     18  O   UNL d   1      46.063 -18.663  44.954  0.00  0.00    -0.532 OA
ATOM     19  O   UNL d   1      46.626 -19.980  44.926  0.00  0.00    -0.532 OA
ENDBRANCH  16  17
ENDBRANCH  10  16
ENDBRANCH   1  10
BRANCH   2  20
ATOM     20  C   UNL d   1      45.920 -17.351  43.055  0.00  0.00     0.018 A 
ATOM     21  C   UNL d   1      46.539 -17.041  43.517  0.00  0.00     0.002 A 
ATOM     22  C   UNL d   1      46.379 -16.530  44.145  0.00  0.00     0.000 A 
ATOM     23  C   UNL d   1      45.597 -16.322  44.318  0.00  0.00     0.000 A 
ATOM     24  C   UNL d   1      44.973 -16.628  43.861  0.00  0.00     0.000 A 
ATOM     25  C   UNL d   1      45.437 -15.814  44.942  0.00  0.00     0.000 C 
ATOM     26  C   UNL d   1      45.143 -17.143  43.229  0.00  0.00     0.002 A 
ENDBRANCH   2  20
TORSDOF 5
ENDMDL
