MODEL 1
REMARK VINA RESULT:      34.4      0.000      0.000
REMARK  3 active torsions:
REMARK  status: ('A' for Active; 'I' for Inactive)
REMARK    1  A    between atoms: C_8  and  N_1 
REMARK    2  A    between atoms: N_10  and  C_5 
REMARK    3  A    between atoms: C_15  and  N_10 
ROOT
ATOM      1  N   UNL d   1      14.823  14.496  -1.520  0.00  0.00    -0.212 N 
ATOM      2  C   UNL d   1      14.842  13.793  -1.088  0.00  0.00     0.170 A 
ATOM      3  C   UNL d   1      14.597  13.182  -1.586  0.00  0.00     0.093 A 
ATOM      4  N   UNL d   1      14.565  14.318  -2.288  0.00  0.00    -0.162 NA
ATOM      5  C   UNL d   1      14.560  12.403  -1.301  0.00  0.00     0.169 A 
ATOM      6  C   UNL d   1      14.427  13.503  -2.322  0.00  0.00     0.127 A 
ATOM      7  N   UNL d   1      15.053  13.636  -0.301  0.00  0.00    -0.205 NA
ATOM      8  N   UNL d   1      14.771  12.247  -0.514  0.00  0.00    -0.205 NA
ATOM      9  C   UNL d   1      15.015  12.862  -0.022  0.00  0.00     0.202 A 
ENDROOT
BRANCH   1  10
ATOM     10  C   UNL d   1      15.025  15.246  -1.239  0.00  0.00     0.085 A 
ATOM     11  C   UNL d   1      14.952  15.902  -1.724  0.00  0.00     0.019 A 
ATOM     12  C   UNL d   1      15.156  16.655  -1.439  0.00  0.00     0.002 A 
ATOM     13  C   UNL d   1      15.085  17.316  -1.921  0.00  0.00     0.000 C 
ATOM     14  C   UNL d   1      15.429  16.745  -0.675  0.00  0.00     0.000 A 
ATOM     15  C   UNL d   1      15.504  16.079  -0.181  0.00  0.00     0.002 A 
ATOM     16  C   UNL d   1      15.306  15.337  -0.455  0.00  0.00     0.019 A 
ENDBRANCH   1  10
BRANCH   5  17
ATOM     17  N   UNL d   1      14.319  11.794  -1.788  0.00  0.00    -0.227 NA
BRANCH  17  18
ATOM     18  C   UNL d   1      13.582  11.817  -2.138  0.00  0.00     0.083 C 
ATOM     19  C   UNL d   1      13.512  11.877  -2.959  0.00  0.00     0.021 C 
ATOM     20  C   UNL d   1      12.897  11.779  -1.673  0.00  0.00     0.021 C 
ENDBRANCH  17  18
ENDBRANCH   5  17
TORSDOF 3
ENDMDL
MODEL 2
REMARK VINA RESULT:      36.4      1.191      3.926
REMARK  3 active torsions:
REMARK  status: ('A' for Active; 'I' for Inactive)
REMARK    1  A    between atoms: C_8  and  N_1 
REMARK    2  A    between atoms: N_10  and  C_5 
REMARK    3  A    between atoms: C_15  and  N_10 
ROOT
ATOM      1  N   UNL d   1      14.710  13.922  -1.251  0.00  0.00    -0.212 N 
ATOM      2  C   UNL d   1      14.923  14.655  -0.935  0.00  0.00     0.170 A 
ATOM      3  C   UNL d   1      14.890  15.212  -1.542  0.00  0.00     0.093 A 
ATOM      4  N   UNL d   1      14.545  14.030  -2.058  0.00  0.00    -0.162 NA
ATOM      5  C   UNL d   1      15.078  16.006  -1.388  0.00  0.00     0.169 A 
ATOM      6  C   UNL d   1      14.659  14.831  -2.231  0.00  0.00     0.127 A 
ATOM      7  N   UNL d   1      15.142  14.880  -0.168  0.00  0.00    -0.205 NA
ATOM      8  N   UNL d   1      15.298  16.231  -0.620  0.00  0.00    -0.205 NA
ATOM      9  C   UNL d   1      15.328  15.668  -0.018  0.00  0.00     0.202 A 
ENDROOT
BRANCH   1  10
ATOM     10  C   UNL d   1      14.667  13.208  -0.839  0.00  0.00     0.085 A 
ATOM     11  C   UNL d   1      13.940  12.861  -0.689  0.00  0.00     0.019 A 
ATOM     12  C   UNL d   1      13.899  12.143  -0.274  0.00  0.00     0.002 A 
ATOM     13  C   UNL d   1      13.174  11.791  -0.121  0.00  0.00     0.000 C 
ATOM     14  C   UNL d   1      14.583  11.779  -0.015  0.00  0.00     0.000 A 
ATOM     15  C   UNL d   1      15.322  12.131  -0.168  0.00  0.00     0.002 A 
ATOM     16  C   UNL d   1      15.369  12.835  -0.574  0.00  0.00     0.019 A 
ENDBRANCH   1  10
BRANCH   5  17
ATOM     17  N   UNL d   1      15.048  16.564  -1.983  0.00  0.00    -0.227 NA
BRANCH  17  18
ATOM     18  C   UNL d   1      15.028  17.359  -1.800  0.00  0.00     0.083 C 
ATOM     19  C   UNL d   1      15.186  17.615  -1.031  0.00  0.00     0.021 C 
ATOM     20  C   UNL d   1      14.847  17.918  -2.386  0.00  0.00     0.021 C 
ENDBRANCH  17  18
ENDBRANCH   5  17
TORSDOF 3
ENDMDL
MODEL 3
REMARK VINA RESULT:      37.0      1.449      2.305
REMARK  3 active torsions:
REMARK  status: ('A' for Active; 'I' for Inactive)
REMARK    1  A    between atoms: C_8  and  N_1 
REMARK    2  A    between atoms: N_10  and  C_5 
REMARK    3  A    between atoms: C_15  and  N_10 
ROOT
ATOM      1  N   UNL d   1      14.413  14.746  -2.587  0.00  0.00    -0.212 N 
ATOM      2  C   UNL d   1      14.196  13.962  -2.726  0.00  0.00     0.170 A 
ATOM      3  C   UNL d   1      13.883  13.916  -3.488  0.00  0.00     0.093 A 
ATOM      4  N   UNL d   1      14.233  15.185  -3.268  0.00  0.00    -0.162 NA
ATOM      5  C   UNL d   1      13.615  13.188  -3.784  0.00  0.00     0.169 A 
ATOM      6  C   UNL d   1      13.905  14.665  -3.822  0.00  0.00     0.127 A 
ATOM      7  N   UNL d   1      14.246  13.285  -2.249  0.00  0.00    -0.205 NA
ATOM      8  N   UNL d   1      13.664  12.511  -3.307  0.00  0.00    -0.205 NA
ATOM      9  C   UNL d   1      13.978  12.565  -2.546  0.00  0.00     0.202 A 
ENDROOT
BRANCH   1  10
ATOM     10  C   UNL d   1      14.751  15.043  -1.895  0.00  0.00     0.085 A 
ATOM     11  C   UNL d   1      15.013  14.530  -1.311  0.00  0.00     0.019 A 
ATOM     12  C   UNL d   1      15.352  14.831  -0.615  0.00  0.00     0.002 A 
ATOM     13  C   UNL d   1      15.616  14.322  -0.027  0.00  0.00     0.000 C 
ATOM     14  C   UNL d   1      15.425  15.637  -0.509  0.00  0.00     0.000 A 
ATOM     15  C   UNL d   1      15.159  16.158  -1.101  0.00  0.00     0.002 A 
ATOM     16  C   UNL d   1      14.826  15.870  -1.786  0.00  0.00     0.019 A 
ENDBRANCH   1  10
BRANCH   5  17
ATOM     17  N   UNL d   1      13.304  13.135  -4.537  0.00  0.00    -0.227 NA
BRANCH  17  18
ATOM     18  C   UNL d   1      13.304  12.420  -4.931  0.00  0.00     0.083 C 
ATOM     19  C   UNL d   1      12.868  11.782  -4.640  0.00  0.00     0.021 C 
ATOM     20  C   UNL d   1      13.743  12.328  -5.629  0.00  0.00     0.021 C 
ENDBRANCH  17  18
ENDBRANCH   5  17
TORSDOF 3
ENDMDL
