MODEL 1
REMARK VINA RESULT:      64.3      0.000      0.000
REMARK  4 active torsions:
REMARK  status: ('A' for Active; 'I' for Inactive)
REMARK    1  A    between atoms: C_6  and  C_1 
REMARK       I    between atoms: N_9  and  C_6 
REMARK       I    between atoms: C_8  and  N_10 
REMARK    2  A    between atoms: C_11  and  C_8 
REMARK    3  A    between atoms: N_10  and  N_9 
REMARK    4  A    between atoms: O_22  and  C_13 
ROOT
ATOM      1  C   UNL d   1     -54.874-101.514 -40.029  0.00  0.00     0.123 A 
ATOM      2  C   UNL d   1     -55.072-102.255 -39.727  0.00  0.00     0.305 A 
ATOM      3  O   UNL d   1     -55.148-102.359 -38.929  0.00  0.00    -0.271 OA
ATOM      4  C   UNL d   1     -54.757-100.896 -39.525  0.00  0.00     0.012 A 
ATOM      5  C   UNL d   1     -55.028-101.722 -38.390  0.00  0.00     0.125 A 
ATOM      6  C   UNL d   1     -54.830-100.980 -38.692  0.00  0.00     0.025 A 
ATOM      7  O   UNL d   1     -55.190-102.878 -40.228  0.00  0.00    -0.259 OA
ATOM      8  C   UNL d   1     -55.103-101.818 -37.571  0.00  0.00     0.117 A 
ATOM      9  C   UNL d   1     -54.713-100.354 -38.168  0.00  0.00     0.002 A 
ATOM     10  C   UNL d   1     -54.786-100.444 -37.348  0.00  0.00     0.002 A 
ATOM     11  C   UNL d   1     -54.984-101.186 -37.046  0.00  0.00     0.026 A 
ENDROOT
BRANCH   1  12
ATOM     12  C   UNL d   1     -54.793-101.386 -40.836  0.00  0.00     0.302 C 
ATOM     13  N   UNL d   1     -54.792-100.603 -41.105  0.00  0.00    -0.102 NA
ATOM     14  O   UNL d   1     -54.712-102.035 -41.374  0.00  0.00    -0.263 OA
BRANCH  13  15
ATOM     15  N   UNL d   1     -54.712-100.452 -41.898  0.00  0.00    -0.102 NA
ATOM     16  C   UNL d   1     -55.219-100.829 -42.437  0.00  0.00     0.297 C 
ATOM     17  O   UNL d   1     -55.790-101.345 -42.181  0.00  0.00    -0.264 OA
BRANCH  16  18
ATOM     18  C   UNL d   1     -55.145-100.681 -43.238  0.00  0.00     0.059 A 
ATOM     19  C   UNL d   1     -54.832-101.240 -43.742  0.00  0.00     0.005 A 
ATOM     20  C   UNL d   1     -54.756-101.098 -44.544  0.00  0.00     0.007 A 
ATOM     21  C   UNL d   1     -54.992-100.386 -44.865  0.00  0.00     0.035 A 
ATOM     22  C   UNL d   1     -55.316 -99.805 -44.352  0.00  0.00     0.007 A 
ATOM     23 BR   UNL d   1     -54.913-100.249 -45.670  0.00  0.00    -0.049 Br
ATOM     24  C   UNL d   1     -55.392 -99.948 -43.549  0.00  0.00     0.005 A 
ENDBRANCH  16  18
ENDBRANCH  13  15
ENDBRANCH   1  12
BRANCH   8  25
ATOM     25  O   UNL d   1     -55.299-102.551 -37.272  0.00  0.00    -0.326 OA
ATOM     26  C   UNL d   1     -55.133-102.735 -36.502  0.00  0.00     0.181 C 
ENDBRANCH   8  25
TORSDOF 4
ENDMDL
MODEL 2
REMARK VINA RESULT:      64.4      1.316      2.090
REMARK  4 active torsions:
REMARK  status: ('A' for Active; 'I' for Inactive)
REMARK    1  A    between atoms: C_6  and  C_1 
REMARK       I    between atoms: N_9  and  C_6 
REMARK       I    between atoms: C_8  and  N_10 
REMARK    2  A    between atoms: C_11  and  C_8 
REMARK    3  A    between atoms: N_10  and  N_9 
REMARK    4  A    between atoms: O_22  and  C_13 
ROOT
ATOM      1  C   UNL d   1     -54.996-100.881 -38.655  0.00  0.00     0.123 A 
ATOM      2  C   UNL d   1     -55.002-100.241 -38.134  0.00  0.00     0.305 A 
ATOM      3  O   UNL d   1     -54.938-100.367 -37.338  0.00  0.00    -0.271 OA
ATOM      4  C   UNL d   1     -54.926-101.630 -38.366  0.00  0.00     0.012 A 
ATOM      5  C   UNL d   1     -54.865-101.145 -37.022  0.00  0.00     0.125 A 
ATOM      6  C   UNL d   1     -54.859-101.785 -37.542  0.00  0.00     0.025 A 
ATOM      7  O   UNL d   1     -55.072 -99.489 -38.419  0.00  0.00    -0.259 OA
ATOM      8  C   UNL d   1     -54.798-101.285 -36.209  0.00  0.00     0.117 A 
ATOM      9  C   UNL d   1     -54.786-102.548 -37.236  0.00  0.00     0.002 A 
ATOM     10  C   UNL d   1     -54.720-102.694 -36.424  0.00  0.00     0.002 A 
ATOM     11  C   UNL d   1     -54.726-102.054 -35.903  0.00  0.00     0.026 A 
ENDROOT
BRANCH   1  12
ATOM     12  C   UNL d   1     -55.060-100.776 -39.466  0.00  0.00     0.302 C 
ATOM     13  N   UNL d   1     -54.712-101.344 -39.958  0.00  0.00    -0.102 NA
ATOM     14  O   UNL d   1     -55.469-100.108 -39.788  0.00  0.00    -0.263 OA
BRANCH  13  15
ATOM     15  N   UNL d   1     -54.762-101.261 -40.764  0.00  0.00    -0.102 NA
ATOM     16  C   UNL d   1     -55.027-101.901 -41.223  0.00  0.00     0.297 C 
ATOM     17  O   UNL d   1     -55.235-102.604 -40.876  0.00  0.00    -0.264 OA
BRANCH  16  18
ATOM     18  C   UNL d   1     -55.079-101.825 -42.035  0.00  0.00     0.059 A 
ATOM     19  C   UNL d   1     -55.269-101.112 -42.380  0.00  0.00     0.005 A 
ATOM     20  C   UNL d   1     -55.323-101.030 -43.192  0.00  0.00     0.007 A 
ATOM     21  C   UNL d   1     -55.188-101.667 -43.685  0.00  0.00     0.035 A 
ATOM     22  C   UNL d   1     -54.992-102.405 -43.336  0.00  0.00     0.007 A 
ATOM     23 BR   UNL d   1     -55.244-101.579 -44.499  0.00  0.00    -0.049 Br
ATOM     24  C   UNL d   1     -54.938-102.486 -42.523  0.00  0.00     0.005 A 
ENDBRANCH  16  18
ENDBRANCH  13  15
ENDBRANCH   1  12
BRANCH   8  25
ATOM     25  O   UNL d   1     -54.804-100.652 -35.694  0.00  0.00    -0.326 OA
ATOM     26  C   UNL d   1     -55.501-100.394 -35.373  0.00  0.00     0.181 C 
ENDBRANCH   8  25
TORSDOF 4
ENDMDL
