MODEL 1
REMARK VINA RESULT:      60.4      0.000      0.000
REMARK  3 active torsions:
REMARK  status: ('A' for Active; 'I' for Inactive)
REMARK    1  A    between atoms: N_4  and  C_2 
REMARK    2  A    between atoms: C_12  and  C_10 
REMARK    3  A    between atoms: C_19  and  C_11 
ROOT
ATOM      1  C   UNL d   1     -57.972 -98.958 -44.905  0.00  0.00     0.152 A 
ATOM      2  C   UNL d   1     -57.328 -99.022 -44.425  0.00  0.00     0.174 A 
ATOM      3  C   UNL d   1     -58.727 -98.883 -44.573  0.00  0.00     0.111 A 
ATOM      4  O   UNL d   1     -57.883 -98.967 -45.734  0.00  0.00    -0.302 OA
ATOM      5  N   UNL d   1     -57.410 -99.014 -43.613  0.00  0.00    -0.207 NA
ATOM      6  C   UNL d   1     -59.300 -98.825 -45.889  0.00  0.00     0.043 A 
ATOM      7  N   UNL d   1     -58.825 -98.873 -43.767  0.00  0.00    -0.225 NA
ATOM      8  C   UNL d   1     -58.553 -98.900 -46.217  0.00  0.00     0.102 A 
ATOM      9  C   UNL d   1     -58.164 -98.939 -43.281  0.00  0.00     0.164 A 
ATOM     10  C   UNL d   1     -59.961 -98.760 -46.374  0.00  0.00     0.004 A 
ATOM     11  C   UNL d   1     -58.465 -98.909 -47.037  0.00  0.00     0.025 A 
ATOM     12  C   UNL d   1     -59.877 -98.768 -47.192  0.00  0.00     0.000 A 
ATOM     13  C   UNL d   1     -59.126 -98.843 -47.533  0.00  0.00     0.002 A 
ENDROOT
BRANCH   2  14
ATOM     14  N   UNL d   1     -56.581 -99.096 -44.754  0.00  0.00    -0.284 N 
ATOM     15  C   UNL d   1     -55.952 -99.514 -44.444  0.00  0.00     0.130 A 
ATOM     16  C   UNL d   1     -55.316 -99.440 -44.951  0.00  0.00     0.025 A 
ATOM     17  C   UNL d   1     -55.548 -98.972 -45.583  0.00  0.00     0.021 A 
ATOM     18  C   UNL d   1     -56.334 -98.756 -45.465  0.00  0.00     0.082 A 
BRANCH  15  19
ATOM     19  C   UNL d   1     -55.957 -99.956 -43.712  0.00  0.00     0.228 C 
ATOM     20  O   UNL d   1     -55.508 -99.679 -43.048  0.00  0.00    -0.643 OA
ATOM     21  O   UNL d   1     -56.411-100.669 -43.652  0.00  0.00    -0.643 OA
ENDBRANCH  15  19
ENDBRANCH   2  14
BRANCH   9  22
ATOM     22  C   UNL d   1     -58.252 -98.930 -42.428  0.00  0.00     0.039 C 
ATOM     23  C   UNL d   1     -59.005 -98.756 -42.084  0.00  0.00     0.003 C 
ENDBRANCH   9  22
TORSDOF 3
ENDMDL
