MODEL 1
REMARK VINA RESULT:      76.0      0.000      0.000
REMARK  6 active torsions:
REMARK  status: ('A' for Active; 'I' for Inactive)
REMARK    1  A    between atoms: N_2  and  S_1 
REMARK    2  A    between atoms: C_8  and  S_1 
REMARK    3  A    between atoms: C_4  and  C_3 
REMARK    4  A    between atoms: O_18  and  C_5 
REMARK    5  A    between atoms: O_20  and  C_12 
REMARK    6  A    between atoms: O_21  and  C_13 
ROOT
ATOM      1  N   UNL d   1     -50.523  26.480  34.858  0.00  0.00    -0.127 NA
ATOM      2  C   UNL d   1     -50.643  26.264  34.074  0.00  0.00     0.086 A 
ATOM      3  S   UNL d   1     -50.330  26.722  33.470  0.00  0.00    -0.073 SA
ATOM      4  C   UNL d   1     -49.774  27.615  34.442  0.00  0.00     0.074 A 
ATOM      5  C   UNL d   1     -49.894  27.400  33.657  0.00  0.00     0.050 A 
ENDROOT
BRANCH   2   6
ATOM      6  C   UNL d   1     -51.079  25.587  33.889  0.00  0.00     0.042 A 
ATOM      7  C   UNL d   1     -51.854  25.666  33.628  0.00  0.00     0.098 A 
ATOM      8  C   UNL d   1     -52.282  24.988  33.446  0.00  0.00     0.050 A 
ATOM      9  C   UNL d   1     -51.949  24.247  33.521  0.00  0.00     0.118 A 
ATOM     10  C   UNL d   1     -51.170  24.173  33.784  0.00  0.00     0.117 A 
ATOM     11  C   UNL d   1     -50.730  24.845  33.969  0.00  0.00     0.030 A 
BRANCH   7  12
ATOM     12  O   UNL d   1     -52.199  26.408  33.550  0.00  0.00    -0.328 OA
ATOM     13  C   UNL d   1     -52.987  26.471  33.318  0.00  0.00     0.181 C 
ENDBRANCH   7  12
BRANCH   9  14
ATOM     14  O   UNL d   1     -52.379  23.576  33.338  0.00  0.00    -0.326 OA
ATOM     15  C   UNL d   1     -52.939  23.284  33.866  0.00  0.00     0.181 C 
ENDBRANCH   9  14
BRANCH  10  16
ATOM     16  O   UNL d   1     -50.827  23.429  33.861  0.00  0.00    -0.326 OA
ATOM     17  C   UNL d   1     -50.051  23.304  33.623  0.00  0.00     0.181 C 
ENDBRANCH  10  16
ENDBRANCH   2   6
BRANCH   1  18
ATOM     18  S   UNL d   1     -50.273  26.895  35.634  0.00  0.00     0.255 S 
ATOM     19  O   UNL d   1     -49.852  27.404  36.253  0.00  0.00    -0.205 OA
ATOM     20  O   UNL d   1     -49.599  27.310  35.191  0.00  0.00    -0.205 OA
BRANCH  18  21
ATOM     21  C   UNL d   1     -50.828  26.636  36.292  0.00  0.00     0.099 A 
ATOM     22  C   UNL d   1     -51.722  26.718  36.196  0.00  0.00     0.015 A 
ATOM     23  C   UNL d   1     -52.276  26.463  36.846  0.00  0.00     0.030 A 
ATOM     24  C   UNL d   1     -51.943  26.119  37.606  0.00  0.00     0.140 A 
ATOM     25  C   UNL d   1     -51.049  26.033  37.713  0.00  0.00     0.030 A 
ATOM     26  F   UNL d   1     -52.498  25.855  38.277  0.00  0.00    -0.204 F 
ATOM     27  C   UNL d   1     -50.484  26.292  37.054  0.00  0.00     0.015 A 
ENDBRANCH  18  21
ENDBRANCH   1  18
TORSDOF 6
ENDMDL
