MODEL 1
REMARK VINA RESULT:      -9.8      0.000      0.000
REMARK  6 active torsions:
REMARK  status: ('A' for Active; 'I' for Inactive)
REMARK    1  A    between atoms: C_7  and  C_1 
REMARK    2  A    between atoms: S_9  and  C_2 
REMARK    3  A    between atoms: C_11  and  C_4 
REMARK    4  A    between atoms: C_15  and  S_9 
REMARK    5  A    between atoms: C_12  and  C_15 
REMARK    6  A    between atoms: O_21  and  C_12 
ROOT
ATOM      1  C   UNL d   1      52.578  33.633  53.523  0.00  0.00     0.045 A 
ATOM      2  C   UNL d   1      51.918  33.432  53.083  0.00  0.00     0.112 A 
ATOM      3  C   UNL d   1      53.024  32.268  53.480  0.00  0.00     0.057 A 
ATOM      4  C   UNL d   1      53.134  33.059  53.726  0.00  0.00     0.008 A 
ATOM      5  C   UNL d   1      52.364  32.066  53.039  0.00  0.00     0.085 A 
ATOM      6  N   UNL d   1      51.799  32.651  52.834  0.00  0.00    -0.239 NA
ATOM      7  C   UNL d   1      53.577  31.705  53.683  0.00  0.00     0.197 A 
ATOM      8  O   UNL d   1      54.247  31.909  54.131  0.00  0.00    -0.286 OA
ATOM      9  C   UNL d   1      52.242  31.296  52.791  0.00  0.00     0.019 A 
ATOM     10  C   UNL d   1      53.463  30.926  53.438  0.00  0.00     0.042 A 
ATOM     11  C   UNL d   1      52.803  30.724  52.997  0.00  0.00     0.005 A 
ENDROOT
BRANCH   4  12
ATOM     12  C   UNL d   1      53.789  33.260  54.164  0.00  0.00     0.000 A 
ATOM     13  C   UNL d   1      54.503  33.416  53.787  0.00  0.00     0.000 A 
ATOM     14  C   UNL d   1      55.163  33.617  54.228  0.00  0.00     0.000 A 
ATOM     15  C   UNL d   1      55.110  33.664  55.046  0.00  0.00     0.000 A 
ATOM     16  C   UNL d   1      54.390  33.507  55.434  0.00  0.00     0.000 A 
ATOM     17  C   UNL d   1      55.776  33.867  55.491  0.00  0.00     0.000 C 
ATOM     18  C   UNL d   1      53.730  33.305  54.993  0.00  0.00     0.000 A 
ENDBRANCH   4  12
BRANCH   1  19
ATOM     19  C   UNL d   1      52.686  34.430  53.769  0.00  0.00     0.124 C 
ATOM     20  N   UNL d   1      52.759  35.027  53.196  0.00  0.00    -0.146 N 
ENDBRANCH   1  19
BRANCH   2  21
ATOM     21  S   UNL d   1      51.331  34.016  52.864  0.00  0.00    -0.062 SA
BRANCH  21  22
ATOM     22  C   UNL d   1      50.579  33.773  52.664  0.00  0.00     0.105 C 
BRANCH  22  23
ATOM     23  C   UNL d   1      50.007  34.335  52.446  0.00  0.00     0.303 C 
ATOM     24  O   UNL d   1      49.636  34.805  53.016  0.00  0.00    -0.259 OA
BRANCH  23  25
ATOM     25  O   UNL d   1      49.807  34.425  51.658  0.00  0.00    -0.295 OA
ATOM     26  C   UNL d   1      49.031  34.638  51.453  0.00  0.00     0.185 C 
ENDBRANCH  23  25
ENDBRANCH  22  23
ENDBRANCH  21  22
ENDBRANCH   2  21
TORSDOF 6
ENDMDL
MODEL 2
REMARK VINA RESULT:      -8.8      1.618      4.273
REMARK  6 active torsions:
REMARK  status: ('A' for Active; 'I' for Inactive)
REMARK    1  A    between atoms: C_7  and  C_1 
REMARK    2  A    between atoms: S_9  and  C_2 
REMARK    3  A    between atoms: C_11  and  C_4 
REMARK    4  A    between atoms: C_15  and  S_9 
REMARK    5  A    between atoms: C_12  and  C_15 
REMARK    6  A    between atoms: O_21  and  C_12 
ROOT
ATOM      1  C   UNL d   1      52.676  32.187  53.411  0.00  0.00     0.045 A 
ATOM      2  C   UNL d   1      53.287  31.766  53.757  0.00  0.00     0.112 A 
ATOM      3  C   UNL d   1      53.117  33.378  54.082  0.00  0.00     0.057 A 
ATOM      4  C   UNL d   1      52.584  32.991  53.567  0.00  0.00     0.008 A 
ATOM      5  C   UNL d   1      53.728  32.957  54.428  0.00  0.00     0.085 A 
ATOM      6  N   UNL d   1      53.820  32.139  54.268  0.00  0.00    -0.239 NA
ATOM      7  C   UNL d   1      53.022  34.174  54.234  0.00  0.00     0.197 A 
ATOM      8  O   UNL d   1      52.402  34.601  53.882  0.00  0.00    -0.286 OA
ATOM      9  C   UNL d   1      54.258  33.321  54.934  0.00  0.00     0.019 A 
ATOM     10  C   UNL d   1      53.551  34.550  54.742  0.00  0.00     0.042 A 
ATOM     11  C   UNL d   1      54.162  34.129  55.088  0.00  0.00     0.005 A 
ENDROOT
BRANCH   4  12
ATOM     12  C   UNL d   1      51.977  33.409  53.224  0.00  0.00     0.000 A 
ATOM     13  C   UNL d   1      52.114  33.841  52.538  0.00  0.00     0.000 A 
ATOM     14  C   UNL d   1      51.503  34.263  52.192  0.00  0.00     0.000 A 
ATOM     15  C   UNL d   1      50.755  34.253  52.531  0.00  0.00     0.000 A 
ATOM     16  C   UNL d   1      50.610  33.817  53.226  0.00  0.00     0.000 A 
ATOM     17  C   UNL d   1      50.138  34.677  52.182  0.00  0.00     0.000 C 
ATOM     18  C   UNL d   1      51.221  33.395  53.572  0.00  0.00     0.000 A 
ENDBRANCH   4  12
BRANCH   1  19
ATOM     19  C   UNL d   1      52.141  31.795  52.894  0.00  0.00     0.124 C 
ATOM     20  N   UNL d   1      52.438  31.383  52.236  0.00  0.00    -0.146 N 
ENDBRANCH   1  19
BRANCH   2  21
ATOM     21  S   UNL d   1      53.395  30.930  53.604  0.00  0.00    -0.062 SA
BRANCH  21  22
ATOM     22  C   UNL d   1      53.592  30.432  54.220  0.00  0.00     0.105 C 
BRANCH  22  23
ATOM     23  C   UNL d   1      53.636  29.612  54.092  0.00  0.00     0.303 C 
ATOM     24  O   UNL d   1      54.186  29.294  53.564  0.00  0.00    -0.259 OA
BRANCH  23  25
ATOM     25  O   UNL d   1      53.128  29.113  54.494  0.00  0.00    -0.295 OA
ATOM     26  C   UNL d   1      53.439  28.504  54.966  0.00  0.00     0.185 C 
ENDBRANCH  23  25
ENDBRANCH  22  23
ENDBRANCH  21  22
ENDBRANCH   2  21
TORSDOF 6
ENDMDL
MODEL 3
REMARK VINA RESULT:      -7.4      0.829      2.566
REMARK  6 active torsions:
REMARK  status: ('A' for Active; 'I' for Inactive)
REMARK    1  A    between atoms: C_7  and  C_1 
REMARK    2  A    between atoms: S_9  and  C_2 
REMARK    3  A    between atoms: C_11  and  C_4 
REMARK    4  A    between atoms: C_15  and  S_9 
REMARK    5  A    between atoms: C_12  and  C_15 
REMARK    6  A    between atoms: O_21  and  C_12 
ROOT
ATOM      1  C   UNL d   1      52.119  32.677  53.339  0.00  0.00     0.045 A 
ATOM      2  C   UNL d   1      51.854  33.452  53.351  0.00  0.00     0.112 A 
ATOM      3  C   UNL d   1      53.306  33.071  54.047  0.00  0.00     0.057 A 
ATOM      4  C   UNL d   1      52.841  32.478  53.684  0.00  0.00     0.008 A 
ATOM      5  C   UNL d   1      53.041  33.846  54.059  0.00  0.00     0.085 A 
ATOM      6  N   UNL d   1      52.306  34.046  53.708  0.00  0.00    -0.239 NA
ATOM      7  C   UNL d   1      54.019  32.869  54.386  0.00  0.00     0.197 A 
ATOM      8  O   UNL d   1      54.287  32.082  54.374  0.00  0.00    -0.286 OA
ATOM      9  C   UNL d   1      53.484  34.437  54.411  0.00  0.00     0.019 A 
ATOM     10  C   UNL d   1      54.473  33.458  54.743  0.00  0.00     0.042 A 
ATOM     11  C   UNL d   1      54.209  34.233  54.755  0.00  0.00     0.005 A 
ENDROOT
BRANCH   4  12
ATOM     12  C   UNL d   1      53.103  31.709  53.672  0.00  0.00     0.000 A 
ATOM     13  C   UNL d   1      52.995  31.229  54.330  0.00  0.00     0.000 A 
ATOM     14  C   UNL d   1      53.260  30.453  54.318  0.00  0.00     0.000 A 
ATOM     15  C   UNL d   1      53.632  30.158  53.648  0.00  0.00     0.000 A 
ATOM     16  C   UNL d   1      53.745  30.639  52.978  0.00  0.00     0.000 A 
ATOM     17  C   UNL d   1      53.899  29.376  53.636  0.00  0.00     0.000 C 
ATOM     18  C   UNL d   1      53.480  31.415  52.990  0.00  0.00     0.000 A 
ENDBRANCH   4  12
BRANCH   1  19
ATOM     19  C   UNL d   1      51.649  32.083  52.973  0.00  0.00     0.124 C 
ATOM     20  N   UNL d   1      50.885  31.933  53.262  0.00  0.00    -0.146 N 
ENDBRANCH   1  19
BRANCH   2  21
ATOM     21  S   UNL d   1      51.107  33.674  52.998  0.00  0.00    -0.062 SA
BRANCH  21  22
ATOM     22  C   UNL d   1      50.883  34.458  52.993  0.00  0.00     0.105 C 
BRANCH  22  23
ATOM     23  C   UNL d   1      50.134  34.673  52.705  0.00  0.00     0.303 C 
ATOM     24  O   UNL d   1      49.940  34.572  51.909  0.00  0.00    -0.259 OA
BRANCH  23  25
ATOM     25  O   UNL d   1      49.580  34.989  53.218  0.00  0.00    -0.295 OA
ATOM     26  C   UNL d   1      48.902  35.359  52.912  0.00  0.00     0.185 C 
ENDBRANCH  23  25
ENDBRANCH  22  23
ENDBRANCH  21  22
ENDBRANCH   2  21
TORSDOF 6
ENDMDL
MODEL 4
REMARK VINA RESULT:      -7.1      1.510      3.521
REMARK  6 active torsions:
REMARK  status: ('A' for Active; 'I' for Inactive)
REMARK    1  A    between atoms: C_7  and  C_1 
REMARK    2  A    between atoms: S_9  and  C_2 
REMARK    3  A    between atoms: C_11  and  C_4 
REMARK    4  A    between atoms: C_15  and  S_9 
REMARK    5  A    between atoms: C_12  and  C_15 
REMARK    6  A    between atoms: O_21  and  C_12 
ROOT
ATOM      1  C   UNL d   1      53.050  32.950  53.665  0.00  0.00     0.045 A 
ATOM      2  C   UNL d   1      52.789  32.235  53.362  0.00  0.00     0.112 A 
ATOM      3  C   UNL d   1      51.831  33.578  53.234  0.00  0.00     0.057 A 
ATOM      4  C   UNL d   1      52.579  33.624  53.605  0.00  0.00     0.008 A 
ATOM      5  C   UNL d   1      51.570  32.863  52.931  0.00  0.00     0.085 A 
ATOM      6  N   UNL d   1      52.051  32.178  52.993  0.00  0.00    -0.239 NA
ATOM      7  C   UNL d   1      51.370  34.247  53.177  0.00  0.00     0.197 A 
ATOM      8  O   UNL d   1      51.635  34.972  53.484  0.00  0.00    -0.286 OA
ATOM      9  C   UNL d   1      50.841  32.801  52.565  0.00  0.00     0.019 A 
ATOM     10  C   UNL d   1      50.633  34.195  52.810  0.00  0.00     0.042 A 
ATOM     11  C   UNL d   1      50.372  33.480  52.507  0.00  0.00     0.005 A 
ENDROOT
BRANCH   4  12
ATOM     12  C   UNL d   1      52.838  34.334  53.905  0.00  0.00     0.000 A 
ATOM     13  C   UNL d   1      53.168  34.895  53.404  0.00  0.00     0.000 A 
ATOM     14  C   UNL d   1      53.430  35.610  53.707  0.00  0.00     0.000 A 
ATOM     15  C   UNL d   1      53.361  35.764  54.511  0.00  0.00     0.000 A 
ATOM     16  C   UNL d   1      53.027  35.199  55.024  0.00  0.00     0.000 A 
ATOM     17  C   UNL d   1      53.624  36.485  54.816  0.00  0.00     0.000 C 
ATOM     18  C   UNL d   1      52.766  34.485  54.721  0.00  0.00     0.000 A 
ENDBRANCH   4  12
BRANCH   1  19
ATOM     19  C   UNL d   1      53.803  32.994  54.038  0.00  0.00     0.124 C 
ATOM     20  N   UNL d   1      54.484  32.801  53.603  0.00  0.00    -0.146 N 
ENDBRANCH   1  19
BRANCH   2  21
ATOM     21  S   UNL d   1      53.267  31.527  53.417  0.00  0.00    -0.062 SA
BRANCH  21  22
ATOM     22  C   UNL d   1      52.920  30.799  53.291  0.00  0.00     0.105 C 
BRANCH  22  23
ATOM     23  C   UNL d   1      53.300  30.108  53.554  0.00  0.00     0.303 C 
ATOM     24  O   UNL d   1      54.030  29.880  53.240  0.00  0.00    -0.259 OA
BRANCH  23  25
ATOM     25  O   UNL d   1      52.948  29.648  54.131  0.00  0.00    -0.295 OA
ATOM     26  C   UNL d   1      53.324  28.952  54.387  0.00  0.00     0.185 C 
ENDBRANCH  23  25
ENDBRANCH  22  23
ENDBRANCH  21  22
ENDBRANCH   2  21
TORSDOF 6
ENDMDL
