MODEL 1
REMARK VINA RESULT:      -7.8      0.000      0.000
REMARK  3 active torsions:
REMARK  status: ('A' for Active; 'I' for Inactive)
REMARK    1  A    between atoms: N_4  and  C_2 
REMARK    2  A    between atoms: C_10  and  C_3 
REMARK       I    between atoms: C_7  and  N_4 
REMARK    3  A    between atoms: C_8  and  C_7 
ROOT
ATOM      1  N   UNL d   1      52.326  33.636  53.768  0.00  0.00    -0.051 NA
ATOM      2  C   UNL d   1      51.713  33.306  53.333  0.00  0.00     0.760 A 
ATOM      3  C   UNL d   1      52.953  33.091  53.766  0.00  0.00     0.147 A 
ATOM      4  N   UNL d   1      51.953  32.555  53.059  0.00  0.00    -0.019 NA
ATOM      5  S   UNL d   1      52.716  32.434  53.331  0.00  0.00     0.052 SA
ENDROOT
BRANCH   2   6
ATOM      6  N   UNL d   1      50.953  33.587  53.143  0.00  0.00    -0.018 NA
ATOM      7  C   UNL d   1      50.852  34.165  52.564  0.00  0.00     0.301 C 
ATOM      8  O   UNL d   1      51.514  34.470  52.166  0.00  0.00    -0.264 OA
BRANCH   7   9
ATOM      9  C   UNL d   1      50.097  34.441  52.379  0.00  0.00     0.088 A 
ATOM     10  S   UNL d   1      49.711  34.348  51.647  0.00  0.00    -0.082 SA
ATOM     11  C   UNL d   1      48.964  34.710  51.705  0.00  0.00     0.036 A 
ATOM     12  C   UNL d   1      48.892  35.022  52.464  0.00  0.00     0.008 A 
ATOM     13  C   UNL d   1      49.589  34.856  52.877  0.00  0.00     0.012 A 
ENDBRANCH   7   9
ENDBRANCH   2   6
BRANCH   3  14
ATOM     14  C   UNL d   1      53.678  33.203  54.140  0.00  0.00     0.026 A 
ATOM     15  C   UNL d   1      53.693  33.431  54.942  0.00  0.00     0.002 A 
ATOM     16  C   UNL d   1      54.423  33.544  55.322  0.00  0.00     0.000 A 
ATOM     17  C   UNL d   1      55.125  33.432  54.907  0.00  0.00     0.000 A 
ATOM     18  C   UNL d   1      55.117  33.207  54.114  0.00  0.00     0.000 A 
ATOM     19  C   UNL d   1      54.395  33.092  53.729  0.00  0.00     0.002 A 
ENDBRANCH   3  14
TORSDOF 3
ENDMDL
MODEL 2
REMARK VINA RESULT:      -7.4      1.095      1.390
REMARK  3 active torsions:
REMARK  status: ('A' for Active; 'I' for Inactive)
REMARK    1  A    between atoms: N_4  and  C_2 
REMARK    2  A    between atoms: C_10  and  C_3 
REMARK       I    between atoms: C_7  and  N_4 
REMARK    3  A    between atoms: C_8  and  C_7 
ROOT
ATOM      1  N   UNL d   1      51.972  33.527  52.889  0.00  0.00    -0.051 NA
ATOM      2  C   UNL d   1      51.679  34.245  52.618  0.00  0.00     0.760 A 
ATOM      3  C   UNL d   1      52.657  33.691  53.330  0.00  0.00     0.147 A 
ATOM      4  N   UNL d   1      52.177  34.857  52.887  0.00  0.00    -0.019 NA
ATOM      5  S   UNL d   1      52.774  34.505  53.323  0.00  0.00     0.052 SA
ENDROOT
BRANCH   2   6
ATOM      6  N   UNL d   1      51.013  34.432  52.153  0.00  0.00    -0.018 NA
ATOM      7  C   UNL d   1      50.252  34.350  52.458  0.00  0.00     0.301 C 
ATOM      8  O   UNL d   1      50.147  34.078  53.236  0.00  0.00    -0.264 OA
BRANCH   7   9
ATOM      9  C   UNL d   1      49.596  34.536  51.995  0.00  0.00     0.088 A 
ATOM     10  S   UNL d   1      48.942  34.992  52.239  0.00  0.00    -0.082 SA
ATOM     11  C   UNL d   1      48.412  35.041  51.598  0.00  0.00     0.036 A 
ATOM     12  C   UNL d   1      48.738  34.620  50.968  0.00  0.00     0.008 A 
ATOM     13  C   UNL d   1      49.465  34.311  51.213  0.00  0.00     0.012 A 
ENDBRANCH   7   9
ENDBRANCH   2   6
BRANCH   3  14
ATOM     14  C   UNL d   1      53.125  33.126  53.702  0.00  0.00     0.026 A 
ATOM     15  C   UNL d   1      53.449  33.293  54.453  0.00  0.00     0.002 A 
ATOM     16  C   UNL d   1      53.922  32.725  54.831  0.00  0.00     0.000 A 
ATOM     17  C   UNL d   1      54.069  32.002  54.466  0.00  0.00     0.000 A 
ATOM     18  C   UNL d   1      53.752  31.830  53.724  0.00  0.00     0.000 A 
ATOM     19  C   UNL d   1      53.281  32.390  53.342  0.00  0.00     0.002 A 
ENDBRANCH   3  14
TORSDOF 3
ENDMDL
MODEL 3
REMARK VINA RESULT:      -7.1      1.749      4.521
REMARK  3 active torsions:
REMARK  status: ('A' for Active; 'I' for Inactive)
REMARK    1  A    between atoms: N_4  and  C_2 
REMARK    2  A    between atoms: C_10  and  C_3 
REMARK       I    between atoms: C_7  and  N_4 
REMARK    3  A    between atoms: C_8  and  C_7 
ROOT
ATOM      1  N   UNL d   1      51.137  33.218  53.089  0.00  0.00    -0.051 NA
ATOM      2  C   UNL d   1      51.929  33.101  53.269  0.00  0.00     0.760 A 
ATOM      3  C   UNL d   1      51.050  34.014  52.865  0.00  0.00     0.147 A 
ATOM      4  N   UNL d   1      52.339  33.819  53.159  0.00  0.00    -0.019 NA
ATOM      5  S   UNL d   1      51.788  34.373  52.911  0.00  0.00     0.052 SA
ENDROOT
BRANCH   2   6
ATOM      6  N   UNL d   1      52.346  32.427  53.524  0.00  0.00    -0.018 NA
ATOM      7  C   UNL d   1      52.587  31.853  52.983  0.00  0.00     0.301 C 
ATOM      8  O   UNL d   1      52.413  31.948  52.176  0.00  0.00    -0.264 OA
BRANCH   7   9
ATOM      9  C   UNL d   1      53.000  31.187  53.239  0.00  0.00     0.088 A 
ATOM     10  S   UNL d   1      52.787  30.395  53.089  0.00  0.00    -0.082 SA
ATOM     11  C   UNL d   1      53.356  29.906  53.449  0.00  0.00     0.036 A 
ATOM     12  C   UNL d   1      53.911  30.391  53.817  0.00  0.00     0.008 A 
ATOM     13  C   UNL d   1      53.692  31.178  53.687  0.00  0.00     0.012 A 
ENDBRANCH   7   9
ENDBRANCH   2   6
BRANCH   3  14
ATOM     14  C   UNL d   1      50.341  34.366  52.639  0.00  0.00     0.026 A 
ATOM     15  C   UNL d   1      49.909  34.811  53.197  0.00  0.00     0.002 A 
ATOM     16  C   UNL d   1      49.194  35.168  52.973  0.00  0.00     0.000 A 
ATOM     17  C   UNL d   1      48.914  35.081  52.203  0.00  0.00     0.000 A 
ATOM     18  C   UNL d   1      49.335  34.642  51.647  0.00  0.00     0.000 A 
ATOM     19  C   UNL d   1      50.048  34.285  51.863  0.00  0.00     0.002 A 
ENDBRANCH   3  14
TORSDOF 3
ENDMDL
MODEL 4
REMARK VINA RESULT:      -6.9      2.600      4.087
REMARK  3 active torsions:
REMARK  status: ('A' for Active; 'I' for Inactive)
REMARK    1  A    between atoms: N_4  and  C_2 
REMARK    2  A    between atoms: C_10  and  C_3 
REMARK       I    between atoms: C_7  and  N_4 
REMARK    3  A    between atoms: C_8  and  C_7 
ROOT
ATOM      1  N   UNL d   1      53.330  32.765  54.234  0.00  0.00    -0.051 NA
ATOM      2  C   UNL d   1      53.831  32.151  54.020  0.00  0.00     0.760 A 
ATOM      3  C   UNL d   1      53.709  33.476  54.030  0.00  0.00     0.147 A 
ATOM      4  N   UNL d   1      54.522  32.474  53.682  0.00  0.00    -0.019 NA
ATOM      5  S   UNL d   1      54.436  33.289  53.694  0.00  0.00     0.052 SA
ENDROOT
BRANCH   2   6
ATOM      6  N   UNL d   1      53.755  31.324  54.085  0.00  0.00    -0.018 NA
ATOM      7  C   UNL d   1      53.207  30.916  53.624  0.00  0.00     0.301 C 
ATOM      8  O   UNL d   1      52.726  31.332  53.090  0.00  0.00    -0.264 OA
BRANCH   7   9
ATOM      9  C   UNL d   1      53.135  30.097  53.693  0.00  0.00     0.088 A 
ATOM     10  S   UNL d   1      52.754  29.595  53.146  0.00  0.00    -0.082 SA
ATOM     11  C   UNL d   1      52.812  28.816  53.433  0.00  0.00     0.036 A 
ATOM     12  C   UNL d   1      53.224  28.839  54.147  0.00  0.00     0.008 A 
ATOM     13  C   UNL d   1      53.421  29.627  54.305  0.00  0.00     0.012 A 
ENDBRANCH   7   9
ENDBRANCH   2   6
BRANCH   3  14
ATOM     14  C   UNL d   1      53.398  34.229  54.150  0.00  0.00     0.026 A 
ATOM     15  C   UNL d   1      53.506  34.603  54.887  0.00  0.00     0.002 A 
ATOM     16  C   UNL d   1      53.193  35.362  55.011  0.00  0.00     0.000 A 
ATOM     17  C   UNL d   1      52.780  35.741  54.408  0.00  0.00     0.000 A 
ATOM     18  C   UNL d   1      52.669  35.376  53.677  0.00  0.00     0.000 A 
ATOM     19  C   UNL d   1      52.977  34.621  53.546  0.00  0.00     0.002 A 
ENDBRANCH   3  14
TORSDOF 3
ENDMDL
MODEL 5
REMARK VINA RESULT:      -6.8      1.040      4.657
REMARK  3 active torsions:
REMARK  status: ('A' for Active; 'I' for Inactive)
REMARK    1  A    between atoms: N_4  and  C_2 
REMARK    2  A    between atoms: C_10  and  C_3 
REMARK       I    between atoms: C_7  and  N_4 
REMARK    3  A    between atoms: C_8  and  C_7 
ROOT
ATOM      1  N   UNL d   1      50.982  33.992  53.224  0.00  0.00    -0.051 NA
ATOM      2  C   UNL d   1      51.734  33.702  53.068  0.00  0.00     0.760 A 
ATOM      3  C   UNL d   1      50.656  34.236  52.499  0.00  0.00     0.147 A 
ATOM      4  N   UNL d   1      51.880  33.762  52.249  0.00  0.00    -0.019 NA
ATOM      5  S   UNL d   1      51.211  34.092  51.910  0.00  0.00     0.052 SA
ENDROOT
BRANCH   2   6
ATOM      6  N   UNL d   1      52.320  33.384  53.566  0.00  0.00    -0.018 NA
ATOM      7  C   UNL d   1      52.876  33.875  53.928  0.00  0.00     0.301 C 
ATOM      8  O   UNL d   1      52.851  34.694  53.793  0.00  0.00    -0.264 OA
BRANCH   7   9
ATOM      9  C   UNL d   1      53.454  33.555  54.421  0.00  0.00     0.088 A 
ATOM     10  S   UNL d   1      53.981  33.991  54.898  0.00  0.00    -0.082 SA
ATOM     11  C   UNL d   1      54.467  33.448  55.301  0.00  0.00     0.036 A 
ATOM     12  C   UNL d   1      54.241  32.689  55.074  0.00  0.00     0.008 A 
ATOM     13  C   UNL d   1      53.619  32.756  54.534  0.00  0.00     0.012 A 
ENDBRANCH   7   9
ENDBRANCH   2   6
BRANCH   3  14
ATOM     14  C   UNL d   1      49.906  34.562  52.404  0.00  0.00     0.026 A 
ATOM     15  C   UNL d   1      49.495  34.441  51.689  0.00  0.00     0.002 A 
ATOM     16  C   UNL d   1      48.738  34.769  51.590  0.00  0.00     0.000 A 
ATOM     17  C   UNL d   1      48.399  35.211  52.197  0.00  0.00     0.000 A 
ATOM     18  C   UNL d   1      48.800  35.334  52.906  0.00  0.00     0.000 A 
ATOM     19  C   UNL d   1      49.552  35.010  53.012  0.00  0.00     0.002 A 
ENDBRANCH   3  14
TORSDOF 3
ENDMDL
MODEL 6
REMARK VINA RESULT:      -6.8      2.713      3.527
REMARK  3 active torsions:
REMARK  status: ('A' for Active; 'I' for Inactive)
REMARK    1  A    between atoms: N_4  and  C_2 
REMARK    2  A    between atoms: C_10  and  C_3 
REMARK       I    between atoms: C_7  and  N_4 
REMARK    3  A    between atoms: C_8  and  C_7 
ROOT
ATOM      1  N   UNL d   1      53.410  31.456  53.994  0.00  0.00    -0.051 NA
ATOM      2  C   UNL d   1      53.262  32.044  53.440  0.00  0.00     0.760 A 
ATOM      3  C   UNL d   1      53.208  30.730  53.643  0.00  0.00     0.147 A 
ATOM      4  N   UNL d   1      52.968  31.690  52.745  0.00  0.00    -0.019 NA
ATOM      5  S   UNL d   1      52.939  30.883  52.882  0.00  0.00     0.052 SA
ENDROOT
BRANCH   2   6
ATOM      6  N   UNL d   1      53.356  32.871  53.471  0.00  0.00    -0.018 NA
ATOM      7  C   UNL d   1      52.754  33.351  53.768  0.00  0.00     0.301 C 
ATOM      8  O   UNL d   1      52.048  33.006  54.038  0.00  0.00    -0.264 OA
BRANCH   7   9
ATOM      9  C   UNL d   1      52.851  34.169  53.797  0.00  0.00     0.088 A 
ATOM     10  S   UNL d   1      53.137  34.602  54.449  0.00  0.00    -0.082 SA
ATOM     11  C   UNL d   1      53.144  35.407  54.237  0.00  0.00     0.036 A 
ATOM     12  C   UNL d   1      52.866  35.467  53.463  0.00  0.00     0.008 A 
ATOM     13  C   UNL d   1      52.687  34.706  53.194  0.00  0.00     0.012 A 
ENDBRANCH   7   9
ENDBRANCH   2   6
BRANCH   3  14
ATOM     14  C   UNL d   1      53.271  29.995  54.009  0.00  0.00     0.026 A 
ATOM     15  C   UNL d   1      53.342  29.310  53.539  0.00  0.00     0.002 A 
ATOM     16  C   UNL d   1      53.406  28.567  53.904  0.00  0.00     0.000 A 
ATOM     17  C   UNL d   1      53.399  28.510  54.725  0.00  0.00     0.000 A 
ATOM     18  C   UNL d   1      53.330  29.184  55.196  0.00  0.00     0.000 A 
ATOM     19  C   UNL d   1      53.265  29.926  54.839  0.00  0.00     0.002 A 
ENDBRANCH   3  14
TORSDOF 3
ENDMDL
