MODEL 1
REMARK VINA RESULT:      -7.3      0.000      0.000
REMARK  4 active torsions:
REMARK  status: ('A' for Active; 'I' for Inactive)
REMARK    1  A    between atoms: S_3  and  C_1 
REMARK    2  A    between atoms: C_7  and  S_3 
REMARK    3  A    between atoms: S_11  and  C_4 
REMARK    4  A    between atoms: C_10  and  C_5 
ROOT
ATOM      1  C   UNL d   1     -48.068  13.323  22.985  0.00  0.00     0.199 A 
ATOM      2  N   UNL d   1     -48.440  14.057  22.937  0.00  0.00    -0.208 NA
ATOM      3  C   UNL d   1     -48.628  12.771  23.236  0.00  0.00     0.156 A 
ATOM      4  C   UNL d   1     -49.231  13.960  23.157  0.00  0.00     0.184 A 
ATOM      5  O   UNL d   1     -49.340  13.164  23.340  0.00  0.00    -0.281 OA
ENDROOT
BRANCH   1   6
ATOM      6  S   UNL d   1     -47.277  13.176  22.812  0.00  0.00     0.229 S 
ATOM      7  O   UNL d   1     -47.119  13.332  23.601  0.00  0.00    -0.215 OA
ATOM      8  O   UNL d   1     -47.429  13.019  22.021  0.00  0.00    -0.215 OA
BRANCH   6   9
ATOM      9  C   UNL d   1     -46.487  13.027  22.629  0.00  0.00     0.089 A 
ATOM     10  C   UNL d   1     -46.095  12.399  22.995  0.00  0.00     0.011 A 
ATOM     11  C   UNL d   1     -45.307  12.252  22.811  0.00  0.00     0.001 A 
ATOM     12  C   UNL d   1     -44.906  12.722  22.268  0.00  0.00     0.000 A 
ATOM     13  C   UNL d   1     -45.301  13.352  21.902  0.00  0.00     0.001 A 
ATOM     14  C   UNL d   1     -44.115  12.572  22.086  0.00  0.00     0.000 C 
ATOM     15  C   UNL d   1     -46.082  13.499  22.083  0.00  0.00     0.011 A 
ENDBRANCH   6   9
ENDBRANCH   1   6
BRANCH   3  16
ATOM     16  S   UNL d   1     -48.493  11.969  23.358  0.00  0.00    -0.086 SA
ATOM     17  C   UNL d   1     -49.083  11.503  23.697  0.00  0.00     0.076 C 
ENDBRANCH   3  16
BRANCH   4  18
ATOM     18  C   UNL d   1     -49.804  14.555  23.187  0.00  0.00     0.041 A 
ATOM     19  C   UNL d   1     -49.687  15.220  23.670  0.00  0.00     0.004 A 
ATOM     20  C   UNL d   1     -50.262  15.811  23.697  0.00  0.00     0.000 A 
ATOM     21  C   UNL d   1     -50.942  15.743  23.251  0.00  0.00     0.000 A 
ATOM     22  C   UNL d   1     -51.064  15.082  22.767  0.00  0.00     0.000 A 
ATOM     23  C   UNL d   1     -50.502  14.494  22.735  0.00  0.00     0.004 A 
ENDBRANCH   4  18
TORSDOF 4
ENDMDL
MODEL 2
REMARK VINA RESULT:      -7.1      1.574      4.775
REMARK  4 active torsions:
REMARK  status: ('A' for Active; 'I' for Inactive)
REMARK    1  A    between atoms: S_3  and  C_1 
REMARK    2  A    between atoms: C_7  and  S_3 
REMARK    3  A    between atoms: S_11  and  C_4 
REMARK    4  A    between atoms: C_10  and  C_5 
ROOT
ATOM      1  C   UNL d   1     -47.114  12.655  22.794  0.00  0.00     0.199 A 
ATOM      2  N   UNL d   1     -46.733  11.927  22.858  0.00  0.00    -0.208 NA
ATOM      3  C   UNL d   1     -46.562  13.244  22.967  0.00  0.00     0.156 A 
ATOM      4  C   UNL d   1     -45.946  12.064  23.069  0.00  0.00     0.184 A 
ATOM      5  O   UNL d   1     -45.847  12.880  23.135  0.00  0.00    -0.281 OA
ENDROOT
BRANCH   1   6
ATOM      6  S   UNL d   1     -47.904  12.765  22.594  0.00  0.00     0.229 S 
ATOM      7  O   UNL d   1     -48.064  12.763  23.398  0.00  0.00    -0.215 OA
ATOM      8  O   UNL d   1     -47.750  12.769  21.788  0.00  0.00    -0.215 OA
BRANCH   6   9
ATOM      9  C   UNL d   1     -48.694  12.876  22.384  0.00  0.00     0.089 A 
ATOM     10  C   UNL d   1     -48.910  12.861  21.588  0.00  0.00     0.011 A 
ATOM     11  C   UNL d   1     -49.697  12.972  21.380  0.00  0.00     0.001 A 
ATOM     12  C   UNL d   1     -50.272  13.097  21.955  0.00  0.00     0.000 A 
ATOM     13  C   UNL d   1     -50.053  13.112  22.754  0.00  0.00     0.001 A 
ATOM     14  C   UNL d   1     -51.062  13.208  21.744  0.00  0.00     0.000 C 
ATOM     15  C   UNL d   1     -49.272  13.002  22.963  0.00  0.00     0.011 A 
ENDBRANCH   6   9
ENDBRANCH   1   6
BRANCH   3  16
ATOM     16  S   UNL d   1     -46.706  14.054  22.969  0.00  0.00    -0.086 SA
ATOM     17  C   UNL d   1     -46.075  14.581  22.931  0.00  0.00     0.076 C 
ENDBRANCH   3  16
BRANCH   4  18
ATOM     18  C   UNL d   1     -45.366  11.487  23.192  0.00  0.00     0.041 A 
ATOM     19  C   UNL d   1     -44.590  11.616  22.928  0.00  0.00     0.004 A 
ATOM     20  C   UNL d   1     -44.015  11.038  23.052  0.00  0.00     0.000 A 
ATOM     21  C   UNL d   1     -44.209  10.342  23.432  0.00  0.00     0.000 A 
ATOM     22  C   UNL d   1     -44.982  10.208  23.698  0.00  0.00     0.000 A 
ATOM     23  C   UNL d   1     -45.555  10.774  23.579  0.00  0.00     0.004 A 
ENDBRANCH   4  18
TORSDOF 4
ENDMDL
MODEL 3
REMARK VINA RESULT:      -6.5      1.229      4.678
REMARK  4 active torsions:
REMARK  status: ('A' for Active; 'I' for Inactive)
REMARK    1  A    between atoms: S_3  and  C_1 
REMARK    2  A    between atoms: C_7  and  S_3 
REMARK    3  A    between atoms: S_11  and  C_4 
REMARK    4  A    between atoms: C_10  and  C_5 
ROOT
ATOM      1  C   UNL d   1     -46.599  13.104  22.569  0.00  0.00     0.199 A 
ATOM      2  N   UNL d   1     -45.892  13.292  22.190  0.00  0.00    -0.208 NA
ATOM      3  C   UNL d   1     -46.490  12.391  22.970  0.00  0.00     0.156 A 
ATOM      4  C   UNL d   1     -45.344  12.695  22.356  0.00  0.00     0.184 A 
ATOM      5  O   UNL d   1     -45.720  12.143  22.838  0.00  0.00    -0.281 OA
ENDROOT
BRANCH   1   6
ATOM      6  S   UNL d   1     -47.288  13.555  22.546  0.00  0.00     0.229 S 
ATOM      7  O   UNL d   1     -47.509  13.107  21.896  0.00  0.00    -0.215 OA
ATOM      8  O   UNL d   1     -47.072  14.006  23.197  0.00  0.00    -0.215 OA
BRANCH   6   9
ATOM      9  C   UNL d   1     -47.975  14.011  22.531  0.00  0.00     0.089 A 
ATOM     10  C   UNL d   1     -48.654  13.714  22.170  0.00  0.00     0.011 A 
ATOM     11  C   UNL d   1     -49.338  14.170  22.156  0.00  0.00     0.001 A 
ATOM     12  C   UNL d   1     -49.353  14.918  22.498  0.00  0.00     0.000 A 
ATOM     13  C   UNL d   1     -48.669  15.215  22.861  0.00  0.00     0.001 A 
ATOM     14  C   UNL d   1     -50.040  15.374  22.483  0.00  0.00     0.000 C 
ATOM     15  C   UNL d   1     -47.990  14.763  22.875  0.00  0.00     0.011 A 
ENDBRANCH   6   9
ENDBRANCH   1   6
BRANCH   3  16
ATOM     16  S   UNL d   1     -47.056  12.001  23.421  0.00  0.00    -0.086 SA
ATOM     17  C   UNL d   1     -46.904  11.239  23.696  0.00  0.00     0.076 C 
ENDBRANCH   3  16
BRANCH   4  18
ATOM     18  C   UNL d   1     -44.563  12.663  22.086  0.00  0.00     0.041 A 
ATOM     19  C   UNL d   1     -44.300  13.200  21.510  0.00  0.00     0.004 A 
ATOM     20  C   UNL d   1     -43.521  13.164  21.244  0.00  0.00     0.000 A 
ATOM     21  C   UNL d   1     -43.010  12.603  21.545  0.00  0.00     0.000 A 
ATOM     22  C   UNL d   1     -43.266  12.065  22.120  0.00  0.00     0.000 A 
ATOM     23  C   UNL d   1     -44.035  12.094  22.388  0.00  0.00     0.004 A 
ENDBRANCH   4  18
TORSDOF 4
ENDMDL
MODEL 4
REMARK VINA RESULT:      -6.5      1.317      1.991
REMARK  4 active torsions:
REMARK  status: ('A' for Active; 'I' for Inactive)
REMARK    1  A    between atoms: S_3  and  C_1 
REMARK    2  A    between atoms: C_7  and  S_3 
REMARK    3  A    between atoms: S_11  and  C_4 
REMARK    4  A    between atoms: C_10  and  C_5 
ROOT
ATOM      1  C   UNL d   1     -47.519  13.242  22.779  0.00  0.00     0.199 A 
ATOM      2  N   UNL d   1     -48.095  12.674  22.936  0.00  0.00    -0.208 NA
ATOM      3  C   UNL d   1     -47.881  13.984  22.806  0.00  0.00     0.156 A 
ATOM      4  C   UNL d   1     -48.814  13.064  23.061  0.00  0.00     0.184 A 
ATOM      5  O   UNL d   1     -48.674  13.871  22.979  0.00  0.00    -0.281 OA
ENDROOT
BRANCH   1   6
ATOM      6  S   UNL d   1     -46.725  13.088  22.624  0.00  0.00     0.229 S 
ATOM      7  O   UNL d   1     -46.577  13.295  23.403  0.00  0.00    -0.215 OA
ATOM      8  O   UNL d   1     -46.869  12.881  21.843  0.00  0.00    -0.215 OA
BRANCH   6   9
ATOM      9  C   UNL d   1     -45.933  12.931  22.459  0.00  0.00     0.089 A 
ATOM     10  C   UNL d   1     -45.552  12.308  22.842  0.00  0.00     0.011 A 
ATOM     11  C   UNL d   1     -44.762  12.153  22.677  0.00  0.00     0.001 A 
ATOM     12  C   UNL d   1     -44.347  12.612  22.134  0.00  0.00     0.000 A 
ATOM     13  C   UNL d   1     -44.731  13.237  21.749  0.00  0.00     0.001 A 
ATOM     14  C   UNL d   1     -43.554  12.454  21.969  0.00  0.00     0.000 C 
ATOM     15  C   UNL d   1     -45.515  13.392  21.913  0.00  0.00     0.011 A 
ENDBRANCH   6   9
ENDBRANCH   1   6
BRANCH   3  16
ATOM     16  S   UNL d   1     -47.508  14.706  22.681  0.00  0.00    -0.086 SA
ATOM     17  C   UNL d   1     -47.961  15.383  22.557  0.00  0.00     0.076 C 
ENDBRANCH   3  16
BRANCH   4  18
ATOM     18  C   UNL d   1     -49.538  12.705  23.235  0.00  0.00     0.041 A 
ATOM     19  C   UNL d   1     -50.247  13.122  23.120  0.00  0.00     0.004 A 
ATOM     20  C   UNL d   1     -50.967  12.761  23.295  0.00  0.00     0.000 A 
ATOM     21  C   UNL d   1     -50.983  11.996  23.580  0.00  0.00     0.000 A 
ATOM     22  C   UNL d   1     -50.280  11.574  23.697  0.00  0.00     0.000 A 
ATOM     23  C   UNL d   1     -49.564  11.925  23.526  0.00  0.00     0.004 A 
ENDBRANCH   4  18
TORSDOF 4
ENDMDL
MODEL 5
REMARK VINA RESULT:      -6.1      7.976      9.676
REMARK  4 active torsions:
REMARK  status: ('A' for Active; 'I' for Inactive)
REMARK    1  A    between atoms: S_3  and  C_1 
REMARK    2  A    between atoms: C_7  and  S_3 
REMARK    3  A    between atoms: S_11  and  C_4 
REMARK    4  A    between atoms: C_10  and  C_5 
ROOT
ATOM      1  C   UNL d   1     -39.555  14.780  20.257  0.00  0.00     0.199 A 
ATOM      2  N   UNL d   1     -39.054  14.426  20.807  0.00  0.00    -0.208 NA
ATOM      3  C   UNL d   1     -40.157  15.163  20.672  0.00  0.00     0.156 A 
ATOM      4  C   UNL d   1     -39.346  14.589  21.564  0.00  0.00     0.184 A 
ATOM      5  O   UNL d   1     -40.026  15.044  21.472  0.00  0.00    -0.281 OA
ENDROOT
BRANCH   1   6
ATOM      6  S   UNL d   1     -39.464  14.752  19.439  0.00  0.00     0.229 S 
ATOM      7  O   UNL d   1     -38.996  15.421  19.511  0.00  0.00    -0.215 OA
ATOM      8  O   UNL d   1     -39.931  14.081  19.362  0.00  0.00    -0.215 OA
BRANCH   6   9
ATOM      9  C   UNL d   1     -39.378  14.715  18.620  0.00  0.00     0.089 A 
ATOM     10  C   UNL d   1     -39.649  14.052  18.210  0.00  0.00     0.011 A 
ATOM     11  C   UNL d   1     -39.563  14.017  17.394  0.00  0.00     0.001 A 
ATOM     12  C   UNL d   1     -39.210  14.635  16.980  0.00  0.00     0.000 A 
ATOM     13  C   UNL d   1     -38.938  15.300  17.393  0.00  0.00     0.001 A 
ATOM     14  C   UNL d   1     -39.124  14.598  16.161  0.00  0.00     0.000 C 
ATOM     15  C   UNL d   1     -39.023  15.336  18.204  0.00  0.00     0.011 A 
ENDBRANCH   6   9
ENDBRANCH   1   6
BRANCH   3  16
ATOM     16  S   UNL d   1     -40.778  15.587  20.339  0.00  0.00    -0.086 SA
ATOM     17  C   UNL d   1     -41.352  15.921  20.827  0.00  0.00     0.076 C 
ENDBRANCH   3  16
BRANCH   4  18
ATOM     18  C   UNL d   1     -39.012  14.340  22.278  0.00  0.00     0.041 A 
ATOM     19  C   UNL d   1     -39.031  13.536  22.486  0.00  0.00     0.004 A 
ATOM     20  C   UNL d   1     -38.697  13.291  23.199  0.00  0.00     0.000 A 
ATOM     21  C   UNL d   1     -38.350  13.836  23.698  0.00  0.00     0.000 A 
ATOM     22  C   UNL d   1     -38.328  14.639  23.496  0.00  0.00     0.000 A 
ATOM     23  C   UNL d   1     -38.656  14.889  22.793  0.00  0.00     0.004 A 
ENDBRANCH   4  18
TORSDOF 4
ENDMDL
MODEL 6
REMARK VINA RESULT:      -5.9      8.960     10.562
REMARK  4 active torsions:
REMARK  status: ('A' for Active; 'I' for Inactive)
REMARK    1  A    between atoms: S_3  and  C_1 
REMARK    2  A    between atoms: C_7  and  S_3 
REMARK    3  A    between atoms: S_11  and  C_4 
REMARK    4  A    between atoms: C_10  and  C_5 
ROOT
ATOM      1  C   UNL d   1     -39.394  14.975  18.638  0.00  0.00     0.199 A 
ATOM      2  N   UNL d   1     -38.834  14.627  18.145  0.00  0.00    -0.208 NA
ATOM      3  C   UNL d   1     -40.015  15.246  18.165  0.00  0.00     0.156 A 
ATOM      4  C   UNL d   1     -39.107  14.681  17.366  0.00  0.00     0.184 A 
ATOM      5  O   UNL d   1     -39.836  15.064  17.387  0.00  0.00    -0.281 OA
ENDROOT
BRANCH   1   6
ATOM      6  S   UNL d   1     -39.337  15.039  19.457  0.00  0.00     0.229 S 
ATOM      7  O   UNL d   1     -39.715  14.312  19.497  0.00  0.00    -0.215 OA
ATOM      8  O   UNL d   1     -38.958  15.766  19.422  0.00  0.00    -0.215 OA
BRANCH   6   9
ATOM      9  C   UNL d   1     -39.274  15.111  20.276  0.00  0.00     0.089 A 
ATOM     10  C   UNL d   1     -39.685  14.588  20.764  0.00  0.00     0.011 A 
ATOM     11  C   UNL d   1     -39.622  14.662  21.580  0.00  0.00     0.001 A 
ATOM     12  C   UNL d   1     -39.154  15.250  21.916  0.00  0.00     0.000 A 
ATOM     13  C   UNL d   1     -38.743  15.774  21.424  0.00  0.00     0.001 A 
ATOM     14  C   UNL d   1     -39.092  15.322  22.735  0.00  0.00     0.000 C 
ATOM     15  C   UNL d   1     -38.804  15.702  20.613  0.00  0.00     0.011 A 
ENDBRANCH   6   9
ENDBRANCH   1   6
BRANCH   3  16
ATOM     16  S   UNL d   1     -40.692  15.629  18.432  0.00  0.00    -0.086 SA
ATOM     17  C   UNL d   1     -41.239  15.917  17.888  0.00  0.00     0.076 C 
ENDBRANCH   3  16
BRANCH   4  18
ATOM     18  C   UNL d   1     -38.717  14.401  16.692  0.00  0.00     0.041 A 
ATOM     19  C   UNL d   1     -38.350  14.935  16.173  0.00  0.00     0.004 A 
ATOM     20  C   UNL d   1     -37.962  14.651  15.503  0.00  0.00     0.000 A 
ATOM     21  C   UNL d   1     -37.940  13.850  15.351  0.00  0.00     0.000 A 
ATOM     22  C   UNL d   1     -38.304  13.312  15.865  0.00  0.00     0.000 A 
ATOM     23  C   UNL d   1     -38.689  13.584  16.529  0.00  0.00     0.004 A 
ENDBRANCH   4  18
TORSDOF 4
ENDMDL
MODEL 7
REMARK VINA RESULT:      -5.8      8.993     10.055
REMARK  4 active torsions:
REMARK  status: ('A' for Active; 'I' for Inactive)
REMARK    1  A    between atoms: S_3  and  C_1 
REMARK    2  A    between atoms: C_7  and  S_3 
REMARK    3  A    between atoms: S_11  and  C_4 
REMARK    4  A    between atoms: C_10  and  C_5 
ROOT
ATOM      1  C   UNL d   1     -39.351  14.352  19.102  0.00  0.00     0.199 A 
ATOM      2  N   UNL d   1     -39.402  14.525  19.906  0.00  0.00    -0.208 NA
ATOM      3  C   UNL d   1     -38.740  13.806  18.999  0.00  0.00     0.156 A 
ATOM      4  C   UNL d   1     -38.823  14.086  20.302  0.00  0.00     0.184 A 
ATOM      5  O   UNL d   1     -38.419  13.645  19.736  0.00  0.00    -0.281 OA
ENDROOT
BRANCH   1   6
ATOM      6  S   UNL d   1     -39.828  14.673  18.513  0.00  0.00     0.229 S 
ATOM      7  O   UNL d   1     -39.257  15.254  18.425  0.00  0.00    -0.215 OA
ATOM      8  O   UNL d   1     -40.404  14.093  18.598  0.00  0.00    -0.215 OA
BRANCH   6   9
ATOM      9  C   UNL d   1     -40.313  14.986  17.925  0.00  0.00     0.089 A 
ATOM     10  C   UNL d   1     -40.173  14.794  17.135  0.00  0.00     0.011 A 
ATOM     11  C   UNL d   1     -40.657  15.107  16.549  0.00  0.00     0.001 A 
ATOM     12  C   UNL d   1     -41.280  15.609  16.741  0.00  0.00     0.000 A 
ATOM     13  C   UNL d   1     -41.420  15.800  17.535  0.00  0.00     0.001 A 
ATOM     14  C   UNL d   1     -41.765  15.922  16.152  0.00  0.00     0.000 C 
ATOM     15  C   UNL d   1     -40.940  15.491  18.117  0.00  0.00     0.011 A 
ENDBRANCH   6   9
ENDBRANCH   1   6
BRANCH   3  16
ATOM     16  S   UNL d   1     -38.499  13.483  18.282  0.00  0.00    -0.086 SA
ATOM     17  C   UNL d   1     -37.942  12.876  18.275  0.00  0.00     0.076 C 
ENDBRANCH   3  16
BRANCH   4  18
ATOM     18  C   UNL d   1     -38.680  14.092  21.116  0.00  0.00     0.041 A 
ATOM     19  C   UNL d   1     -38.079  14.573  21.429  0.00  0.00     0.004 A 
ATOM     20  C   UNL d   1     -37.940  14.576  22.241  0.00  0.00     0.000 A 
ATOM     21  C   UNL d   1     -38.389  14.108  22.736  0.00  0.00     0.000 A 
ATOM     22  C   UNL d   1     -38.989  13.626  22.431  0.00  0.00     0.000 A 
ATOM     23  C   UNL d   1     -39.133  13.617  21.629  0.00  0.00     0.004 A 
ENDBRANCH   4  18
TORSDOF 4
ENDMDL
MODEL 8
REMARK VINA RESULT:      -5.8      1.194      2.003
REMARK  4 active torsions:
REMARK  status: ('A' for Active; 'I' for Inactive)
REMARK    1  A    between atoms: S_3  and  C_1 
REMARK    2  A    between atoms: C_7  and  S_3 
REMARK    3  A    between atoms: S_11  and  C_4 
REMARK    4  A    between atoms: C_10  and  C_5 
ROOT
ATOM      1  C   UNL d   1     -47.589  13.319  22.978  0.00  0.00     0.199 A 
ATOM      2  N   UNL d   1     -48.410  13.283  22.927  0.00  0.00    -0.208 NA
ATOM      3  C   UNL d   1     -47.362  14.103  22.854  0.00  0.00     0.156 A 
ATOM      4  C   UNL d   1     -48.693  14.044  22.772  0.00  0.00     0.184 A 
ATOM      5  O   UNL d   1     -48.041  14.545  22.728  0.00  0.00    -0.281 OA
ENDROOT
BRANCH   1   6
ATOM      6  S   UNL d   1     -47.091  12.681  23.127  0.00  0.00     0.229 S 
ATOM      7  O   UNL d   1     -46.666  13.182  23.618  0.00  0.00    -0.215 OA
ATOM      8  O   UNL d   1     -47.512  12.175  22.637  0.00  0.00    -0.215 OA
BRANCH   6   9
ATOM      9  C   UNL d   1     -46.597  12.036  23.270  0.00  0.00     0.089 A 
ATOM     10  C   UNL d   1     -45.788  12.102  23.126  0.00  0.00     0.011 A 
ATOM     11  C   UNL d   1     -45.297  11.458  23.269  0.00  0.00     0.001 A 
ATOM     12  C   UNL d   1     -45.604  10.749  23.554  0.00  0.00     0.000 A 
ATOM     13  C   UNL d   1     -46.417  10.685  23.698  0.00  0.00     0.001 A 
ATOM     14  C   UNL d   1     -45.109  10.104  23.697  0.00  0.00     0.000 C 
ATOM     15  C   UNL d   1     -46.905  11.323  23.557  0.00  0.00     0.011 A 
ENDBRANCH   6   9
ENDBRANCH   1   6
BRANCH   3  16
ATOM     16  S   UNL d   1     -46.590  14.387  22.858  0.00  0.00    -0.086 SA
ATOM     17  C   UNL d   1     -46.436  15.151  22.591  0.00  0.00     0.076 C 
ENDBRANCH   3  16
BRANCH   4  18
ATOM     18  C   UNL d   1     -49.486  14.260  22.678  0.00  0.00     0.041 A 
ATOM     19  C   UNL d   1     -49.879  14.096  21.964  0.00  0.00     0.004 A 
ATOM     20  C   UNL d   1     -50.669  14.312  21.875  0.00  0.00     0.000 A 
ATOM     21  C   UNL d   1     -51.064  14.685  22.484  0.00  0.00     0.000 A 
ATOM     22  C   UNL d   1     -50.678  14.851  23.197  0.00  0.00     0.000 A 
ATOM     23  C   UNL d   1     -49.897  14.641  23.294  0.00  0.00     0.004 A 
ENDBRANCH   4  18
TORSDOF 4
ENDMDL
MODEL 9
REMARK VINA RESULT:      -5.2      8.419     11.129
REMARK  4 active torsions:
REMARK  status: ('A' for Active; 'I' for Inactive)
REMARK    1  A    between atoms: S_3  and  C_1 
REMARK    2  A    between atoms: C_7  and  S_3 
REMARK    3  A    between atoms: S_11  and  C_4 
REMARK    4  A    between atoms: C_10  and  C_5 
ROOT
ATOM      1  C   UNL d   1     -38.940  14.102  17.707  0.00  0.00     0.199 A 
ATOM      2  N   UNL d   1     -38.938  14.426  16.950  0.00  0.00    -0.208 NA
ATOM      3  C   UNL d   1     -38.437  13.447  17.704  0.00  0.00     0.156 A 
ATOM      4  C   UNL d   1     -38.434  13.972  16.477  0.00  0.00     0.184 A 
ATOM      5  O   UNL d   1     -38.129  13.370  16.949  0.00  0.00    -0.281 OA
ENDROOT
BRANCH   1   6
ATOM      6  S   UNL d   1     -39.371  14.388  18.348  0.00  0.00     0.229 S 
ATOM      7  O   UNL d   1     -38.659  14.661  18.650  0.00  0.00    -0.215 OA
ATOM      8  O   UNL d   1     -40.086  14.116  18.050  0.00  0.00    -0.215 OA
BRANCH   6   9
ATOM      9  C   UNL d   1     -39.811  14.670  18.986  0.00  0.00     0.089 A 
ATOM     10  C   UNL d   1     -40.411  14.204  19.306  0.00  0.00     0.011 A 
ATOM     11  C   UNL d   1     -40.849  14.487  19.941  0.00  0.00     0.001 A 
ATOM     12  C   UNL d   1     -40.695  15.229  20.262  0.00  0.00     0.000 A 
ATOM     13  C   UNL d   1     -40.091  15.696  19.939  0.00  0.00     0.001 A 
ATOM     14  C   UNL d   1     -41.136  15.511  20.900  0.00  0.00     0.000 C 
ATOM     15  C   UNL d   1     -39.656  15.416  19.309  0.00  0.00     0.011 A 
ENDBRANCH   6   9
ENDBRANCH   1   6
BRANCH   3  16
ATOM     16  S   UNL d   1     -38.277  12.960  18.347  0.00  0.00    -0.086 SA
ATOM     17  C   UNL d   1     -37.968  12.207  18.221  0.00  0.00     0.076 C 
ENDBRANCH   3  16
BRANCH   4  18
ATOM     18  C   UNL d   1     -38.269  14.102  15.677  0.00  0.00     0.041 A 
ATOM     19  C   UNL d   1     -38.153  14.875  15.397  0.00  0.00     0.004 A 
ATOM     20  C   UNL d   1     -37.989  15.000  14.599  0.00  0.00     0.000 A 
ATOM     21  C   UNL d   1     -37.941  14.367  14.086  0.00  0.00     0.000 A 
ATOM     22  C   UNL d   1     -38.056  13.594  14.359  0.00  0.00     0.000 A 
ATOM     23  C   UNL d   1     -38.218  13.462  15.146  0.00  0.00     0.004 A 
ENDBRANCH   4  18
TORSDOF 4
ENDMDL
