MODEL 1
REMARK VINA RESULT:      -7.2      0.000      0.000
REMARK  7 active torsions:
REMARK  status: ('A' for Active; 'I' for Inactive)
REMARK    1  A    between atoms: C_11  and  C_3 
REMARK    2  A    between atoms: C_10  and  C_4 
REMARK    3  A    between atoms: O_16  and  C_10 
REMARK    4  A    between atoms: N_14  and  C_11 
REMARK    5  A    between atoms: C_21  and  N_14 
REMARK    6  A    between atoms: C_23  and  O_16 
REMARK    7  A    between atoms: C_20  and  C_21 
ROOT
ATOM      1  C   UNL d   1     -48.947  13.123  23.152  0.00  0.00     0.035 A 
ATOM      2  C   UNL d   1     -49.690  13.448  23.342  0.00  0.00     0.100 A 
ATOM      3  C   UNL d   1     -48.330  13.629  22.948  0.00  0.00     0.060 A 
ATOM      4  C   UNL d   1     -48.985  12.304  23.213  0.00  0.00     0.088 A 
ATOM      5  O   UNL d   1     -50.201  12.796  23.525  0.00  0.00    -0.307 OA
ATOM      6  C   UNL d   1     -49.767  12.127  23.444  0.00  0.00     0.105 A 
ATOM      7  C   UNL d   1     -48.460  14.456  22.934  0.00  0.00     0.197 A 
ATOM      8  C   UNL d   1     -49.830  14.273  23.331  0.00  0.00     0.026 A 
ATOM      9  C   UNL d   1     -49.214  14.778  23.127  0.00  0.00     0.041 A 
ATOM     10  O   UNL d   1     -47.829  14.974  22.725  0.00  0.00    -0.286 OA
ATOM     11  C   UNL d   1     -50.065  11.350  23.575  0.00  0.00     0.027 C 
ATOM     12  C   UNL d   1     -50.562  14.582  23.519  0.00  0.00     0.002 A 
ATOM     13  C   UNL d   1     -49.332  15.591  23.111  0.00  0.00     0.003 A 
ATOM     14  C   UNL d   1     -50.083  15.909  23.303  0.00  0.00     0.000 A 
ATOM     15  C   UNL d   1     -50.699  15.403  23.508  0.00  0.00     0.000 A 
ENDROOT
BRANCH   3  16
ATOM     16  C   UNL d   1     -47.580  13.273  22.758  0.00  0.00     0.102 C 
BRANCH  16  17
ATOM     17  N   UNL d   1     -46.914  13.795  22.572  0.00  0.00    -0.240 NA
BRANCH  17  18
ATOM     18  C   UNL d   1     -46.177  13.653  22.938  0.00  0.00     0.124 C 
BRANCH  18  19
ATOM     19  C   UNL d   1     -45.527  13.463  22.469  0.00  0.00     0.119 A 
ATOM     20  O   UNL d   1     -45.091  12.750  22.605  0.00  0.00    -0.304 OA
ATOM     21  C   UNL d   1     -44.487  12.723  22.056  0.00  0.00     0.123 A 
ATOM     22  C   UNL d   1     -44.539  13.382  21.598  0.00  0.00     0.029 A 
ATOM     23  C   UNL d   1     -45.165  13.842  21.837  0.00  0.00     0.028 A 
ENDBRANCH  18  19
ENDBRANCH  17  18
ENDBRANCH  16  17
ENDBRANCH   3  16
BRANCH   4  24
ATOM     24  C   UNL d   1     -48.377  11.740  23.076  0.00  0.00     0.302 C 
ATOM     25  O   UNL d   1     -48.224  11.462  22.285  0.00  0.00    -0.259 OA
BRANCH  24  26
ATOM     26  O   UNL d   1     -47.918  11.445  23.697  0.00  0.00    -0.271 OA
BRANCH  26  27
ATOM     27  C   UNL d   1     -47.657  10.666  23.676  0.00  0.00     0.126 C 
ATOM     28  C   UNL d   1     -46.864  10.503  23.698  0.00  0.00     0.029 C 
ENDBRANCH  26  27
ENDBRANCH  24  26
ENDBRANCH   4  24
TORSDOF 7
ENDMDL
MODEL 2
REMARK VINA RESULT:      -6.6      8.019      9.877
REMARK  7 active torsions:
REMARK  status: ('A' for Active; 'I' for Inactive)
REMARK    1  A    between atoms: C_11  and  C_3 
REMARK    2  A    between atoms: C_10  and  C_4 
REMARK    3  A    between atoms: O_16  and  C_10 
REMARK    4  A    between atoms: N_14  and  C_11 
REMARK    5  A    between atoms: C_21  and  N_14 
REMARK    6  A    between atoms: C_23  and  O_16 
REMARK    7  A    between atoms: C_20  and  C_21 
ROOT
ATOM      1  C   UNL d   1     -39.730  14.681  20.527  0.00  0.00     0.035 A 
ATOM      2  C   UNL d   1     -39.965  14.582  21.320  0.00  0.00     0.100 A 
ATOM      3  C   UNL d   1     -39.059  14.288  20.258  0.00  0.00     0.060 A 
ATOM      4  C   UNL d   1     -40.255  15.188  20.149  0.00  0.00     0.088 A 
ATOM      5  O   UNL d   1     -40.665  15.050  21.427  0.00  0.00    -0.307 OA
ATOM      6  C   UNL d   1     -40.822  15.402  20.724  0.00  0.00     0.105 A 
ATOM      7  C   UNL d   1     -38.626  13.798  20.783  0.00  0.00     0.197 A 
ATOM      8  C   UNL d   1     -39.541  14.095  21.853  0.00  0.00     0.026 A 
ATOM      9  C   UNL d   1     -38.870  13.702  21.584  0.00  0.00     0.041 A 
ATOM     10  O   UNL d   1     -37.940  13.396  20.507  0.00  0.00    -0.286 OA
ATOM     11  C   UNL d   1     -41.473  15.918  20.587  0.00  0.00     0.027 C 
ATOM     12  C   UNL d   1     -39.779  14.004  22.628  0.00  0.00     0.002 A 
ATOM     13  C   UNL d   1     -38.440  13.220  22.091  0.00  0.00     0.003 A 
ATOM     14  C   UNL d   1     -38.684  13.127  22.887  0.00  0.00     0.000 A 
ATOM     15  C   UNL d   1     -39.355  13.520  23.156  0.00  0.00     0.000 A 
ENDROOT
BRANCH   3  16
ATOM     16  C   UNL d   1     -38.838  14.404  19.444  0.00  0.00     0.102 C 
BRANCH  16  17
ATOM     17  N   UNL d   1     -38.530  13.726  19.002  0.00  0.00    -0.240 NA
BRANCH  17  18
ATOM     18  C   UNL d   1     -37.958  13.859  18.408  0.00  0.00     0.124 C 
BRANCH  18  19
ATOM     19  C   UNL d   1     -38.096  13.578  17.647  0.00  0.00     0.119 A 
ATOM     20  O   UNL d   1     -37.941  14.065  16.972  0.00  0.00    -0.304 OA
ATOM     21  C   UNL d   1     -38.132  13.632  16.307  0.00  0.00     0.123 A 
ATOM     22  C   UNL d   1     -38.394  12.911  16.548  0.00  0.00     0.029 A 
ATOM     23  C   UNL d   1     -38.378  12.862  17.359  0.00  0.00     0.028 A 
ENDBRANCH  18  19
ENDBRANCH  17  18
ENDBRANCH  16  17
ENDBRANCH   3  16
BRANCH   4  24
ATOM     24  C   UNL d   1     -40.246  15.451  19.352  0.00  0.00     0.302 C 
ATOM     25  O   UNL d   1     -39.596  15.922  19.065  0.00  0.00    -0.259 OA
BRANCH  24  26
ATOM     26  O   UNL d   1     -40.859  15.262  18.830  0.00  0.00    -0.271 OA
BRANCH  26  27
ATOM     27  C   UNL d   1     -41.009  15.747  18.184  0.00  0.00     0.126 C 
ATOM     28  C   UNL d   1     -41.238  15.423  17.478  0.00  0.00     0.029 C 
ENDBRANCH  26  27
ENDBRANCH  24  26
ENDBRANCH   4  24
TORSDOF 7
ENDMDL
MODEL 3
REMARK VINA RESULT:      -6.6      1.422      4.837
REMARK  7 active torsions:
REMARK  status: ('A' for Active; 'I' for Inactive)
REMARK    1  A    between atoms: C_11  and  C_3 
REMARK    2  A    between atoms: C_10  and  C_4 
REMARK    3  A    between atoms: O_16  and  C_10 
REMARK    4  A    between atoms: N_14  and  C_11 
REMARK    5  A    between atoms: C_21  and  N_14 
REMARK    6  A    between atoms: C_23  and  O_16 
REMARK    7  A    between atoms: C_20  and  C_21 
ROOT
ATOM      1  C   UNL d   1     -46.528  12.807  23.072  0.00  0.00     0.035 A 
ATOM      2  C   UNL d   1     -45.719  12.657  22.949  0.00  0.00     0.100 A 
ATOM      3  C   UNL d   1     -47.016  12.192  23.320  0.00  0.00     0.060 A 
ATOM      4  C   UNL d   1     -46.686  13.597  22.908  0.00  0.00     0.088 A 
ATOM      5  O   UNL d   1     -45.370  13.389  22.699  0.00  0.00    -0.307 OA
ATOM      6  C   UNL d   1     -45.957  13.935  22.681  0.00  0.00     0.105 A 
ATOM      7  C   UNL d   1     -46.691  11.429  23.444  0.00  0.00     0.197 A 
ATOM      8  C   UNL d   1     -45.383  11.900  23.070  0.00  0.00     0.026 A 
ATOM      9  C   UNL d   1     -45.871  11.284  23.318  0.00  0.00     0.041 A 
ATOM     10  O   UNL d   1     -47.189  10.800  23.698  0.00  0.00    -0.286 OA
ATOM     11  C   UNL d   1     -45.848  14.740  22.460  0.00  0.00     0.027 C 
ATOM     12  C   UNL d   1     -44.589  11.761  22.947  0.00  0.00     0.002 A 
ATOM     13  C   UNL d   1     -45.561  10.534  23.442  0.00  0.00     0.003 A 
ATOM     14  C   UNL d   1     -44.744  10.392  23.316  0.00  0.00     0.000 A 
ATOM     15  C   UNL d   1     -44.257  11.007  23.068  0.00  0.00     0.000 A 
ENDROOT
BRANCH   3  16
ATOM     16  C   UNL d   1     -47.840  12.370  23.438  0.00  0.00     0.102 C 
BRANCH  16  17
ATOM     17  N   UNL d   1     -48.425  11.769  23.219  0.00  0.00    -0.240 NA
BRANCH  17  18
ATOM     18  C   UNL d   1     -49.121  11.702  23.675  0.00  0.00     0.124 C 
BRANCH  18  19
ATOM     19  C   UNL d   1     -49.845  11.891  23.331  0.00  0.00     0.119 A 
ATOM     20  O   UNL d   1     -50.007  11.686  22.526  0.00  0.00    -0.304 OA
ATOM     21  C   UNL d   1     -50.762  11.946  22.353  0.00  0.00     0.123 A 
ATOM     22  C   UNL d   1     -51.060  12.296  23.013  0.00  0.00     0.029 A 
ATOM     23  C   UNL d   1     -50.516  12.270  23.616  0.00  0.00     0.028 A 
ENDBRANCH  18  19
ENDBRANCH  17  18
ENDBRANCH  16  17
ENDBRANCH   3  16
BRANCH   4  24
ATOM     24  C   UNL d   1     -47.419  14.005  22.952  0.00  0.00     0.302 C 
ATOM     25  O   UNL d   1     -47.823  14.076  23.698  0.00  0.00    -0.259 OA
BRANCH  24  26
ATOM     26  O   UNL d   1     -47.763  14.343  22.280  0.00  0.00    -0.271 OA
BRANCH  26  27
ATOM     27  C   UNL d   1     -48.201  15.035  22.350  0.00  0.00     0.126 C 
ATOM     28  C   UNL d   1     -48.791  15.197  21.820  0.00  0.00     0.029 C 
ENDBRANCH  26  27
ENDBRANCH  24  26
ENDBRANCH   4  24
TORSDOF 7
ENDMDL
MODEL 4
REMARK VINA RESULT:      -6.3      5.356      9.253
REMARK  7 active torsions:
REMARK  status: ('A' for Active; 'I' for Inactive)
REMARK    1  A    between atoms: C_11  and  C_3 
REMARK    2  A    between atoms: C_10  and  C_4 
REMARK    3  A    between atoms: O_16  and  C_10 
REMARK    4  A    between atoms: N_14  and  C_11 
REMARK    5  A    between atoms: C_21  and  N_14 
REMARK    6  A    between atoms: C_23  and  O_16 
REMARK    7  A    between atoms: C_20  and  C_21 
ROOT
ATOM      1  C   UNL d   1     -39.691  14.968  19.872  0.00  0.00     0.035 A 
ATOM      2  C   UNL d   1     -39.333  15.232  19.169  0.00  0.00     0.100 A 
ATOM      3  C   UNL d   1     -40.403  14.558  19.829  0.00  0.00     0.060 A 
ATOM      4  C   UNL d   1     -39.224  15.187  20.513  0.00  0.00     0.088 A 
ATOM      5  O   UNL d   1     -38.618  15.629  19.393  0.00  0.00    -0.307 OA
ATOM      6  C   UNL d   1     -38.569  15.593  20.192  0.00  0.00     0.105 A 
ATOM      7  C   UNL d   1     -40.754  14.415  19.082  0.00  0.00     0.197 A 
ATOM      8  C   UNL d   1     -39.675  15.095  18.417  0.00  0.00     0.026 A 
ATOM      9  C   UNL d   1     -40.387  14.685  18.373  0.00  0.00     0.041 A 
ATOM     10  O   UNL d   1     -41.483  13.995  19.037  0.00  0.00    -0.286 OA
ATOM     11  C   UNL d   1     -37.939  15.922  20.645  0.00  0.00     0.027 C 
ATOM     12  C   UNL d   1     -39.317  15.357  17.732  0.00  0.00     0.002 A 
ATOM     13  C   UNL d   1     -40.738  14.540  17.645  0.00  0.00     0.003 A 
ATOM     14  C   UNL d   1     -40.371  14.809  16.942  0.00  0.00     0.000 A 
ATOM     15  C   UNL d   1     -39.659  15.219  16.985  0.00  0.00     0.000 A 
ENDROOT
BRANCH   3  16
ATOM     16  C   UNL d   1     -40.750  14.298  20.562  0.00  0.00     0.102 C 
BRANCH  16  17
ATOM     17  N   UNL d   1     -41.565  14.004  20.549  0.00  0.00    -0.240 NA
BRANCH  17  18
ATOM     18  C   UNL d   1     -41.999  13.990  21.262  0.00  0.00     0.124 C 
BRANCH  18  19
ATOM     19  C   UNL d   1     -42.587  13.423  21.362  0.00  0.00     0.119 A 
ATOM     20  O   UNL d   1     -43.405  13.644  21.359  0.00  0.00    -0.304 OA
ATOM     21  C   UNL d   1     -43.844  12.965  21.470  0.00  0.00     0.123 A 
ATOM     22  C   UNL d   1     -43.333  12.348  21.539  0.00  0.00     0.029 A 
ATOM     23  C   UNL d   1     -42.565  12.609  21.476  0.00  0.00     0.028 A 
ENDBRANCH  18  19
ENDBRANCH  17  18
ENDBRANCH  16  17
ENDBRANCH   3  16
BRANCH   4  24
ATOM     24  C   UNL d   1     -39.357  15.044  21.330  0.00  0.00     0.302 C 
ATOM     25  O   UNL d   1     -39.811  15.598  21.792  0.00  0.00    -0.259 OA
BRANCH  24  26
ATOM     26  O   UNL d   1     -39.055  14.370  21.702  0.00  0.00    -0.271 OA
BRANCH  26  27
ATOM     27  C   UNL d   1     -38.884  14.391  22.506  0.00  0.00     0.126 C 
ATOM     28  C   UNL d   1     -38.629  13.721  22.884  0.00  0.00     0.029 C 
ENDBRANCH  26  27
ENDBRANCH  24  26
ENDBRANCH   4  24
TORSDOF 7
ENDMDL
MODEL 5
REMARK VINA RESULT:      -4.5      1.648      2.667
REMARK  7 active torsions:
REMARK  status: ('A' for Active; 'I' for Inactive)
REMARK    1  A    between atoms: C_11  and  C_3 
REMARK    2  A    between atoms: C_10  and  C_4 
REMARK    3  A    between atoms: O_16  and  C_10 
REMARK    4  A    between atoms: N_14  and  C_11 
REMARK    5  A    between atoms: C_21  and  N_14 
REMARK    6  A    between atoms: C_23  and  O_16 
REMARK    7  A    between atoms: C_20  and  C_21 
ROOT
ATOM      1  C   UNL d   1     -47.833  12.968  22.557  0.00  0.00     0.035 A 
ATOM      2  C   UNL d   1     -47.960  13.762  22.338  0.00  0.00     0.100 A 
ATOM      3  C   UNL d   1     -47.104  12.753  22.875  0.00  0.00     0.060 A 
ATOM      4  C   UNL d   1     -48.511  12.531  22.399  0.00  0.00     0.088 A 
ATOM      5  O   UNL d   1     -48.750  13.807  22.034  0.00  0.00    -0.307 OA
ATOM      6  C   UNL d   1     -49.062  13.069  22.077  0.00  0.00     0.105 A 
ATOM      7  C   UNL d   1     -46.507  13.333  22.972  0.00  0.00     0.197 A 
ATOM      8  C   UNL d   1     -47.370  14.349  22.431  0.00  0.00     0.026 A 
ATOM      9  C   UNL d   1     -46.642  14.134  22.749  0.00  0.00     0.041 A 
ATOM     10  O   UNL d   1     -45.762  13.113  23.298  0.00  0.00    -0.286 OA
ATOM     11  C   UNL d   1     -49.841  12.869  21.830  0.00  0.00     0.027 C 
ATOM     12  C   UNL d   1     -47.503  15.124  22.214  0.00  0.00     0.002 A 
ATOM     13  C   UNL d   1     -46.051  14.695  22.848  0.00  0.00     0.003 A 
ATOM     14  C   UNL d   1     -46.188  15.491  22.625  0.00  0.00     0.000 A 
ATOM     15  C   UNL d   1     -46.916  15.706  22.307  0.00  0.00     0.000 A 
ENDROOT
BRANCH   3  16
ATOM     16  C   UNL d   1     -46.998  11.936  23.091  0.00  0.00     0.102 C 
BRANCH  16  17
ATOM     17  N   UNL d   1     -46.212  11.680  23.350  0.00  0.00    -0.240 NA
BRANCH  17  18
ATOM     18  C   UNL d   1     -46.130  10.925  23.697  0.00  0.00     0.124 C 
BRANCH  18  19
ATOM     19  C   UNL d   1     -45.393  10.558  23.689  0.00  0.00     0.119 A 
ATOM     20  O   UNL d   1     -44.682  11.017  23.673  0.00  0.00    -0.304 OA
ATOM     21  C   UNL d   1     -44.053  10.497  23.669  0.00  0.00     0.123 A 
ATOM     22  C   UNL d   1     -44.350   9.750  23.681  0.00  0.00     0.029 A 
ATOM     23  C   UNL d   1     -45.163   9.769  23.694  0.00  0.00     0.028 A 
ENDBRANCH  18  19
ENDBRANCH  17  18
ENDBRANCH  16  17
ENDBRANCH   3  16
BRANCH   4  24
ATOM     24  C   UNL d   1     -48.646  11.712  22.526  0.00  0.00     0.302 C 
ATOM     25  O   UNL d   1     -48.338  11.138  21.977  0.00  0.00    -0.259 OA
BRANCH  24  26
ATOM     26  O   UNL d   1     -49.078  11.444  23.179  0.00  0.00    -0.271 OA
BRANCH  26  27
ATOM     27  C   UNL d   1     -49.835  11.144  23.072  0.00  0.00     0.126 C 
ATOM     28  C   UNL d   1     -50.237  10.823  23.698  0.00  0.00     0.029 C 
ENDBRANCH  26  27
ENDBRANCH  24  26
ENDBRANCH   4  24
TORSDOF 7
ENDMDL
MODEL 6
REMARK VINA RESULT:      -4.5      1.378      2.063
REMARK  7 active torsions:
REMARK  status: ('A' for Active; 'I' for Inactive)
REMARK    1  A    between atoms: C_11  and  C_3 
REMARK    2  A    between atoms: C_10  and  C_4 
REMARK    3  A    between atoms: O_16  and  C_10 
REMARK    4  A    between atoms: N_14  and  C_11 
REMARK    5  A    between atoms: C_21  and  N_14 
REMARK    6  A    between atoms: C_23  and  O_16 
REMARK    7  A    between atoms: C_20  and  C_21 
ROOT
ATOM      1  C   UNL d   1     -47.033  12.702  22.886  0.00  0.00     0.035 A 
ATOM      2  C   UNL d   1     -47.741  13.099  23.071  0.00  0.00     0.100 A 
ATOM      3  C   UNL d   1     -46.411  13.128  22.554  0.00  0.00     0.060 A 
ATOM      4  C   UNL d   1     -47.106  11.909  23.088  0.00  0.00     0.088 A 
ATOM      5  O   UNL d   1     -48.266  12.520  23.399  0.00  0.00    -0.307 OA
ATOM      6  C   UNL d   1     -47.874  11.821  23.402  0.00  0.00     0.105 A 
ATOM      7  C   UNL d   1     -46.501  13.948  22.408  0.00  0.00     0.197 A 
ATOM      8  C   UNL d   1     -47.842  13.918  22.930  0.00  0.00     0.026 A 
ATOM      9  C   UNL d   1     -47.220  14.343  22.598  0.00  0.00     0.041 A 
ATOM     10  O   UNL d   1     -45.865  14.383  22.069  0.00  0.00    -0.286 OA
ATOM     11  C   UNL d   1     -48.198  11.097  23.685  0.00  0.00     0.027 C 
ATOM     12  C   UNL d   1     -48.539  14.299  23.114  0.00  0.00     0.002 A 
ATOM     13  C   UNL d   1     -47.299  15.148  22.452  0.00  0.00     0.003 A 
ATOM     14  C   UNL d   1     -48.016  15.539  22.641  0.00  0.00     0.000 A 
ATOM     15  C   UNL d   1     -48.637  15.114  22.973  0.00  0.00     0.000 A 
ENDROOT
BRANCH   3  16
ATOM     16  C   UNL d   1     -45.697  12.700  22.374  0.00  0.00     0.102 C 
BRANCH  16  17
ATOM     17  N   UNL d   1     -45.040  13.133  22.011  0.00  0.00    -0.240 NA
BRANCH  17  18
ATOM     18  C   UNL d   1     -44.261  12.858  22.133  0.00  0.00     0.124 C 
BRANCH  18  19
ATOM     19  C   UNL d   1     -43.670  13.081  21.606  0.00  0.00     0.119 A 
ATOM     20  O   UNL d   1     -43.098  13.667  21.821  0.00  0.00    -0.304 OA
ATOM     21  C   UNL d   1     -42.593  13.763  21.187  0.00  0.00     0.123 A 
ATOM     22  C   UNL d   1     -42.833  13.266  20.602  0.00  0.00     0.029 A 
ATOM     23  C   UNL d   1     -43.486  12.844  20.840  0.00  0.00     0.028 A 
ENDBRANCH  18  19
ENDBRANCH  17  18
ENDBRANCH  16  17
ENDBRANCH   3  16
BRANCH   4  24
ATOM     24  C   UNL d   1     -46.539  11.293  23.005  0.00  0.00     0.302 C 
ATOM     25  O   UNL d   1     -46.527  10.816  22.300  0.00  0.00    -0.259 OA
BRANCH  24  26
ATOM     26  O   UNL d   1     -45.986  11.137  23.600  0.00  0.00    -0.271 OA
BRANCH  26  27
ATOM     27  C   UNL d   1     -45.650  10.389  23.658  0.00  0.00     0.126 C 
ATOM     28  C   UNL d   1     -44.845  10.308  23.697  0.00  0.00     0.029 C 
ENDBRANCH  26  27
ENDBRANCH  24  26
ENDBRANCH   4  24
TORSDOF 7
ENDMDL
