MODEL 1
REMARK VINA RESULT:      -5.9      0.000      0.000
REMARK  4 active torsions:
REMARK  status: ('A' for Active; 'I' for Inactive)
REMARK    1  A    between atoms: C_6  and  C_1 
REMARK    2  A    between atoms: O_15  and  C_6 
REMARK    3  A    between atoms: C_7  and  C_8 
REMARK    4  A    between atoms: C_16  and  O_15 
ROOT
ATOM      1  C   UNL d   1      57.345   0.054  31.114  0.00  0.00     0.145 A 
ATOM      2  N   UNL d   1      57.108  -0.686  31.372  0.00  0.00    -0.240 NA
ATOM      3  C   UNL d   1      56.991   0.625  31.593  0.00  0.00     0.026 A 
ATOM      4  C   UNL d   1      56.529   0.234  32.152  0.00  0.00     0.019 A 
ATOM      5  C   UNL d   1      56.599  -0.584  32.018  0.00  0.00     0.082 A 
ATOM      6  C   UNL d   1      55.644  -0.028  33.252  0.00  0.00     0.065 A 
ATOM      7  C   UNL d   1      56.050   0.513  32.771  0.00  0.00     0.008 A 
ATOM      8  C   UNL d   1      56.197  -1.118  32.495  0.00  0.00     0.019 A 
ATOM      9  C   UNL d   1      55.715  -0.841  33.117  0.00  0.00     0.008 A 
ENDROOT
BRANCH   1  10
ATOM     10  C   UNL d   1      57.853   0.211  30.484  0.00  0.00     0.318 C 
ATOM     11  O   UNL d   1      57.558   0.290  29.721  0.00  0.00    -0.257 OA
BRANCH  10  12
ATOM     12  O   UNL d   1      58.668   0.289  30.620  0.00  0.00    -0.270 OA
BRANCH  12  13
ATOM     13  C   UNL d   1      59.177   0.413  29.987  0.00  0.00     0.126 C 
ATOM     14  C   UNL d   1      59.984   0.524  30.113  0.00  0.00     0.029 C 
ENDBRANCH  12  13
ENDBRANCH  10  12
ENDBRANCH   1  10
BRANCH   6  15
ATOM     15  C   UNL d   1      55.169   0.246  33.864  0.00  0.00     0.211 C 
ATOM     16  O   UNL d   1      55.454   0.242  34.639  0.00  0.00    -0.644 OA
ATOM     17  O   UNL d   1      54.409   0.527  33.707  0.00  0.00    -0.644 OA
ENDBRANCH   6  15
TORSDOF 4
ENDMDL
MODEL 2
REMARK VINA RESULT:      -4.9      0.850      4.017
REMARK  4 active torsions:
REMARK  status: ('A' for Active; 'I' for Inactive)
REMARK    1  A    between atoms: C_6  and  C_1 
REMARK    2  A    between atoms: O_15  and  C_6 
REMARK    3  A    between atoms: C_7  and  C_8 
REMARK    4  A    between atoms: C_16  and  O_15 
ROOT
ATOM      1  C   UNL d   1      55.655   0.137  33.170  0.00  0.00     0.145 A 
ATOM      2  N   UNL d   1      55.838  -0.618  32.911  0.00  0.00    -0.240 NA
ATOM      3  C   UNL d   1      56.067   0.681  32.708  0.00  0.00     0.026 A 
ATOM      4  C   UNL d   1      56.510   0.258  32.156  0.00  0.00     0.019 A 
ATOM      5  C   UNL d   1      56.370  -0.553  32.279  0.00  0.00     0.082 A 
ATOM      6  C   UNL d   1      57.400  -0.066  31.077  0.00  0.00     0.065 A 
ATOM      7  C   UNL d   1      57.028   0.503  31.552  0.00  0.00     0.008 A 
ATOM      8  C   UNL d   1      56.740  -1.114  31.807  0.00  0.00     0.019 A 
ATOM      9  C   UNL d   1      57.259  -0.872  31.201  0.00  0.00     0.008 A 
ENDROOT
BRANCH   1  10
ATOM     10  C   UNL d   1      55.145   0.329  33.789  0.00  0.00     0.318 C 
ATOM     11  O   UNL d   1      54.345   0.454  33.647  0.00  0.00    -0.257 OA
BRANCH  10  12
ATOM     12  O   UNL d   1      55.441   0.398  34.561  0.00  0.00    -0.270 OA
BRANCH  12  13
ATOM     13  C   UNL d   1      54.938   0.620  35.172  0.00  0.00     0.126 C 
ATOM     14  C   UNL d   1      55.219   0.682  35.945  0.00  0.00     0.029 C 
ENDBRANCH  12  13
ENDBRANCH  10  12
ENDBRANCH   1  10
BRANCH   6  15
ATOM     15  C   UNL d   1      57.912   0.174  30.480  0.00  0.00     0.211 C 
ATOM     16  O   UNL d   1      58.603   0.582  30.669  0.00  0.00    -0.644 OA
ATOM     17  O   UNL d   1      57.735   0.007  29.690  0.00  0.00    -0.644 OA
ENDBRANCH   6  15
TORSDOF 4
ENDMDL
MODEL 3
REMARK VINA RESULT:      -4.7      1.046      1.477
REMARK  4 active torsions:
REMARK  status: ('A' for Active; 'I' for Inactive)
REMARK    1  A    between atoms: C_6  and  C_1 
REMARK    2  A    between atoms: O_15  and  C_6 
REMARK    3  A    between atoms: C_7  and  C_8 
REMARK    4  A    between atoms: C_16  and  O_15 
ROOT
ATOM      1  C   UNL d   1      57.997   0.150  30.554  0.00  0.00     0.145 A 
ATOM      2  N   UNL d   1      57.865   0.682  31.162  0.00  0.00    -0.240 NA
ATOM      3  C   UNL d   1      57.563  -0.535  30.707  0.00  0.00     0.026 A 
ATOM      4  C   UNL d   1      57.158  -0.425  31.416  0.00  0.00     0.019 A 
ATOM      5  C   UNL d   1      57.344   0.333  31.705  0.00  0.00     0.082 A 
ATOM      6  C   UNL d   1      56.314  -0.645  32.557  0.00  0.00     0.065 A 
ATOM      7  C   UNL d   1      56.641  -0.916  31.844  0.00  0.00     0.008 A 
ATOM      8  C   UNL d   1      57.019   0.600  32.410  0.00  0.00     0.019 A 
ATOM      9  C   UNL d   1      56.500   0.109  32.841  0.00  0.00     0.008 A 
ENDROOT
BRANCH   1  10
ATOM     10  C   UNL d   1      58.480   0.270  29.897  0.00  0.00     0.318 C 
ATOM     11  O   UNL d   1      58.153   0.343  29.147  0.00  0.00    -0.257 OA
BRANCH  10  12
ATOM     12  O   UNL d   1      59.303   0.318  29.993  0.00  0.00    -0.270 OA
BRANCH  12  13
ATOM     13  C   UNL d   1      59.794   0.255  29.338  0.00  0.00     0.126 C 
ATOM     14  C   UNL d   1      60.605   0.388  29.408  0.00  0.00     0.029 C 
ENDBRANCH  12  13
ENDBRANCH  10  12
ENDBRANCH   1  10
BRANCH   6  15
ATOM     15  C   UNL d   1      55.803  -1.129  32.981  0.00  0.00     0.211 C 
ATOM     16  O   UNL d   1      55.150  -0.802  33.365  0.00  0.00    -0.644 OA
ATOM     17  O   UNL d   1      55.940  -1.942  33.023  0.00  0.00    -0.644 OA
ENDBRANCH   6  15
TORSDOF 4
ENDMDL
MODEL 4
REMARK VINA RESULT:      -4.2      1.179      4.253
REMARK  4 active torsions:
REMARK  status: ('A' for Active; 'I' for Inactive)
REMARK    1  A    between atoms: C_6  and  C_1 
REMARK    2  A    between atoms: O_15  and  C_6 
REMARK    3  A    between atoms: C_7  and  C_8 
REMARK    4  A    between atoms: C_16  and  O_15 
ROOT
ATOM      1  C   UNL d   1      56.647  -0.437  32.024  0.00  0.00     0.145 A 
ATOM      2  N   UNL d   1      56.876   0.293  31.732  0.00  0.00    -0.240 NA
ATOM      3  C   UNL d   1      56.998  -1.025  31.566  0.00  0.00     0.026 A 
ATOM      4  C   UNL d   1      57.450  -0.657  30.984  0.00  0.00     0.019 A 
ATOM      5  C   UNL d   1      57.377   0.167  31.084  0.00  0.00     0.082 A 
ATOM      6  C   UNL d   1      58.319  -0.437  29.862  0.00  0.00     0.065 A 
ATOM      7  C   UNL d   1      57.923  -0.959  30.371  0.00  0.00     0.008 A 
ATOM      8  C   UNL d   1      57.770   0.682  30.579  0.00  0.00     0.019 A 
ATOM      9  C   UNL d   1      58.245   0.381  29.963  0.00  0.00     0.008 A 
ENDROOT
BRANCH   1  10
ATOM     10  C   UNL d   1      56.148  -0.569  32.668  0.00  0.00     0.318 C 
ATOM     11  O   UNL d   1      56.037  -1.330  32.959  0.00  0.00    -0.257 OA
BRANCH  10  12
ATOM     12  O   UNL d   1      55.756   0.069  33.024  0.00  0.00    -0.270 OA
BRANCH  12  13
ATOM     13  C   UNL d   1      55.211  -0.069  33.623  0.00  0.00     0.126 C 
ATOM     14  C   UNL d   1      54.796   0.555  33.966  0.00  0.00     0.029 C 
ENDBRANCH  12  13
ENDBRANCH  10  12
ENDBRANCH   1  10
BRANCH   6  15
ATOM     15  C   UNL d   1      58.787  -0.734  29.255  0.00  0.00     0.211 C 
ATOM     16  O   UNL d   1      58.451  -0.898  28.520  0.00  0.00    -0.644 OA
ATOM     17  O   UNL d   1      59.592  -0.870  29.380  0.00  0.00    -0.644 OA
ENDBRANCH   6  15
TORSDOF 4
ENDMDL
