MODEL 1
REMARK VINA RESULT:      19.5      0.000      0.000
REMARK  3 active torsions:
REMARK  status: ('A' for Active; 'I' for Inactive)
REMARK    1  A    between atoms: C_6  and  C_1 
REMARK    2  A    between atoms: C_7  and  C_3 
REMARK    3  A    between atoms: C_11  and  C_7 
ROOT
ATOM      1  C   UNL d   1      60.112  49.536  50.926  0.00  0.00     0.085 A 
ATOM      2  C   UNL d   1      60.014  49.558  50.111  0.00  0.00     0.137 A 
ATOM      3  C   UNL d   1      58.814  49.644  50.669  0.00  0.00     0.031 A 
ATOM      4  S   UNL d   1      59.206  49.626  49.958  0.00  0.00    -0.066 SA
ATOM      5  C   UNL d   1      59.368  49.589  51.280  0.00  0.00     0.013 A 
ATOM      6  N   UNL d   1      60.641  49.518  49.562  0.00  0.00    -0.141 N 
ATOM      7  C   UNL d   1      59.209  49.587  52.060  0.00  0.00     0.001 C 
ENDROOT
BRANCH   3   8
ATOM      8  C   UNL d   1      58.007  49.706  50.853  0.00  0.00     0.006 C 
BRANCH   8   9
ATOM      9  C   UNL d   1      57.436  49.704  50.262  0.00  0.00     0.001 A 
ATOM     10  C   UNL d   1      57.663  49.700  49.477  0.00  0.00     0.000 A 
ATOM     11  C   UNL d   1      57.078  49.698  48.879  0.00  0.00     0.000 A 
ATOM     12  C   UNL d   1      56.291  49.701  49.096  0.00  0.00     0.000 A 
ATOM     13  C   UNL d   1      56.058  49.705  49.893  0.00  0.00     0.000 A 
ATOM     14  C   UNL d   1      56.630  49.707  50.459  0.00  0.00     0.000 A 
ENDBRANCH   8   9
ENDBRANCH   3   8
BRANCH   1  15
ATOM     15  C   UNL d   1      60.851  49.469  51.312  0.00  0.00     0.299 C 
ATOM     16  O   UNL d   1      60.911  49.443  52.127  0.00  0.00    -0.264 OA
ATOM     17  N   UNL d   1      61.547  49.429  50.826  0.00  0.00    -0.102 N 
ENDBRANCH   1  15
TORSDOF 3
ENDMDL
