MODEL 1
REMARK VINA RESULT:      -6.8      0.000      0.000
REMARK  4 active torsions:
REMARK  status: ('A' for Active; 'I' for Inactive)
REMARK    1  A    between atoms: S_2  and  C_1 
REMARK    2  A    between atoms: C_10  and  S_2 
REMARK    3  A    between atoms: N_7  and  C_4 
REMARK    4  A    between atoms: C_8  and  N_7 
ROOT
ATOM      1  C   UNL d   1     -41.653-122.749 -51.485  0.00  0.00     0.187 A 
ATOM      2  N   UNL d   1     -41.727-123.207 -52.169  0.00  0.00    -0.208 NA
ATOM      3  C   UNL d   1     -41.432-122.774 -52.796  0.00  0.00     0.198 A 
ATOM      4  C   UNL d   1     -41.310-122.032 -51.698  0.00  0.00     0.118 A 
ATOM      5  S   UNL d   1     -41.174-122.050 -52.509  0.00  0.00    -0.035 SA
ATOM      6 CL   UNL d   1     -41.129-121.393 -51.181  0.00  0.00    -0.073 Cl
ENDROOT
BRANCH   1   7
ATOM      7  S   UNL d   1     -41.854-122.894 -50.698  0.00  0.00     0.228 S 
ATOM      8  O   UNL d   1     -42.573-122.505 -50.810  0.00  0.00    -0.216 OA
ATOM      9  O   UNL d   1     -41.135-123.283 -50.586  0.00  0.00    -0.216 OA
BRANCH   7  10
ATOM     10  C   UNL d   1     -42.054-123.038 -49.911  0.00  0.00     0.089 A 
ATOM     11  C   UNL d   1     -41.559-123.508 -49.438  0.00  0.00     0.011 A 
ATOM     12  C   UNL d   1     -41.762-123.654 -48.643  0.00  0.00     0.001 A 
ATOM     13  C   UNL d   1     -42.458-123.329 -48.328  0.00  0.00     0.000 A 
ATOM     14  C   UNL d   1     -42.947-122.863 -48.800  0.00  0.00     0.001 A 
ATOM     15  C   UNL d   1     -42.658-123.474 -47.542  0.00  0.00     0.000 C 
ATOM     16  C   UNL d   1     -42.744-122.717 -49.595  0.00  0.00     0.011 A 
ENDBRANCH   7  10
ENDBRANCH   1   7
BRANCH   3  17
ATOM     17  N   UNL d   1     -41.404-123.034 -53.583  0.00  0.00    -0.196 NA
BRANCH  17  18
ATOM     18  C   UNL d   1     -41.794-122.607 -54.168  0.00  0.00     0.196 A 
ATOM     19  N   UNL d   1     -42.556-122.291 -54.208  0.00  0.00    -0.219 NA
ATOM     20  C   UNL d   1     -42.636-121.918 -54.937  0.00  0.00     0.108 A 
ATOM     21  C   UNL d   1     -41.930-122.001 -55.348  0.00  0.00     0.059 A 
ATOM     22  S   UNL d   1     -41.410-122.425 -54.876  0.00  0.00    -0.046 SA
ENDBRANCH  17  18
ENDBRANCH   3  17
TORSDOF 4
ENDMDL
MODEL 2
REMARK VINA RESULT:      -3.8      1.742      4.801
REMARK  4 active torsions:
REMARK  status: ('A' for Active; 'I' for Inactive)
REMARK    1  A    between atoms: S_2  and  C_1 
REMARK    2  A    between atoms: C_10  and  S_2 
REMARK    3  A    between atoms: N_7  and  C_4 
REMARK    4  A    between atoms: C_8  and  N_7 
ROOT
ATOM      1  C   UNL d   1     -41.529-123.027 -50.806  0.00  0.00     0.187 A 
ATOM      2  N   UNL d   1     -41.123-123.502 -50.266  0.00  0.00    -0.208 NA
ATOM      3  C   UNL d   1     -41.406-123.331 -49.518  0.00  0.00     0.198 A 
ATOM      4  C   UNL d   1     -42.062-122.564 -50.384  0.00  0.00     0.118 A 
ATOM      5  S   UNL d   1     -41.984-122.754 -49.588  0.00  0.00    -0.035 SA
ATOM      6 CL   UNL d   1     -42.594-121.996 -50.707  0.00  0.00    -0.073 Cl
ENDROOT
BRANCH   1   7
ATOM      7  S   UNL d   1     -41.481-122.957 -51.627  0.00  0.00     0.228 S 
ATOM      8  O   UNL d   1     -41.163-122.200 -51.544  0.00  0.00    -0.216 OA
ATOM      9  O   UNL d   1     -41.798-123.714 -51.710  0.00  0.00    -0.216 OA
BRANCH   7  10
ATOM     10  C   UNL d   1     -41.432-122.887 -52.448  0.00  0.00     0.089 A 
ATOM     11  C   UNL d   1     -41.369-123.569 -52.917  0.00  0.00     0.011 A 
ATOM     12  C   UNL d   1     -41.320-123.499 -53.746  0.00  0.00     0.001 A 
ATOM     13  C   UNL d   1     -41.335-122.748 -54.098  0.00  0.00     0.000 A 
ATOM     14  C   UNL d   1     -41.397-122.073 -53.629  0.00  0.00     0.001 A 
ATOM     15  C   UNL d   1     -41.286-122.678 -54.918  0.00  0.00     0.000 C 
ATOM     16  C   UNL d   1     -41.446-122.143 -52.801  0.00  0.00     0.011 A 
ENDBRANCH   7  10
ENDBRANCH   1   7
BRANCH   3  17
ATOM     17  N   UNL d   1     -41.144-123.688 -48.817  0.00  0.00    -0.196 NA
BRANCH  17  18
ATOM     18  C   UNL d   1     -41.565-123.576 -48.119  0.00  0.00     0.196 A 
ATOM     19  N   UNL d   1     -42.330-123.792 -47.894  0.00  0.00    -0.219 NA
ATOM     20  C   UNL d   1     -42.449-123.530 -47.123  0.00  0.00     0.108 A 
ATOM     21  C   UNL d   1     -41.764-123.153 -46.870  0.00  0.00     0.059 A 
ATOM     22  S   UNL d   1     -41.219-123.181 -47.483  0.00  0.00    -0.046 SA
ENDBRANCH  17  18
ENDBRANCH   3  17
TORSDOF 4
ENDMDL
