MODEL 1
REMARK VINA RESULT:       0.8      0.000      0.000
REMARK  6 active torsions:
REMARK  status: ('A' for Active; 'I' for Inactive)
REMARK    1  A    between atoms: C_5  and  N_1 
REMARK    2  A    between atoms: C_8  and  C_3 
REMARK    3  A    between atoms: C_7  and  C_4 
REMARK    4  A    between atoms: N_12  and  C_5 
REMARK    5  A    between atoms: N_11  and  C_10 
REMARK    6  A    between atoms: O_22  and  C_19 
ROOT
ATOM      1  N   UNL d   1      57.964   0.298  31.978  0.00  0.00    -0.203 N 
ATOM      2  N   UNL d   1      57.490   0.546  32.594  0.00  0.00    -0.163 NA
ATOM      3  C   UNL d   1      56.758   0.168  32.499  0.00  0.00     0.103 A 
ATOM      4  C   UNL d   1      57.528  -0.229  31.508  0.00  0.00     0.087 A 
ATOM      5  C   UNL d   1      56.784  -0.315  31.821  0.00  0.00     0.040 A 
ENDROOT
BRANCH   4   6
ATOM      6  C   UNL d   1      57.775  -0.621  30.826  0.00  0.00     0.018 A 
ATOM      7  C   UNL d   1      58.143  -1.356  30.877  0.00  0.00     0.003 A 
ATOM      8  C   UNL d   1      58.390  -1.748  30.194  0.00  0.00     0.018 A 
ATOM      9  C   UNL d   1      58.271  -1.405  29.460  0.00  0.00     0.064 A 
ATOM     10  C   UNL d   1      57.904  -0.668  29.394  0.00  0.00     0.018 A 
ATOM     11  C   UNL d   1      57.658  -0.280  30.083  0.00  0.00     0.003 A 
BRANCH   9  12
ATOM     12  N   UNL d   1      58.522  -1.807  28.794  0.00  0.00    -0.301 N 
ATOM     13  C   UNL d   1      59.261  -1.634  28.456  0.00  0.00     0.100 C 
ATOM     14  C   UNL d   1      58.044  -2.385  28.456  0.00  0.00     0.100 C 
ENDBRANCH   9  12
ENDBRANCH   4   6
BRANCH   1  15
ATOM     15  C   UNL d   1      58.761   0.554  31.867  0.00  0.00     0.222 C 
ATOM     16  S   UNL d   1      59.058   0.682  31.098  0.00  0.00    -0.037 SA
BRANCH  15  17
ATOM     17  N   UNL d   1      59.263   0.682  32.543  0.00  0.00    -0.214 NA
ATOM     18  C   UNL d   1      60.097   0.554  32.469  0.00  0.00     0.122 C 
ENDBRANCH  15  17
ENDBRANCH   1  15
BRANCH   3  19
ATOM     19  C   UNL d   1      56.149   0.287  33.016  0.00  0.00     0.019 A 
ATOM     20  C   UNL d   1      56.272   0.278  33.826  0.00  0.00     0.004 A 
ATOM     21  C   UNL d   1      55.639   0.401  34.341  0.00  0.00     0.024 A 
ATOM     22  C   UNL d   1      54.874   0.535  34.053  0.00  0.00     0.094 A 
ATOM     23  C   UNL d   1      54.750   0.544  33.243  0.00  0.00     0.024 A 
ATOM     24  C   UNL d   1      55.385   0.421  32.734  0.00  0.00     0.004 A 
BRANCH  22  25
ATOM     25  O   UNL d   1      54.237   0.659  34.580  0.00  0.00    -0.328 OA
ATOM     26  C   UNL d   1      53.456   0.590  34.304  0.00  0.00     0.181 C 
ENDBRANCH  22  25
ENDBRANCH   3  19
TORSDOF 6
ENDMDL
MODEL 2
REMARK VINA RESULT:       2.3      2.750      5.408
REMARK  6 active torsions:
REMARK  status: ('A' for Active; 'I' for Inactive)
REMARK    1  A    between atoms: C_5  and  N_1 
REMARK    2  A    between atoms: C_8  and  C_3 
REMARK    3  A    between atoms: C_7  and  C_4 
REMARK    4  A    between atoms: N_12  and  C_5 
REMARK    5  A    between atoms: N_11  and  C_10 
REMARK    6  A    between atoms: O_22  and  C_19 
ROOT
ATOM      1  N   UNL d   1      59.614  -1.062  29.768  0.00  0.00    -0.203 N 
ATOM      2  N   UNL d   1      59.985  -1.701  29.421  0.00  0.00    -0.163 NA
ATOM      3  C   UNL d   1      59.500  -2.360  29.555  0.00  0.00     0.103 A 
ATOM      4  C   UNL d   1      58.906  -1.326  30.112  0.00  0.00     0.087 A 
ATOM      5  C   UNL d   1      58.827  -2.123  29.986  0.00  0.00     0.040 A 
ENDROOT
BRANCH   4   6
ATOM      6  C   UNL d   1      58.348  -0.879  30.523  0.00  0.00     0.018 A 
ATOM      7  C   UNL d   1      58.442  -0.732  31.328  0.00  0.00     0.003 A 
ATOM      8  C   UNL d   1      57.883  -0.285  31.739  0.00  0.00     0.018 A 
ATOM      9  C   UNL d   1      57.230   0.015  31.345  0.00  0.00     0.064 A 
ATOM     10  C   UNL d   1      57.123  -0.125  30.539  0.00  0.00     0.018 A 
ATOM     11  C   UNL d   1      57.688  -0.574  30.132  0.00  0.00     0.003 A 
BRANCH   9  12
ATOM     12  N   UNL d   1      56.685   0.456  31.768  0.00  0.00    -0.301 N 
ATOM     13  C   UNL d   1      55.966   0.680  31.417  0.00  0.00     0.100 C 
ATOM     14  C   UNL d   1      56.849   0.679  32.543  0.00  0.00     0.100 C 
ENDBRANCH   9  12
ENDBRANCH   4   6
BRANCH   1  15
ATOM     15  C   UNL d   1      59.925  -0.278  29.759  0.00  0.00     0.222 C 
ATOM     16  S   UNL d   1      59.564   0.313  29.293  0.00  0.00    -0.037 SA
BRANCH  15  17
ATOM     17  N   UNL d   1      60.611  -0.089  30.228  0.00  0.00    -0.214 NA
ATOM     18  C   UNL d   1      61.099   0.566  30.002  0.00  0.00     0.122 C 
ENDBRANCH  15  17
ENDBRANCH   1  15
BRANCH   3  19
ATOM     19  C   UNL d   1      59.699  -3.096  29.286  0.00  0.00     0.019 A 
ATOM     20  C   UNL d   1      60.472  -3.278  29.083  0.00  0.00     0.004 A 
ATOM     21  C   UNL d   1      60.658  -4.034  28.809  0.00  0.00     0.024 A 
ATOM     22  C   UNL d   1      60.075  -4.617  28.735  0.00  0.00     0.094 A 
ATOM     23  C   UNL d   1      59.302  -4.435  28.937  0.00  0.00     0.024 A 
ATOM     24  C   UNL d   1      59.121  -3.680  29.210  0.00  0.00     0.004 A 
BRANCH  22  25
ATOM     25  O   UNL d   1      60.271  -5.381  28.457  0.00  0.00    -0.328 OA
ATOM     26  C   UNL d   1      59.799  -6.031  28.672  0.00  0.00     0.181 C 
ENDBRANCH  22  25
ENDBRANCH   3  19
TORSDOF 6
ENDMDL
MODEL 3
REMARK VINA RESULT:       2.7      1.194      1.849
REMARK  6 active torsions:
REMARK  status: ('A' for Active; 'I' for Inactive)
REMARK    1  A    between atoms: C_5  and  N_1 
REMARK    2  A    between atoms: C_8  and  C_3 
REMARK    3  A    between atoms: C_7  and  C_4 
REMARK    4  A    between atoms: N_12  and  C_5 
REMARK    5  A    between atoms: N_11  and  C_10 
REMARK    6  A    between atoms: O_22  and  C_19 
ROOT
ATOM      1  N   UNL d   1      57.096   0.485  33.403  0.00  0.00    -0.203 N 
ATOM      2  N   UNL d   1      56.481   0.597  33.928  0.00  0.00    -0.163 NA
ATOM      3  C   UNL d   1      55.781   0.444  33.511  0.00  0.00     0.103 A 
ATOM      4  C   UNL d   1      56.776   0.264  32.669  0.00  0.00     0.087 A 
ATOM      5  C   UNL d   1      55.967   0.237  32.727  0.00  0.00     0.040 A 
ENDROOT
BRANCH   4   6
ATOM      6  C   UNL d   1      57.183   0.093  31.973  0.00  0.00     0.018 A 
ATOM      7  C   UNL d   1      57.608   0.681  31.583  0.00  0.00     0.003 A 
ATOM      8  C   UNL d   1      58.015   0.509  30.885  0.00  0.00     0.018 A 
ATOM      9  C   UNL d   1      57.996  -0.251  30.578  0.00  0.00     0.064 A 
ATOM     10  C   UNL d   1      57.574  -0.849  30.959  0.00  0.00     0.018 A 
ATOM     11  C   UNL d   1      57.168  -0.669  31.658  0.00  0.00     0.003 A 
BRANCH   9  12
ATOM     12  N   UNL d   1      58.405  -0.403  29.886  0.00  0.00    -0.301 N 
ATOM     13  C   UNL d   1      58.031  -0.801  29.260  0.00  0.00     0.100 C 
ATOM     14  C   UNL d   1      59.188  -0.163  29.809  0.00  0.00     0.100 C 
ENDBRANCH   9  12
ENDBRANCH   4   6
BRANCH   1  15
ATOM     15  C   UNL d   1      57.909   0.585  33.605  0.00  0.00     0.222 C 
ATOM     16  S   UNL d   1      58.491   0.604  33.008  0.00  0.00    -0.037 SA
BRANCH  15  17
ATOM     17  N   UNL d   1      58.136   0.666  34.423  0.00  0.00    -0.214 NA
ATOM     18  C   UNL d   1      58.952   0.594  34.635  0.00  0.00     0.122 C 
ENDBRANCH  15  17
ENDBRANCH   1  15
BRANCH   3  19
ATOM     19  C   UNL d   1      55.056   0.503  33.864  0.00  0.00     0.019 A 
ATOM     20  C   UNL d   1      54.371   0.566  33.418  0.00  0.00     0.004 A 
ATOM     21  C   UNL d   1      53.639   0.625  33.793  0.00  0.00     0.024 A 
ATOM     22  C   UNL d   1      53.580   0.622  34.619  0.00  0.00     0.094 A 
ATOM     23  C   UNL d   1      54.265   0.558  35.066  0.00  0.00     0.024 A 
ATOM     24  C   UNL d   1      54.993   0.500  34.687  0.00  0.00     0.004 A 
BRANCH  22  25
ATOM     25  O   UNL d   1      52.836   0.682  34.994  0.00  0.00    -0.328 OA
ATOM     26  C   UNL d   1      52.143   0.535  34.557  0.00  0.00     0.181 C 
ENDBRANCH  22  25
ENDBRANCH   3  19
TORSDOF 6
ENDMDL
MODEL 4
REMARK VINA RESULT:       2.9      2.305      5.168
REMARK  6 active torsions:
REMARK  status: ('A' for Active; 'I' for Inactive)
REMARK    1  A    between atoms: C_5  and  N_1 
REMARK    2  A    between atoms: C_8  and  C_3 
REMARK    3  A    between atoms: C_7  and  C_4 
REMARK    4  A    between atoms: N_12  and  C_5 
REMARK    5  A    between atoms: N_11  and  C_10 
REMARK    6  A    between atoms: O_22  and  C_19 
ROOT
ATOM      1  N   UNL d   1      56.409  -0.981  32.321  0.00  0.00    -0.203 N 
ATOM      2  N   UNL d   1      56.826  -0.944  31.621  0.00  0.00    -0.163 NA
ATOM      3  C   UNL d   1      57.221  -0.215  31.615  0.00  0.00     0.103 A 
ATOM      4  C   UNL d   1      56.547  -0.279  32.744  0.00  0.00     0.087 A 
ATOM      5  C   UNL d   1      57.045   0.198  32.317  0.00  0.00     0.040 A 
ENDROOT
BRANCH   4   6
ATOM      6  C   UNL d   1      56.244  -0.066  33.481  0.00  0.00     0.018 A 
ATOM      7  C   UNL d   1      56.751   0.099  34.109  0.00  0.00     0.003 A 
ATOM      8  C   UNL d   1      56.448   0.312  34.846  0.00  0.00     0.018 A 
ATOM      9  C   UNL d   1      55.637   0.360  34.956  0.00  0.00     0.064 A 
ATOM     10  C   UNL d   1      55.117   0.198  34.335  0.00  0.00     0.018 A 
ATOM     11  C   UNL d   1      55.429  -0.016  33.598  0.00  0.00     0.003 A 
BRANCH   9  12
ATOM     12  N   UNL d   1      55.353   0.573  35.693  0.00  0.00    -0.301 N 
ATOM     13  C   UNL d   1      55.879   0.682  36.327  0.00  0.00     0.100 C 
ATOM     14  C   UNL d   1      54.546   0.680  35.808  0.00  0.00     0.100 C 
ENDBRANCH   9  12
ENDBRANCH   4   6
BRANCH   1  15
ATOM     15  C   UNL d   1      55.929  -1.636  32.548  0.00  0.00     0.222 C 
ATOM     16  S   UNL d   1      55.204  -1.780  32.161  0.00  0.00    -0.037 SA
BRANCH  15  17
ATOM     17  N   UNL d   1      56.185  -2.152  33.176  0.00  0.00    -0.214 NA
ATOM     18  C   UNL d   1      55.634  -2.702  33.510  0.00  0.00     0.122 C 
ENDBRANCH  15  17
ENDBRANCH   1  15
BRANCH   3  19
ATOM     19  C   UNL d   1      57.691   0.008  30.997  0.00  0.00     0.019 A 
ATOM     20  C   UNL d   1      58.402   0.395  31.124  0.00  0.00     0.004 A 
ATOM     21  C   UNL d   1      58.870   0.617  30.481  0.00  0.00     0.024 A 
ATOM     22  C   UNL d   1      58.635   0.454  29.704  0.00  0.00     0.094 A 
ATOM     23  C   UNL d   1      57.924   0.067  29.577  0.00  0.00     0.024 A 
ATOM     24  C   UNL d   1      57.460  -0.152  30.221  0.00  0.00     0.004 A 
BRANCH  22  25
ATOM     25  O   UNL d   1      59.114   0.681  29.058  0.00  0.00    -0.328 OA
ATOM     26  C   UNL d   1      59.717   0.172  28.794  0.00  0.00     0.181 C 
ENDBRANCH  22  25
ENDBRANCH   3  19
TORSDOF 6
ENDMDL
MODEL 5
REMARK VINA RESULT:       3.6      1.572      2.254
REMARK  6 active torsions:
REMARK  status: ('A' for Active; 'I' for Inactive)
REMARK    1  A    between atoms: C_5  and  N_1 
REMARK    2  A    between atoms: C_8  and  C_3 
REMARK    3  A    between atoms: C_7  and  C_4 
REMARK    4  A    between atoms: N_12  and  C_5 
REMARK    5  A    between atoms: N_11  and  C_10 
REMARK    6  A    between atoms: O_22  and  C_19 
ROOT
ATOM      1  N   UNL d   1      57.355  -0.969  31.087  0.00  0.00    -0.203 N 
ATOM      2  N   UNL d   1      56.770  -0.934  31.655  0.00  0.00    -0.163 NA
ATOM      3  C   UNL d   1      56.865  -0.212  32.051  0.00  0.00     0.103 A 
ATOM      4  C   UNL d   1      57.806  -0.274  31.133  0.00  0.00     0.087 A 
ATOM      5  C   UNL d   1      57.512   0.198  31.724  0.00  0.00     0.040 A 
ENDROOT
BRANCH   4   6
ATOM      6  C   UNL d   1      58.455  -0.062  30.671  0.00  0.00     0.018 A 
ATOM      7  C   UNL d   1      58.361   0.103  29.869  0.00  0.00     0.003 A 
ATOM      8  C   UNL d   1      59.011   0.315  29.407  0.00  0.00     0.018 A 
ATOM      9  C   UNL d   1      59.756   0.363  29.746  0.00  0.00     0.064 A 
ATOM     10  C   UNL d   1      59.864   0.200  30.548  0.00  0.00     0.018 A 
ATOM     11  C   UNL d   1      59.207  -0.013  31.006  0.00  0.00     0.003 A 
BRANCH   9  12
ATOM     12  N   UNL d   1      60.389   0.574  29.274  0.00  0.00    -0.301 N 
ATOM     13  C   UNL d   1      60.282   0.682  28.457  0.00  0.00     0.100 C 
ATOM     14  C   UNL d   1      61.133   0.682  29.606  0.00  0.00     0.100 C 
ENDBRANCH   9  12
ENDBRANCH   4   6
BRANCH   1  15
ATOM     15  C   UNL d   1      57.456  -1.618  30.557  0.00  0.00     0.222 C 
ATOM     16  S   UNL d   1      56.983  -1.680  29.872  0.00  0.00    -0.037 SA
BRANCH  15  17
ATOM     17  N   UNL d   1      58.044  -2.212  30.722  0.00  0.00    -0.214 NA
ATOM     18  C   UNL d   1      58.143  -2.858  30.183  0.00  0.00     0.122 C 
ENDBRANCH  15  17
ENDBRANCH   1  15
BRANCH   3  19
ATOM     19  C   UNL d   1      56.375   0.008  32.655  0.00  0.00     0.019 A 
ATOM     20  C   UNL d   1      55.655   0.370  32.506  0.00  0.00     0.004 A 
ATOM     21  C   UNL d   1      55.167   0.589  33.134  0.00  0.00     0.024 A 
ATOM     22  C   UNL d   1      55.392   0.449  33.919  0.00  0.00     0.094 A 
ATOM     23  C   UNL d   1      56.112   0.087  34.068  0.00  0.00     0.024 A 
ATOM     24  C   UNL d   1      56.595  -0.129  33.439  0.00  0.00     0.004 A 
BRANCH  22  25
ATOM     25  O   UNL d   1      54.892   0.673  34.551  0.00  0.00    -0.328 OA
ATOM     26  C   UNL d   1      54.280   0.165  34.792  0.00  0.00     0.181 C 
ENDBRANCH  22  25
ENDBRANCH   3  19
TORSDOF 6
ENDMDL
