MODEL 1
REMARK VINA RESULT:      -5.8      0.000      0.000
REMARK  3 active torsions:
REMARK  status: ('A' for Active; 'I' for Inactive)
REMARK    1  A    between atoms: C_10  and  C_3 
REMARK    2  A    between atoms: O_13  and  C_10 
REMARK    3  A    between atoms: C_12  and  O_13 
ROOT
ATOM      1  C   UNL d   1      56.270  -0.666  32.471  0.00  0.00     0.002 A 
ATOM      2  C   UNL d   1      56.671  -0.960  31.813  0.00  0.00     0.025 A 
ATOM      3  C   UNL d   1      56.257   0.157  32.615  0.00  0.00     0.000 A 
ATOM      4  C   UNL d   1      56.645   0.673  32.099  0.00  0.00     0.002 A 
ATOM      5  C   UNL d   1      57.056  -0.448  31.299  0.00  0.00     0.100 A 
ATOM      6  C   UNL d   1      57.043   0.375  31.443  0.00  0.00     0.025 A 
ATOM      7  C   UNL d   1      55.885  -1.173  32.985  0.00  0.00     0.000 A 
ATOM      8  C   UNL d   1      55.859   0.455  33.270  0.00  0.00     0.000 A 
ATOM      9  C   UNL d   1      55.484  -0.884  33.642  0.00  0.00     0.000 A 
ATOM     10  C   UNL d   1      55.471  -0.061  33.786  0.00  0.00     0.000 A 
ENDROOT
BRANCH   5  11
ATOM     11  O   UNL d   1      57.459  -0.741  30.638  0.00  0.00    -0.304 OA
BRANCH  11  12
ATOM     12  C   UNL d   1      58.178  -0.391  30.411  0.00  0.00     0.142 C 
BRANCH  12  13
ATOM     13  C   UNL d   1      58.587  -0.673  29.753  0.00  0.00     0.115 A 
ATOM     14  N   UNL d   1      58.788  -1.461  29.600  0.00  0.00    -0.217 NA
ATOM     15  C   UNL d   1      59.194  -1.486  28.881  0.00  0.00     0.215 A 
ATOM     16  S   UNL d   1      59.243  -0.710  28.590  0.00  0.00    -0.045 SA
ATOM     17  N   UNL d   1      59.493  -2.164  28.521  0.00  0.00    -0.120 N 
ATOM     18  C   UNL d   1      58.871  -0.206  29.125  0.00  0.00     0.060 A 
ENDBRANCH  12  13
ENDBRANCH  11  12
ENDBRANCH   5  11
TORSDOF 3
ENDMDL
MODEL 2
REMARK VINA RESULT:      -4.6      2.397      4.521
REMARK  3 active torsions:
REMARK  status: ('A' for Active; 'I' for Inactive)
REMARK    1  A    between atoms: C_10  and  C_3 
REMARK    2  A    between atoms: O_13  and  C_10 
REMARK    3  A    between atoms: C_12  and  O_13 
ROOT
ATOM      1  C   UNL d   1      58.510  -0.651  29.764  0.00  0.00     0.002 A 
ATOM      2  C   UNL d   1      57.846  -0.673  30.253  0.00  0.00     0.025 A 
ATOM      3  C   UNL d   1      58.992   0.032  29.750  0.00  0.00     0.000 A 
ATOM      4  C   UNL d   1      58.801   0.682  30.223  0.00  0.00     0.002 A 
ATOM      5  C   UNL d   1      57.655  -0.028  30.724  0.00  0.00     0.100 A 
ATOM      6  C   UNL d   1      58.137   0.655  30.709  0.00  0.00     0.025 A 
ATOM      7  C   UNL d   1      58.702  -1.292  29.294  0.00  0.00     0.000 A 
ATOM      8  C   UNL d   1      59.655   0.059  29.264  0.00  0.00     0.000 A 
ATOM      9  C   UNL d   1      59.363  -1.274  28.806  0.00  0.00     0.000 A 
ATOM     10  C   UNL d   1      59.845  -0.591  28.791  0.00  0.00     0.000 A 
ENDROOT
BRANCH   5  11
ATOM     11  O   UNL d   1      56.989  -0.047  31.215  0.00  0.00    -0.304 OA
BRANCH  11  12
ATOM     12  C   UNL d   1      57.090  -0.138  32.035  0.00  0.00     0.142 C 
BRANCH  12  13
ATOM     13  C   UNL d   1      56.433  -0.201  32.529  0.00  0.00     0.115 A 
ATOM     14  N   UNL d   1      55.971   0.423  32.814  0.00  0.00    -0.217 NA
ATOM     15  C   UNL d   1      55.374   0.104  33.287  0.00  0.00     0.215 A 
ATOM     16  S   UNL d   1      55.469  -0.721  33.293  0.00  0.00    -0.045 SA
ATOM     17  N   UNL d   1      54.791   0.533  33.681  0.00  0.00    -0.120 N 
ATOM     18  C   UNL d   1      56.121  -0.912  32.827  0.00  0.00     0.060 A 
ENDBRANCH  12  13
ENDBRANCH  11  12
ENDBRANCH   5  11
TORSDOF 3
ENDMDL
MODEL 3
REMARK VINA RESULT:      -3.1      9.599     10.105
REMARK  3 active torsions:
REMARK  status: ('A' for Active; 'I' for Inactive)
REMARK    1  A    between atoms: C_10  and  C_3 
REMARK    2  A    between atoms: O_13  and  C_10 
REMARK    3  A    between atoms: C_12  and  O_13 
ROOT
ATOM      1  C   UNL d   1      58.176  -9.813  31.904  0.00  0.00     0.002 A 
ATOM      2  C   UNL d   1      58.419  -9.811  32.692  0.00  0.00     0.025 A 
ATOM      3  C   UNL d   1      58.747  -9.815  31.294  0.00  0.00     0.000 A 
ATOM      4  C   UNL d   1      59.552  -9.815  31.481  0.00  0.00     0.002 A 
ATOM      5  C   UNL d   1      59.219  -9.811  32.880  0.00  0.00     0.100 A 
ATOM      6  C   UNL d   1      59.790  -9.813  32.269  0.00  0.00     0.025 A 
ATOM      7  C   UNL d   1      57.381  -9.813  31.713  0.00  0.00     0.000 A 
ATOM      8  C   UNL d   1      58.510  -9.817  30.506  0.00  0.00     0.000 A 
ATOM      9  C   UNL d   1      57.134  -9.815  30.929  0.00  0.00     0.000 A 
ATOM     10  C   UNL d   1      57.705  -9.817  30.319  0.00  0.00     0.000 A 
ENDROOT
BRANCH   5  11
ATOM     11  O   UNL d   1      59.465  -9.809  33.670  0.00  0.00    -0.304 OA
BRANCH  11  12
ATOM     12  C   UNL d   1      59.313  -9.142  34.142  0.00  0.00     0.142 C 
BRANCH  12  13
ATOM     13  C   UNL d   1      59.651  -9.079  34.892  0.00  0.00     0.115 A 
ATOM     14  N   UNL d   1      60.347  -8.678  35.085  0.00  0.00    -0.217 NA
ATOM     15  C   UNL d   1      60.474  -8.761  35.898  0.00  0.00     0.215 A 
ATOM     16  S   UNL d   1      59.850  -9.216  36.206  0.00  0.00    -0.045 SA
ATOM     17  N   UNL d   1      61.106  -8.447  36.321  0.00  0.00    -0.120 N 
ATOM     18  C   UNL d   1      59.341  -9.414  35.589  0.00  0.00     0.060 A 
ENDBRANCH  12  13
ENDBRANCH  11  12
ENDBRANCH   5  11
TORSDOF 3
ENDMDL
MODEL 4
REMARK VINA RESULT:      -3.0      8.947      9.387
REMARK  3 active torsions:
REMARK  status: ('A' for Active; 'I' for Inactive)
REMARK    1  A    between atoms: C_10  and  C_3 
REMARK    2  A    between atoms: O_13  and  C_10 
REMARK    3  A    between atoms: C_12  and  O_13 
ROOT
ATOM      1  C   UNL d   1      59.708  -8.383  35.032  0.00  0.00     0.002 A 
ATOM      2  C   UNL d   1      59.162  -8.727  34.520  0.00  0.00     0.025 A 
ATOM      3  C   UNL d   1      60.517  -8.584  34.972  0.00  0.00     0.000 A 
ATOM      4  C   UNL d   1      60.766  -9.127  34.401  0.00  0.00     0.002 A 
ATOM      5  C   UNL d   1      59.408  -9.266  33.951  0.00  0.00     0.100 A 
ATOM      6  C   UNL d   1      60.217  -9.468  33.892  0.00  0.00     0.025 A 
ATOM      7  C   UNL d   1      59.466  -7.845  35.599  0.00  0.00     0.000 A 
ATOM      8  C   UNL d   1      61.066  -8.244  35.481  0.00  0.00     0.000 A 
ATOM      9  C   UNL d   1      60.008  -7.500  36.112  0.00  0.00     0.000 A 
ATOM     10  C   UNL d   1      60.817  -7.701  36.053  0.00  0.00     0.000 A 
ENDROOT
BRANCH   5  11
ATOM     11  O   UNL d   1      58.861  -9.613  33.436  0.00  0.00    -0.304 OA
BRANCH  11  12
ATOM     12  C   UNL d   1      59.100  -9.818  32.666  0.00  0.00     0.142 C 
BRANCH  12  13
ATOM     13  C   UNL d   1      58.554  -9.812  32.048  0.00  0.00     0.115 A 
ATOM     14  N   UNL d   1      58.729  -9.803  31.240  0.00  0.00    -0.217 NA
ATOM     15  C   UNL d   1      58.015  -9.800  30.824  0.00  0.00     0.215 A 
ATOM     16  S   UNL d   1      57.398  -9.808  31.380  0.00  0.00    -0.045 SA
ATOM     17  N   UNL d   1      57.935  -9.791  30.004  0.00  0.00    -0.120 N 
ATOM     18  C   UNL d   1      57.727  -9.815  32.135  0.00  0.00     0.060 A 
ENDBRANCH  12  13
ENDBRANCH  11  12
ENDBRANCH   5  11
TORSDOF 3
ENDMDL
MODEL 5
REMARK VINA RESULT:      -2.9      1.963      4.679
REMARK  3 active torsions:
REMARK  status: ('A' for Active; 'I' for Inactive)
REMARK    1  A    between atoms: C_10  and  C_3 
REMARK    2  A    between atoms: O_13  and  C_10 
REMARK    3  A    between atoms: C_12  and  O_13 
ROOT
ATOM      1  C   UNL d   1      59.201  -2.468  29.223  0.00  0.00     0.002 A 
ATOM      2  C   UNL d   1      58.610  -2.037  29.603  0.00  0.00     0.025 A 
ATOM      3  C   UNL d   1      59.825  -2.066  28.838  0.00  0.00     0.000 A 
ATOM      4  C   UNL d   1      59.847  -1.240  28.840  0.00  0.00     0.002 A 
ATOM      5  C   UNL d   1      58.630  -1.216  29.605  0.00  0.00     0.100 A 
ATOM      6  C   UNL d   1      59.254  -0.814  29.220  0.00  0.00     0.025 A 
ATOM      7  C   UNL d   1      59.184  -3.285  29.218  0.00  0.00     0.000 A 
ATOM      8  C   UNL d   1      60.417  -2.491  28.457  0.00  0.00     0.000 A 
ATOM      9  C   UNL d   1      59.771  -3.719  28.840  0.00  0.00     0.000 A 
ATOM     10  C   UNL d   1      60.395  -3.317  28.455  0.00  0.00     0.000 A 
ENDROOT
BRANCH   5  11
ATOM     11  O   UNL d   1      58.037  -0.782  29.987  0.00  0.00    -0.304 OA
BRANCH  11  12
ATOM     12  C   UNL d   1      57.864  -0.942  30.784  0.00  0.00     0.142 C 
BRANCH  12  13
ATOM     13  C   UNL d   1      57.376  -0.433  31.212  0.00  0.00     0.115 A 
ATOM     14  N   UNL d   1      56.807  -0.653  31.769  0.00  0.00    -0.217 NA
ATOM     15  C   UNL d   1      56.452   0.035  32.058  0.00  0.00     0.215 A 
ATOM     16  S   UNL d   1      56.806   0.682  31.675  0.00  0.00    -0.045 SA
ATOM     17  N   UNL d   1      55.855   0.067  32.624  0.00  0.00    -0.120 N 
ATOM     18  C   UNL d   1      57.375   0.397  31.153  0.00  0.00     0.060 A 
ENDBRANCH  12  13
ENDBRANCH  11  12
ENDBRANCH   5  11
TORSDOF 3
ENDMDL
