MODEL 1
REMARK VINA RESULT:      93.3      0.000      0.000
REMARK  4 active torsions:
REMARK  status: ('A' for Active; 'I' for Inactive)
REMARK    1  A    between atoms: N_2  and  S_1 
REMARK    2  A    between atoms: C_4  and  S_1 
REMARK       I    between atoms: C_3  and  N_7 
REMARK    3  A    between atoms: C_6  and  C_3 
REMARK    4  A    between atoms: N_7  and  C_12 
ROOT
ATOM      1  N   UNL d   1      56.677  49.100  51.706  0.00  0.00    -0.230 N 
ATOM      2  C   UNL d   1      57.443  49.276  51.954  0.00  0.00     0.076 A 
ATOM      3  C   UNL d   1      58.076  49.220  51.431  0.00  0.00     0.037 A 
ATOM      4  C   UNL d   1      58.845  49.401  51.694  0.00  0.00     0.086 A 
ATOM      5  C   UNL d   1      57.579  49.514  52.741  0.00  0.00     0.017 A 
ATOM      6  C   UNL d   1      58.345  49.694  53.000  0.00  0.00     0.003 A 
ATOM      7  C   UNL d   1      56.045  49.158  52.238  0.00  0.00     0.092 A 
ATOM      8  C   UNL d   1      58.972  49.635  52.470  0.00  0.00     0.019 A 
ATOM      9  C   UNL d   1      56.176  49.393  53.018  0.00  0.00     0.020 A 
ATOM     10  C   UNL d   1      56.940  49.571  53.269  0.00  0.00     0.003 A 
ENDROOT
BRANCH   4  11
ATOM     11  N   UNL d   1      59.481  49.345  51.169  0.00  0.00    -0.208 NA
ATOM     12  C   UNL d   1      60.250  49.442  51.441  0.00  0.00     0.282 C 
ATOM     13  O   UNL d   1      60.400  49.596  52.240  0.00  0.00    -0.265 OA
BRANCH  12  14
ATOM     14  C   UNL d   1      60.885  49.388  50.933  0.00  0.00     0.096 A 
ATOM     15  C   UNL d   1      60.767  49.498  50.113  0.00  0.00     0.065 A 
ATOM     16 CL   UNL d   1      60.010  49.660  49.829  0.00  0.00    -0.082 Cl
ATOM     17  C   UNL d   1      61.406  49.445  49.596  0.00  0.00     0.012 A 
ATOM     18  C   UNL d   1      62.165  49.283  49.890  0.00  0.00     0.003 A 
ATOM     19  C   UNL d   1      62.280  49.174  50.701  0.00  0.00     0.030 A 
ATOM     20  C   UNL d   1      61.639  49.228  51.214  0.00  0.00     0.146 A 
ATOM     21  F   UNL d   1      61.758  49.119  52.016  0.00  0.00    -0.204 F 
ENDBRANCH  12  14
ENDBRANCH   4  11
BRANCH   1  22
ATOM     22  S   UNL d   1      56.553  48.864  50.921  0.00  0.00     0.277 S 
ATOM     23  O   UNL d   1      56.553  48.075  51.176  0.00  0.00    -0.199 OA
ATOM     24  O   UNL d   1      56.553  49.642  50.674  0.00  0.00    -0.199 OA
BRANCH  22  25
ATOM     25  C   UNL d   1      56.430  48.617  50.148  0.00  0.00     0.133 A 
ATOM     26  S   UNL d   1      56.168  49.087  49.523  0.00  0.00    -0.074 SA
ATOM     27  C   UNL d   1      56.122  48.622  48.851  0.00  0.00     0.036 A 
ATOM     28  C   UNL d   1      56.355  47.856  49.050  0.00  0.00     0.008 A 
ATOM     29  C   UNL d   1      56.546  47.855  49.858  0.00  0.00     0.020 A 
ENDBRANCH  22  25
ENDBRANCH   1  22
TORSDOF 4
ENDMDL
