MODEL 1
REMARK VINA RESULT:      12.1      0.000      0.000
REMARK  3 active torsions:
REMARK  status: ('A' for Active; 'I' for Inactive)
REMARK    1  A    between atoms: N_5  and  C_1 
REMARK       I    between atoms: C_2  and  N_3 
REMARK    2  A    between atoms: C_4  and  C_2 
REMARK    3  A    between atoms: N_3  and  N_5 
ROOT
ATOM      1  C   UNL d   1     -52.307  24.821  33.376  0.00  0.00     0.060 A 
ATOM      2  C   UNL d   1     -53.082  24.568  33.468  0.00  0.00     0.012 A 
ATOM      3  C   UNL d   1     -53.264  23.764  33.491  0.00  0.00     0.035 A 
ATOM      4 BR   UNL d   1     -54.051  23.522  33.584  0.00  0.00    -0.049 Br
ATOM      5  C   UNL d   1     -51.694  24.259  33.306  0.00  0.00     0.005 A 
ATOM      6  C   UNL d   1     -51.875  23.460  33.328  0.00  0.00     0.001 A 
ATOM      7  C   UNL d   1     -52.666  23.215  33.422  0.00  0.00     0.007 A 
ENDROOT
BRANCH   1   8
ATOM      8  C   UNL d   1     -52.139  25.634  33.355  0.00  0.00     0.297 C 
ATOM      9  N   UNL d   1     -51.370  25.881  33.320  0.00  0.00    -0.103 NA
ATOM     10  O   UNL d   1     -52.767  26.183  33.370  0.00  0.00    -0.264 OA
BRANCH   9  11
ATOM     11  N   UNL d   1     -50.771  25.336  33.307  0.00  0.00    -0.112 NA
BRANCH  11  12
ATOM     12  C   UNL d   1     -49.987  25.587  33.313  0.00  0.00     0.260 C 
ATOM     13  S   UNL d   1     -49.372  25.027  33.315  0.00  0.00    -0.034 SA
ATOM     14  N   UNL d   1     -49.811  26.391  33.318  0.00  0.00    -0.113 N 
ENDBRANCH  11  12
ENDBRANCH   9  11
ENDBRANCH   1   8
TORSDOF 3
ENDMDL
