MODEL 1
REMARK VINA RESULT:      76.8      0.000      0.000
REMARK  6 active torsions:
REMARK  status: ('A' for Active; 'I' for Inactive)
REMARK    1  A    between atoms: N_5  and  S_1 
REMARK    2  A    between atoms: C_8  and  S_1 
REMARK    3  A    between atoms: C_2  and  C_14 
REMARK    4  A    between atoms: C_7  and  N_5 
REMARK    5  A    between atoms: C_6  and  C_7 
REMARK       I    between atoms: N_11  and  C_6 
REMARK    6  A    between atoms: C_19  and  N_11 
ROOT
ATOM      1  C   UNL d   1     -55.643-101.702 -43.400  0.00  0.00     0.298 C 
ATOM      2  N   UNL d   1     -54.961-101.611 -42.966  0.00  0.00    -0.207 NA
ATOM      3  O   UNL d   1     -56.363-101.864 -43.022  0.00  0.00    -0.264 OA
ENDROOT
BRANCH   2   4
ATOM      4  C   UNL d   1     -54.984-101.679 -42.144  0.00  0.00     0.085 A 
ATOM      5  C   UNL d   1     -55.076-102.422 -41.804  0.00  0.00     0.019 A 
ATOM      6  C   UNL d   1     -55.101-102.506 -40.975  0.00  0.00     0.004 A 
ATOM      7  C   UNL d   1     -55.033-101.844 -40.493  0.00  0.00     0.024 A 
ATOM      8  C   UNL d   1     -54.941-101.097 -40.833  0.00  0.00     0.004 A 
ATOM      9  C   UNL d   1     -54.915-101.008 -41.653  0.00  0.00     0.019 A 
BRANCH   7  10
ATOM     10  C   UNL d   1     -55.060-101.941 -39.669  0.00  0.00     0.111 A 
ATOM     11  N   UNL d   1     -54.980-101.316 -39.143  0.00  0.00    -0.239 NA
ATOM     12  C   UNL d   1     -55.034-101.612 -38.374  0.00  0.00     0.088 A 
ATOM     13  C   UNL d   1     -54.994-101.249 -37.636  0.00  0.00     0.020 A 
ATOM     14  C   UNL d   1     -55.147-102.427 -38.427  0.00  0.00     0.049 A 
ATOM     15  C   UNL d   1     -55.068-101.701 -36.952  0.00  0.00     0.002 A 
ATOM     16  C   UNL d   1     -55.182-102.516 -37.005  0.00  0.00     0.001 A 
ATOM     17  C   UNL d   1     -55.222-102.880 -37.744  0.00  0.00     0.008 A 
ATOM     18  S   UNL d   1     -55.164-102.630 -39.230  0.00  0.00    -0.066 SA
ENDBRANCH   7  10
ENDBRANCH   2   4
BRANCH   1  19
ATOM     19  C   UNL d   1     -55.628-101.636 -44.222  0.00  0.00     0.151 C 
ATOM     20  C   UNL d   1     -55.325-102.243 -44.689  0.00  0.00     0.027 C 
BRANCH  19  21
ATOM     21  N   UNL d   1     -55.855-101.067 -44.786  0.00  0.00    -0.153 NA
BRANCH  21  22
ATOM     22  S   UNL d   1     -55.476-100.339 -44.806  0.00  0.00     0.285 S 
ATOM     23  O   UNL d   1     -54.760-100.717 -44.845  0.00  0.00    -0.198 OA
ATOM     24  O   UNL d   1     -55.097 -99.618 -44.825  0.00  0.00    -0.198 OA
BRANCH  22  25
ATOM     25  C   UNL d   1     -56.213 -99.960 -44.765  0.00  0.00     0.106 A 
ATOM     26  C   UNL d   1     -56.828-100.290 -44.323  0.00  0.00     0.024 A 
ATOM     27  C   UNL d   1     -57.568 -99.897 -44.290  0.00  0.00     0.059 A 
ATOM     28 CL   UNL d   1     -58.185-100.230 -43.846  0.00  0.00    -0.082 Cl
ATOM     29  C   UNL d   1     -57.680 -99.189 -44.694  0.00  0.00     0.011 A 
ATOM     30  C   UNL d   1     -57.065 -98.863 -45.134  0.00  0.00     0.002 A 
ATOM     31  C   UNL d   1     -56.324 -99.255 -45.167  0.00  0.00     0.013 A 
ENDBRANCH  22  25
ENDBRANCH  21  22
ENDBRANCH  19  21
ENDBRANCH   1  19
TORSDOF 6
ENDMDL
