MODEL 1
REMARK VINA RESULT:      -4.3      0.000      0.000
REMARK  3 active torsions:
REMARK  status: ('A' for Active; 'I' for Inactive)
REMARK    1  A    between atoms: C_8  and  C_1 
REMARK    2  A    between atoms: C_9  and  C_8 
REMARK    3  A    between atoms: O_16  and  C_13 
ROOT
ATOM      1  C   UNL d   1      56.812  -0.306  32.423  0.00  0.00     0.013 A 
ATOM      2  C   UNL d   1      57.980   0.437  32.033  0.00  0.00     0.105 A 
ATOM      3  O   UNL d   1      58.083   0.675  32.807  0.00  0.00    -0.273 OA
ATOM      4  C   UNL d   1      57.337  -0.061  31.832  0.00  0.00     0.023 A 
ATOM      5  C   UNL d   1      57.557   0.428  33.393  0.00  0.00     0.300 A 
ATOM      6  C   UNL d   1      56.923  -0.061  33.201  0.00  0.00     0.069 A 
ATOM      7  C   UNL d   1      58.496   0.677  31.451  0.00  0.00     0.049 A 
ATOM      8  C   UNL d   1      57.231  -0.302  31.056  0.00  0.00     0.004 A 
ATOM      9  O   UNL d   1      57.672   0.678  34.186  0.00  0.00    -0.259 OA
ATOM     10  C   UNL d   1      58.389   0.434  30.662  0.00  0.00     0.096 A 
ATOM     11  C   UNL d   1      57.760  -0.053  30.467  0.00  0.00     0.024 A 
ENDROOT
BRANCH   1  12
ATOM     12  C   UNL d   1      56.181  -0.796  32.221  0.00  0.00     0.070 C 
BRANCH  12  13
ATOM     13  C   UNL d   1      55.745  -1.161  32.822  0.00  0.00     0.211 C 
ATOM     14  O   UNL d   1      55.114  -0.751  33.183  0.00  0.00    -0.644 OA
ATOM     15  O   UNL d   1      55.929  -1.926  33.067  0.00  0.00    -0.644 OA
ENDBRANCH  12  13
ENDBRANCH   1  12
BRANCH  10  16
ATOM     16  O   UNL d   1      58.916   0.682  30.079  0.00  0.00    -0.328 OA
ATOM     17  C   UNL d   1      59.325   0.123  29.625  0.00  0.00     0.181 C 
ENDBRANCH  10  16
TORSDOF 3
ENDMDL
MODEL 2
REMARK VINA RESULT:      -4.1      1.263      3.682
REMARK  3 active torsions:
REMARK  status: ('A' for Active; 'I' for Inactive)
REMARK    1  A    between atoms: C_8  and  C_1 
REMARK    2  A    between atoms: C_9  and  C_8 
REMARK    3  A    between atoms: O_16  and  C_13 
ROOT
ATOM      1  C   UNL d   1      57.874  -0.064  30.492  0.00  0.00     0.013 A 
ATOM      2  C   UNL d   1      57.080  -0.821  31.422  0.00  0.00     0.105 A 
ATOM      3  O   UNL d   1      57.270  -1.506  31.021  0.00  0.00    -0.273 OA
ATOM      4  C   UNL d   1      57.384  -0.087  31.159  0.00  0.00     0.023 A 
ATOM      5  C   UNL d   1      57.759  -1.479  30.356  0.00  0.00     0.300 A 
ATOM      6  C   UNL d   1      58.060  -0.759  30.094  0.00  0.00     0.069 A 
ATOM      7  C   UNL d   1      56.599  -0.842  32.078  0.00  0.00     0.049 A 
ATOM      8  C   UNL d   1      57.196   0.603  31.559  0.00  0.00     0.004 A 
ATOM      9  O   UNL d   1      57.947  -2.190  29.951  0.00  0.00    -0.259 OA
ATOM     10  C   UNL d   1      56.407  -0.142  32.486  0.00  0.00     0.096 A 
ATOM     11  C   UNL d   1      56.705   0.576  32.227  0.00  0.00     0.024 A 
ENDROOT
BRANCH   1  12
ATOM     12  C   UNL d   1      58.170   0.661  30.237  0.00  0.00     0.070 C 
BRANCH  12  13
ATOM     13  C   UNL d   1      58.747   0.675  29.644  0.00  0.00     0.211 C 
ATOM     14  O   UNL d   1      58.517   0.682  28.842  0.00  0.00    -0.644 OA
ATOM     15  O   UNL d   1      59.549   0.681  29.838  0.00  0.00    -0.644 OA
ENDBRANCH  12  13
ENDBRANCH   1  12
BRANCH  10  16
ATOM     16  O   UNL d   1      55.918  -0.173  33.149  0.00  0.00    -0.328 OA
ATOM     17  C   UNL d   1      55.376   0.437  33.293  0.00  0.00     0.181 C 
ENDBRANCH  10  16
TORSDOF 3
ENDMDL
MODEL 3
REMARK VINA RESULT:      -3.6      1.294      3.291
REMARK  3 active torsions:
REMARK  status: ('A' for Active; 'I' for Inactive)
REMARK    1  A    between atoms: C_8  and  C_1 
REMARK    2  A    between atoms: C_9  and  C_8 
REMARK    3  A    between atoms: O_16  and  C_13 
ROOT
ATOM      1  C   UNL d   1      57.220   0.226  32.000  0.00  0.00     0.013 A 
ATOM      2  C   UNL d   1      57.061   0.555  33.391  0.00  0.00     0.105 A 
ATOM      3  O   UNL d   1      57.868   0.668  33.453  0.00  0.00    -0.273 OA
ATOM      4  C   UNL d   1      56.727   0.330  32.657  0.00  0.00     0.023 A 
ATOM      5  C   UNL d   1      58.356   0.563  32.795  0.00  0.00     0.300 A 
ATOM      6  C   UNL d   1      58.031   0.342  32.071  0.00  0.00     0.069 A 
ATOM      7  C   UNL d   1      56.576   0.658  34.036  0.00  0.00     0.049 A 
ATOM      8  C   UNL d   1      55.919   0.215  32.591  0.00  0.00     0.004 A 
ATOM      9  O   UNL d   1      59.183   0.682  32.869  0.00  0.00    -0.259 OA
ATOM     10  C   UNL d   1      55.754   0.542  33.971  0.00  0.00     0.096 A 
ATOM     11  C   UNL d   1      55.429   0.322  33.252  0.00  0.00     0.024 A 
ENDROOT
BRANCH   1  12
ATOM     12  C   UNL d   1      56.887   0.004  31.280  0.00  0.00     0.070 C 
BRANCH  12  13
ATOM     13  C   UNL d   1      57.364  -0.015  30.604  0.00  0.00     0.211 C 
ATOM     14  O   UNL d   1      57.707  -0.736  30.361  0.00  0.00    -0.644 OA
ATOM     15  O   UNL d   1      57.502   0.671  30.168  0.00  0.00    -0.644 OA
ENDBRANCH  12  13
ENDBRANCH   1  12
BRANCH  10  16
ATOM     16  O   UNL d   1      55.270   0.648  34.630  0.00  0.00    -0.328 OA
ATOM     17  C   UNL d   1      54.447   0.664  34.540  0.00  0.00     0.181 C 
ENDBRANCH  10  16
TORSDOF 3
ENDMDL
MODEL 4
REMARK VINA RESULT:      -2.6      2.774      4.485
REMARK  3 active torsions:
REMARK  status: ('A' for Active; 'I' for Inactive)
REMARK    1  A    between atoms: C_8  and  C_1 
REMARK    2  A    between atoms: C_9  and  C_8 
REMARK    3  A    between atoms: O_16  and  C_13 
ROOT
ATOM      1  C   UNL d   1      59.126  -0.645  29.284  0.00  0.00     0.013 A 
ATOM      2  C   UNL d   1      60.137  -1.472  28.682  0.00  0.00     0.105 A 
ATOM      3  O   UNL d   1      60.572  -0.804  28.503  0.00  0.00    -0.273 OA
ATOM      4  C   UNL d   1      59.403  -1.397  29.078  0.00  0.00     0.023 A 
ATOM      5  C   UNL d   1      60.292  -0.055  28.710  0.00  0.00     0.300 A 
ATOM      6  C   UNL d   1      59.571   0.023  29.099  0.00  0.00     0.069 A 
ATOM      7  C   UNL d   1      60.409  -2.212  28.481  0.00  0.00     0.049 A 
ATOM      8  C   UNL d   1      58.964  -2.064  29.260  0.00  0.00     0.004 A 
ATOM      9  O   UNL d   1      60.746   0.624  28.520  0.00  0.00    -0.259 OA
ATOM     10  C   UNL d   1      59.964  -2.891  28.665  0.00  0.00     0.096 A 
ATOM     11  C   UNL d   1      59.246  -2.817  29.052  0.00  0.00     0.024 A 
ENDROOT
BRANCH   1  12
ATOM     12  C   UNL d   1      58.403  -0.576  29.673  0.00  0.00     0.070 C 
BRANCH  12  13
ATOM     13  C   UNL d   1      58.129   0.176  29.885  0.00  0.00     0.211 C 
ATOM     14  O   UNL d   1      58.341   0.501  30.624  0.00  0.00    -0.644 OA
ATOM     15  O   UNL d   1      57.648   0.606  29.372  0.00  0.00    -0.644 OA
ENDBRANCH  12  13
ENDBRANCH   1  12
BRANCH  10  16
ATOM     16  O   UNL d   1      60.247  -3.637  28.457  0.00  0.00    -0.328 OA
ATOM     17  C   UNL d   1      60.831  -4.002  28.918  0.00  0.00     0.181 C 
ENDBRANCH  10  16
TORSDOF 3
ENDMDL
MODEL 5
REMARK VINA RESULT:      -2.4      1.081      2.092
REMARK  3 active torsions:
REMARK  status: ('A' for Active; 'I' for Inactive)
REMARK    1  A    between atoms: C_8  and  C_1 
REMARK    2  A    between atoms: C_9  and  C_8 
REMARK    3  A    between atoms: O_16  and  C_13 
ROOT
ATOM      1  C   UNL d   1      57.454   0.024  31.769  0.00  0.00     0.013 A 
ATOM      2  C   UNL d   1      57.797  -0.639  30.540  0.00  0.00     0.105 A 
ATOM      3  O   UNL d   1      57.347  -1.282  30.765  0.00  0.00    -0.273 OA
ATOM      4  C   UNL d   1      57.855   0.026  31.045  0.00  0.00     0.023 A 
ATOM      5  C   UNL d   1      56.948  -1.280  31.488  0.00  0.00     0.300 A 
ATOM      6  C   UNL d   1      57.002  -0.628  31.988  0.00  0.00     0.069 A 
ATOM      7  C   UNL d   1      58.192  -0.637  29.828  0.00  0.00     0.049 A 
ATOM      8  C   UNL d   1      58.306   0.673  30.823  0.00  0.00     0.004 A 
ATOM      9  O   UNL d   1      56.488  -1.946  31.710  0.00  0.00    -0.259 OA
ATOM     10  C   UNL d   1      58.650   0.020  29.601  0.00  0.00     0.096 A 
ATOM     11  C   UNL d   1      58.706   0.670  30.096  0.00  0.00     0.024 A 
ENDROOT
BRANCH   1  12
ATOM     12  C   UNL d   1      57.514   0.681  32.263  0.00  0.00     0.070 C 
BRANCH  12  13
ATOM     13  C   UNL d   1      57.186   0.646  33.022  0.00  0.00     0.211 C 
ATOM     14  O   UNL d   1      57.687   0.582  33.686  0.00  0.00    -0.644 OA
ATOM     15  O   UNL d   1      56.369   0.676  33.128  0.00  0.00    -0.644 OA
ENDBRANCH  12  13
ENDBRANCH   1  12
BRANCH  10  16
ATOM     16  O   UNL d   1      59.047   0.014  28.878  0.00  0.00    -0.328 OA
ATOM     17  C   UNL d   1      59.692   0.520  28.755  0.00  0.00     0.181 C 
ENDBRANCH  10  16
TORSDOF 3
ENDMDL
MODEL 6
REMARK VINA RESULT:      -2.2      9.671     10.361
REMARK  3 active torsions:
REMARK  status: ('A' for Active; 'I' for Inactive)
REMARK    1  A    between atoms: C_8  and  C_1 
REMARK    2  A    between atoms: C_9  and  C_8 
REMARK    3  A    between atoms: O_16  and  C_13 
ROOT
ATOM      1  C   UNL d   1      60.195  -9.561  32.720  0.00  0.00     0.013 A 
ATOM      2  C   UNL d   1      59.357  -9.540  33.889  0.00  0.00     0.105 A 
ATOM      3  O   UNL d   1      58.700  -9.645  33.415  0.00  0.00    -0.273 OA
ATOM      4  C   UNL d   1      60.118  -9.497  33.542  0.00  0.00     0.023 A 
ATOM      5  C   UNL d   1      58.782  -9.709  32.596  0.00  0.00     0.300 A 
ATOM      6  C   UNL d   1      59.528  -9.667  32.251  0.00  0.00     0.069 A 
ATOM      7  C   UNL d   1      59.282  -9.476  34.696  0.00  0.00     0.049 A 
ATOM      8  C   UNL d   1      60.779  -9.391  34.013  0.00  0.00     0.004 A 
ATOM      9  O   UNL d   1      58.100  -9.817  32.119  0.00  0.00    -0.259 OA
ATOM     10  C   UNL d   1      59.953  -9.369  35.177  0.00  0.00     0.096 A 
ATOM     11  C   UNL d   1      60.697  -9.327  34.836  0.00  0.00     0.024 A 
ENDROOT
BRANCH   1  12
ATOM     12  C   UNL d   1      60.945  -9.518  32.383  0.00  0.00     0.070 C 
BRANCH  12  13
ATOM     13  C   UNL d   1      61.021  -9.271  31.597  0.00  0.00     0.211 C 
ATOM     14  O   UNL d   1      61.133  -8.462  31.426  0.00  0.00    -0.644 OA
ATOM     15  O   UNL d   1      60.987  -9.818  30.980  0.00  0.00    -0.644 OA
ENDBRANCH  12  13
ENDBRANCH   1  12
BRANCH  10  16
ATOM     16  O   UNL d   1      59.868  -9.306  35.995  0.00  0.00    -0.328 OA
ATOM     17  C   UNL d   1      59.262  -8.839  36.313  0.00  0.00     0.181 C 
ENDBRANCH  10  16
TORSDOF 3
ENDMDL
