MODEL 1
REMARK VINA RESULT:      -3.6      0.000      0.000
REMARK  4 active torsions:
REMARK  status: ('A' for Active; 'I' for Inactive)
REMARK       I    between atoms: C_6  and  N_7 
REMARK    1  A    between atoms: C_9  and  C_6 
REMARK    2  A    between atoms: N_7  and  C_15 
REMARK    3  A    between atoms: C_15  and  C_14 
REMARK    4  A    between atoms: O_22  and  C_18 
ROOT
ATOM      1  C   UNL d   1      33.113  18.933 -22.880  0.00  0.00     0.102 C 
ENDROOT
BRANCH   1   2
ATOM      2  N   UNL d   1      32.472  18.607 -23.268  0.00  0.00    -0.206 NA
ATOM      3  C   UNL d   1      32.495  17.839 -23.553  0.00  0.00     0.279 C 
ATOM      4  O   UNL d   1      33.177  17.386 -23.448  0.00  0.00    -0.265 OA
BRANCH   3   5
ATOM      5  C   UNL d   1      31.848  17.509 -23.945  0.00  0.00     0.058 A 
ATOM      6  C   UNL d   1      31.615  17.799 -24.682  0.00  0.00     0.007 A 
ATOM      7  C   UNL d   1      30.965  17.459 -25.062  0.00  0.00     0.024 A 
ATOM      8  C   UNL d   1      30.553  16.847 -24.725  0.00  0.00     0.094 A 
ATOM      9  C   UNL d   1      30.790  16.552 -23.975  0.00  0.00     0.024 A 
ATOM     10  C   UNL d   1      31.437  16.881 -23.583  0.00  0.00     0.007 A 
BRANCH   8  11
ATOM     11  O   UNL d   1      29.907  16.505 -25.097  0.00  0.00    -0.328 OA
ATOM     12  C   UNL d   1      29.151  16.836 -24.976  0.00  0.00     0.181 C 
ENDBRANCH   8  11
ENDBRANCH   3   5
ENDBRANCH   1   2
BRANCH   1  13
ATOM     13  C   UNL d   1      33.085  19.707 -22.603  0.00  0.00     0.019 A 
ATOM     14  C   UNL d   1      33.241  20.341 -23.119  0.00  0.00     0.003 A 
ATOM     15  C   UNL d   1      33.213  21.118 -22.839  0.00  0.00     0.018 A 
ATOM     16  C   UNL d   1      33.031  21.264 -22.050  0.00  0.00     0.064 A 
ATOM     17  N   UNL d   1      32.964  21.963 -21.621  0.00  0.00    -0.304 N 
ATOM     18  C   UNL d   1      32.876  20.642 -21.532  0.00  0.00     0.018 A 
ATOM     19  C   UNL d   1      32.768  21.773 -20.845  0.00  0.00     0.064 A 
ATOM     20  C   UNL d   1      33.074  22.724 -21.922  0.00  0.00     0.099 C 
ATOM     21  C   UNL d   1      32.715  20.954 -20.794  0.00  0.00     0.019 A 
ATOM     22  C   UNL d   1      32.647  22.306 -20.227  0.00  0.00     0.019 C 
ATOM     23  C   UNL d   1      32.903  19.855 -21.811  0.00  0.00     0.003 A 
ENDBRANCH   1  13
TORSDOF 4
ENDMDL
MODEL 2
REMARK VINA RESULT:      -2.3      1.023      1.711
REMARK  4 active torsions:
REMARK  status: ('A' for Active; 'I' for Inactive)
REMARK       I    between atoms: C_6  and  N_7 
REMARK    1  A    between atoms: C_9  and  C_6 
REMARK    2  A    between atoms: N_7  and  C_15 
REMARK    3  A    between atoms: C_15  and  C_14 
REMARK    4  A    between atoms: O_22  and  C_18 
ROOT
ATOM      1  C   UNL d   1      32.876  18.023 -23.372  0.00  0.00     0.102 C 
ENDROOT
BRANCH   1   2
ATOM      2  N   UNL d   1      32.156  17.711 -23.598  0.00  0.00    -0.206 NA
ATOM      3  C   UNL d   1      32.074  16.914 -23.767  0.00  0.00     0.279 C 
ATOM      4  O   UNL d   1      32.729  16.416 -23.708  0.00  0.00    -0.265 OA
BRANCH   3   5
ATOM      5  C   UNL d   1      31.346  16.599 -23.996  0.00  0.00     0.058 A 
ATOM      6  C   UNL d   1      31.063  16.716 -24.762  0.00  0.00     0.007 A 
ATOM      7  C   UNL d   1      30.333  16.395 -24.977  0.00  0.00     0.024 A 
ATOM      8  C   UNL d   1      29.890  15.967 -24.449  0.00  0.00     0.094 A 
ATOM      9  C   UNL d   1      30.177  15.847 -23.668  0.00  0.00     0.024 A 
ATOM     10  C   UNL d   1      30.905  16.162 -23.440  0.00  0.00     0.007 A 
BRANCH   8  11
ATOM     11  O   UNL d   1      29.164  15.645 -24.655  0.00  0.00    -0.328 OA
ATOM     12  C   UNL d   1      28.518  15.744 -24.137  0.00  0.00     0.181 C 
ENDBRANCH   8  11
ENDBRANCH   3   5
ENDBRANCH   1   2
BRANCH   1  13
ATOM     13  C   UNL d   1      32.952  18.824 -23.204  0.00  0.00     0.019 A 
ATOM     14  C   UNL d   1      32.997  19.083 -22.414  0.00  0.00     0.003 A 
ATOM     15  C   UNL d   1      33.073  19.889 -22.246  0.00  0.00     0.018 A 
ATOM     16  C   UNL d   1      33.104  20.435 -22.862  0.00  0.00     0.064 A 
ATOM     17  N   UNL d   1      33.177  21.255 -22.866  0.00  0.00    -0.304 N 
ATOM     18  C   UNL d   1      33.061  20.187 -23.647  0.00  0.00     0.018 A 
ATOM     19  C   UNL d   1      33.178  21.510 -23.647  0.00  0.00     0.064 A 
ATOM     20  C   UNL d   1      33.238  21.735 -22.198  0.00  0.00     0.099 C 
ATOM     21  C   UNL d   1      33.106  20.846 -24.128  0.00  0.00     0.019 A 
ATOM     22  C   UNL d   1      33.240  22.291 -23.906  0.00  0.00     0.019 C 
ATOM     23  C   UNL d   1      32.984  19.374 -23.820  0.00  0.00     0.003 A 
ENDBRANCH   1  13
TORSDOF 4
ENDMDL
MODEL 3
REMARK VINA RESULT:      -1.2      1.272      1.841
REMARK  4 active torsions:
REMARK  status: ('A' for Active; 'I' for Inactive)
REMARK       I    between atoms: C_6  and  N_7 
REMARK    1  A    between atoms: C_9  and  C_6 
REMARK    2  A    between atoms: N_7  and  C_15 
REMARK    3  A    between atoms: C_15  and  C_14 
REMARK    4  A    between atoms: O_22  and  C_18 
ROOT
ATOM      1  C   UNL d   1      33.183  19.703 -21.327  0.00  0.00     0.102 C 
ENDROOT
BRANCH   1   2
ATOM      2  N   UNL d   1      32.993  19.366 -22.046  0.00  0.00    -0.206 NA
ATOM      3  C   UNL d   1      33.019  18.553 -22.152  0.00  0.00     0.279 C 
ATOM      4  O   UNL d   1      33.240  18.068 -21.524  0.00  0.00    -0.265 OA
BRANCH   3   5
ATOM      5  C   UNL d   1      32.826  18.211 -22.879  0.00  0.00     0.058 A 
ATOM      6  C   UNL d   1      32.499  17.455 -22.910  0.00  0.00     0.007 A 
ATOM      7  C   UNL d   1      32.312  17.125 -23.643  0.00  0.00     0.024 A 
ATOM      8  C   UNL d   1      32.443  17.532 -24.333  0.00  0.00     0.094 A 
ATOM      9  C   UNL d   1      32.776  18.303 -24.302  0.00  0.00     0.024 A 
ATOM     10  C   UNL d   1      32.969  18.645 -23.576  0.00  0.00     0.007 A 
BRANCH   8  11
ATOM     11  O   UNL d   1      32.260  17.211 -25.066  0.00  0.00    -0.328 OA
ATOM     12  C   UNL d   1      31.775  16.533 -25.097  0.00  0.00     0.181 C 
ENDBRANCH   8  11
ENDBRANCH   3   5
ENDBRANCH   1   2
BRANCH   1  13
ATOM     13  C   UNL d   1      33.053  20.505 -21.193  0.00  0.00     0.019 A 
ATOM     14  C   UNL d   1      32.826  21.001 -21.823  0.00  0.00     0.003 A 
ATOM     15  C   UNL d   1      32.696  21.806 -21.687  0.00  0.00     0.018 A 
ATOM     16  C   UNL d   1      32.790  22.115 -20.930  0.00  0.00     0.064 A 
ATOM     17  N   UNL d   1      32.701  22.878 -20.633  0.00  0.00    -0.304 N 
ATOM     18  C   UNL d   1      33.014  21.631 -20.302  0.00  0.00     0.018 A 
ATOM     19  C   UNL d   1      32.869  22.863 -19.828  0.00  0.00     0.064 A 
ATOM     20  C   UNL d   1      32.481  23.542 -21.071  0.00  0.00     0.099 C 
ATOM     21  C   UNL d   1      33.063  22.089 -19.627  0.00  0.00     0.019 A 
ATOM     22  C   UNL d   1      32.849  23.507 -19.313  0.00  0.00     0.019 C 
ATOM     23  C   UNL d   1      33.147  20.818 -20.435  0.00  0.00     0.003 A 
ENDBRANCH   1  13
TORSDOF 4
ENDMDL
