MODEL 1
REMARK VINA RESULT:      -9.7      0.000      0.000
REMARK  5 active torsions:
REMARK  status: ('A' for Active; 'I' for Inactive)
REMARK    1  A    between atoms: N_2  and  S_1 
REMARK    2  A    between atoms: C_5  and  S_1 
REMARK    3  A    between atoms: C_4  and  C_3 
REMARK       I    between atoms: N_6  and  C_4 
REMARK    4  A    between atoms: C_12  and  N_6 
REMARK    5  A    between atoms: O_23  and  C_15 
ROOT
ATOM      1  N   UNL d   1      53.465  31.219  53.497  0.00  0.00    -0.226 N 
ATOM      2  C   UNL d   1      52.781  31.342  53.047  0.00  0.00     0.133 A 
ATOM      3  C   UNL d   1      53.640  30.415  53.488  0.00  0.00     0.092 A 
ATOM      4  C   UNL d   1      52.539  30.603  52.762  0.00  0.00     0.025 A 
ATOM      5  C   UNL d   1      53.072  30.035  53.036  0.00  0.00     0.021 A 
ENDROOT
BRANCH   2   6
ATOM      6  C   UNL d   1      52.415  32.065  52.912  0.00  0.00     0.296 C 
ATOM      7  N   UNL d   1      51.648  32.188  53.201  0.00  0.00    -0.207 NA
ATOM      8  O   UNL d   1      52.803  32.659  52.496  0.00  0.00    -0.264 OA
BRANCH   7   9
ATOM      9  C   UNL d   1      51.277  32.918  53.066  0.00  0.00     0.085 A 
ATOM     10  C   UNL d   1      51.270  33.241  52.303  0.00  0.00     0.021 A 
ATOM     11  C   UNL d   1      50.898  33.970  52.173  0.00  0.00     0.026 A 
ATOM     12  C   UNL d   1      50.539  34.366  52.798  0.00  0.00     0.094 A 
ATOM     13  C   UNL d   1      50.548  34.039  53.560  0.00  0.00     0.026 A 
ATOM     14  C   UNL d   1      50.917  33.314  53.692  0.00  0.00     0.021 A 
BRANCH  12  15
ATOM     15  O   UNL d   1      50.167  35.094  52.671  0.00  0.00    -0.328 OA
ATOM     16  C   UNL d   1      49.347  35.152  52.770  0.00  0.00     0.181 C 
ENDBRANCH  12  15
ENDBRANCH   7   9
ENDBRANCH   2   6
BRANCH   1  17
ATOM     17  S   UNL d   1      53.859  31.844  53.868  0.00  0.00     0.271 S 
ATOM     18  O   UNL d   1      53.477  31.610  54.550  0.00  0.00    -0.200 OA
ATOM     19  O   UNL d   1      54.244  32.075  53.165  0.00  0.00    -0.200 OA
BRANCH  17  20
ATOM     20  C   UNL d   1      54.231  32.455  54.271  0.00  0.00     0.104 A 
ATOM     21  C   UNL d   1      54.049  32.602  55.062  0.00  0.00     0.013 A 
ATOM     22  C   UNL d   1      54.427  33.218  55.460  0.00  0.00     0.001 A 
ATOM     23  C   UNL d   1      54.987  33.686  55.069  0.00  0.00     0.000 A 
ATOM     24  C   UNL d   1      55.170  33.537  54.271  0.00  0.00     0.001 A 
ATOM     25  C   UNL d   1      55.368  34.303  55.463  0.00  0.00     0.000 C 
ATOM     26  C   UNL d   1      54.789  32.920  53.877  0.00  0.00     0.013 A 
ENDBRANCH  17  20
ENDBRANCH   1  17
TORSDOF 5
ENDMDL
MODEL 2
REMARK VINA RESULT:      -9.6      1.067      2.655
REMARK  5 active torsions:
REMARK  status: ('A' for Active; 'I' for Inactive)
REMARK    1  A    between atoms: N_2  and  S_1 
REMARK    2  A    between atoms: C_5  and  S_1 
REMARK    3  A    between atoms: C_4  and  C_3 
REMARK       I    between atoms: N_6  and  C_4 
REMARK    4  A    between atoms: C_12  and  N_6 
REMARK    5  A    between atoms: O_23  and  C_15 
ROOT
ATOM      1  N   UNL d   1      54.218  32.954  54.539  0.00  0.00    -0.226 N 
ATOM      2  C   UNL d   1      53.845  33.652  54.298  0.00  0.00     0.133 A 
ATOM      3  C   UNL d   1      54.808  33.149  55.078  0.00  0.00     0.092 A 
ATOM      4  C   UNL d   1      54.214  34.278  54.697  0.00  0.00     0.025 A 
ATOM      5  C   UNL d   1      54.807  33.962  55.176  0.00  0.00     0.021 A 
ENDROOT
BRANCH   2   6
ATOM      6  C   UNL d   1      53.224  33.709  53.763  0.00  0.00     0.296 C 
ATOM      7  N   UNL d   1      52.490  33.992  54.025  0.00  0.00    -0.207 NA
ATOM      8  O   UNL d   1      53.328  33.489  52.976  0.00  0.00    -0.264 OA
BRANCH   7   9
ATOM      9  C   UNL d   1      51.862  34.049  53.485  0.00  0.00     0.085 A 
ATOM     10  C   UNL d   1      51.959  34.482  52.786  0.00  0.00     0.021 A 
ATOM     11  C   UNL d   1      51.330  34.537  52.250  0.00  0.00     0.026 A 
ATOM     12  C   UNL d   1      50.615  34.163  52.415  0.00  0.00     0.094 A 
ATOM     13  C   UNL d   1      50.522  33.731  53.117  0.00  0.00     0.026 A 
ATOM     14  C   UNL d   1      51.148  33.675  53.651  0.00  0.00     0.021 A 
BRANCH  12  15
ATOM     15  O   UNL d   1      49.985  34.216  51.882  0.00  0.00    -0.328 OA
ATOM     16  C   UNL d   1      49.321  34.668  52.085  0.00  0.00     0.181 C 
ENDBRANCH  12  15
ENDBRANCH   7   9
ENDBRANCH   2   6
BRANCH   1  17
ATOM     17  S   UNL d   1      53.987  32.216  54.246  0.00  0.00     0.271 S 
ATOM     18  O   UNL d   1      53.588  32.122  54.951  0.00  0.00    -0.200 OA
ATOM     19  O   UNL d   1      54.400  32.324  53.529  0.00  0.00    -0.200 OA
BRANCH  17  20
ATOM     20  C   UNL d   1      53.737  31.477  53.990  0.00  0.00     0.104 A 
ATOM     21  C   UNL d   1      53.905  31.225  53.222  0.00  0.00     0.013 A 
ATOM     22  C   UNL d   1      53.651  30.481  52.973  0.00  0.00     0.001 A 
ATOM     23  C   UNL d   1      53.230  29.989  53.489  0.00  0.00     0.000 A 
ATOM     24  C   UNL d   1      53.061  30.244  54.263  0.00  0.00     0.001 A 
ATOM     25  C   UNL d   1      52.973  29.244  53.244  0.00  0.00     0.000 C 
ATOM     26  C   UNL d   1      53.317  30.989  54.508  0.00  0.00     0.013 A 
ENDBRANCH  17  20
ENDBRANCH   1  17
TORSDOF 5
ENDMDL
MODEL 3
REMARK VINA RESULT:      -8.9      1.338      3.419
REMARK  5 active torsions:
REMARK  status: ('A' for Active; 'I' for Inactive)
REMARK    1  A    between atoms: N_2  and  S_1 
REMARK    2  A    between atoms: C_5  and  S_1 
REMARK    3  A    between atoms: C_4  and  C_3 
REMARK       I    between atoms: N_6  and  C_4 
REMARK    4  A    between atoms: C_12  and  N_6 
REMARK    5  A    between atoms: O_23  and  C_15 
ROOT
ATOM      1  N   UNL d   1      52.425  33.861  53.084  0.00  0.00    -0.226 N 
ATOM      2  C   UNL d   1      52.033  33.163  52.876  0.00  0.00     0.133 A 
ATOM      3  C   UNL d   1      52.100  34.480  52.649  0.00  0.00     0.092 A 
ATOM      4  C   UNL d   1      51.463  33.361  52.308  0.00  0.00     0.025 A 
ATOM      5  C   UNL d   1      51.508  34.173  52.172  0.00  0.00     0.021 A 
ENDROOT
BRANCH   2   6
ATOM      6  C   UNL d   1      52.185  32.414  53.179  0.00  0.00     0.296 C 
ATOM      7  N   UNL d   1      52.501  31.833  52.680  0.00  0.00    -0.207 NA
ATOM      8  O   UNL d   1      52.025  32.242  53.968  0.00  0.00    -0.264 OA
BRANCH   7   9
ATOM      9  C   UNL d   1      52.655  31.077  52.985  0.00  0.00     0.085 A 
ATOM     10  C   UNL d   1      52.031  30.614  53.273  0.00  0.00     0.021 A 
ATOM     11  C   UNL d   1      52.189  29.860  53.577  0.00  0.00     0.026 A 
ATOM     12  C   UNL d   1      52.961  29.575  53.590  0.00  0.00     0.094 A 
ATOM     13  C   UNL d   1      53.584  30.042  53.300  0.00  0.00     0.026 A 
ATOM     14  C   UNL d   1      53.428  30.793  52.998  0.00  0.00     0.021 A 
BRANCH  12  15
ATOM     15  O   UNL d   1      53.123  28.823  53.893  0.00  0.00    -0.328 OA
ATOM     16  C   UNL d   1      53.320  28.742  54.693  0.00  0.00     0.181 C 
ENDBRANCH  12  15
ENDBRANCH   7   9
ENDBRANCH   2   6
BRANCH   1  17
ATOM     17  S   UNL d   1      53.034  33.866  53.643  0.00  0.00     0.271 S 
ATOM     18  O   UNL d   1      53.545  33.852  53.007  0.00  0.00    -0.200 OA
ATOM     19  O   UNL d   1      52.502  33.881  54.285  0.00  0.00    -0.200 OA
BRANCH  17  20
ATOM     20  C   UNL d   1      53.665  33.871  54.168  0.00  0.00     0.104 A 
ATOM     21  C   UNL d   1      53.540  34.038  54.967  0.00  0.00     0.013 A 
ATOM     22  C   UNL d   1      54.180  34.041  55.488  0.00  0.00     0.001 A 
ATOM     23  C   UNL d   1      54.943  33.877  55.212  0.00  0.00     0.000 A 
ATOM     24  C   UNL d   1      55.068  33.709  54.407  0.00  0.00     0.001 A 
ATOM     25  C   UNL d   1      55.585  33.878  55.729  0.00  0.00     0.000 C 
ATOM     26  C   UNL d   1      54.425  33.707  53.889  0.00  0.00     0.013 A 
ENDBRANCH  17  20
ENDBRANCH   1  17
TORSDOF 5
ENDMDL
MODEL 4
REMARK VINA RESULT:      -8.6      1.379      4.035
REMARK  5 active torsions:
REMARK  status: ('A' for Active; 'I' for Inactive)
REMARK    1  A    between atoms: N_2  and  S_1 
REMARK    2  A    between atoms: C_5  and  S_1 
REMARK    3  A    between atoms: C_4  and  C_3 
REMARK       I    between atoms: N_6  and  C_4 
REMARK    4  A    between atoms: C_12  and  N_6 
REMARK    5  A    between atoms: O_23  and  C_15 
ROOT
ATOM      1  N   UNL d   1      53.755  33.924  54.347  0.00  0.00    -0.226 N 
ATOM      2  C   UNL d   1      54.062  33.177  54.530  0.00  0.00     0.133 A 
ATOM      3  C   UNL d   1      54.285  34.494  54.614  0.00  0.00     0.092 A 
ATOM      4  C   UNL d   1      54.787  33.298  54.912  0.00  0.00     0.025 A 
ATOM      5  C   UNL d   1      54.920  34.110  54.961  0.00  0.00     0.021 A 
ENDROOT
BRANCH   2   6
ATOM      6  C   UNL d   1      53.709  32.455  54.361  0.00  0.00     0.296 C 
ATOM      7  N   UNL d   1      54.077  31.942  53.823  0.00  0.00    -0.207 NA
ATOM      8  O   UNL d   1      53.001  32.241  54.721  0.00  0.00    -0.264 OA
BRANCH   7   9
ATOM      9  C   UNL d   1      53.721  31.212  53.652  0.00  0.00     0.085 A 
ATOM     10  C   UNL d   1      53.350  31.096  52.921  0.00  0.00     0.021 A 
ATOM     11  C   UNL d   1      52.997  30.366  52.754  0.00  0.00     0.026 A 
ATOM     12  C   UNL d   1      53.016  29.762  53.313  0.00  0.00     0.094 A 
ATOM     13  C   UNL d   1      53.389  29.882  54.044  0.00  0.00     0.026 A 
ATOM     14  C   UNL d   1      53.741  30.609  54.211  0.00  0.00     0.021 A 
BRANCH  12  15
ATOM     15  O   UNL d   1      52.664  29.032  53.150  0.00  0.00    -0.328 OA
ATOM     16  C   UNL d   1      51.865  28.917  53.335  0.00  0.00     0.181 C 
ENDBRANCH  12  15
ENDBRANCH   7   9
ENDBRANCH   2   6
BRANCH   1  17
ATOM     17  S   UNL d   1      53.030  34.011  53.959  0.00  0.00     0.271 S 
ATOM     18  O   UNL d   1      53.467  34.089  53.274  0.00  0.00    -0.200 OA
ATOM     19  O   UNL d   1      52.594  33.931  54.665  0.00  0.00    -0.200 OA
BRANCH  17  20
ATOM     20  C   UNL d   1      52.331  34.102  53.539  0.00  0.00     0.104 A 
ATOM     21  C   UNL d   1      51.604  33.985  53.912  0.00  0.00     0.013 A 
ATOM     22  C   UNL d   1      50.905  34.078  53.484  0.00  0.00     0.001 A 
ATOM     23  C   UNL d   1      50.932  34.288  52.683  0.00  0.00     0.000 A 
ATOM     24  C   UNL d   1      51.665  34.406  52.308  0.00  0.00     0.001 A 
ATOM     25  C   UNL d   1      50.236  34.382  52.250  0.00  0.00     0.000 C 
ATOM     26  C   UNL d   1      52.361  34.312  52.741  0.00  0.00     0.013 A 
ENDBRANCH  17  20
ENDBRANCH   1  17
TORSDOF 5
ENDMDL
MODEL 5
REMARK VINA RESULT:      -6.8      1.073      3.727
REMARK  5 active torsions:
REMARK  status: ('A' for Active; 'I' for Inactive)
REMARK    1  A    between atoms: N_2  and  S_1 
REMARK    2  A    between atoms: C_5  and  S_1 
REMARK    3  A    between atoms: C_4  and  C_3 
REMARK       I    between atoms: N_6  and  C_4 
REMARK    4  A    between atoms: C_12  and  N_6 
REMARK    5  A    between atoms: O_23  and  C_15 
ROOT
ATOM      1  N   UNL d   1      52.433  31.235  52.966  0.00  0.00    -0.226 N 
ATOM      2  C   UNL d   1      53.194  31.179  53.287  0.00  0.00     0.133 A 
ATOM      3  C   UNL d   1      52.187  30.480  52.752  0.00  0.00     0.092 A 
ATOM      4  C   UNL d   1      53.411  30.380  53.266  0.00  0.00     0.025 A 
ATOM      5  C   UNL d   1      52.788  29.953  52.935  0.00  0.00     0.021 A 
ENDROOT
BRANCH   2   6
ATOM      6  C   UNL d   1      53.646  31.804  53.572  0.00  0.00     0.296 C 
ATOM      7  N   UNL d   1      53.763  31.877  54.389  0.00  0.00    -0.207 NA
ATOM      8  O   UNL d   1      53.979  32.350  53.054  0.00  0.00    -0.264 OA
BRANCH   7   9
ATOM      9  C   UNL d   1      54.218  32.508  54.679  0.00  0.00     0.085 A 
ATOM     10  C   UNL d   1      54.821  32.829  54.210  0.00  0.00     0.021 A 
ATOM     11  C   UNL d   1      55.274  33.458  54.503  0.00  0.00     0.026 A 
ATOM     12  C   UNL d   1      55.123  33.759  55.254  0.00  0.00     0.094 A 
ATOM     13  C   UNL d   1      54.518  33.435  55.720  0.00  0.00     0.026 A 
ATOM     14  C   UNL d   1      54.067  32.808  55.430  0.00  0.00     0.021 A 
BRANCH  12  15
ATOM     15  O   UNL d   1      55.572  34.387  55.549  0.00  0.00    -0.328 OA
ATOM     16  C   UNL d   1      55.925  34.916  55.019  0.00  0.00     0.181 C 
ENDBRANCH  12  15
ENDBRANCH   7   9
ENDBRANCH   2   6
BRANCH   1  17
ATOM     17  S   UNL d   1      52.042  31.960  52.902  0.00  0.00     0.271 S 
ATOM     18  O   UNL d   1      51.590  31.713  53.534  0.00  0.00    -0.200 OA
ATOM     19  O   UNL d   1      52.510  32.203  52.255  0.00  0.00    -0.200 OA
BRANCH  17  20
ATOM     20  C   UNL d   1      51.631  32.670  52.869  0.00  0.00     0.104 A 
ATOM     21  C   UNL d   1      51.800  33.222  52.278  0.00  0.00     0.013 A 
ATOM     22  C   UNL d   1      51.383  33.933  52.252  0.00  0.00     0.001 A 
ATOM     23  C   UNL d   1      50.796  34.092  52.814  0.00  0.00     0.000 A 
ATOM     24  C   UNL d   1      50.625  33.536  53.408  0.00  0.00     0.001 A 
ATOM     25  C   UNL d   1      50.375  34.802  52.791  0.00  0.00     0.000 C 
ATOM     26  C   UNL d   1      51.046  32.826  53.431  0.00  0.00     0.013 A 
ENDBRANCH  17  20
ENDBRANCH   1  17
TORSDOF 5
ENDMDL
