MODEL 1
REMARK VINA RESULT:      -4.0      0.000      0.000
REMARK  4 active torsions:
REMARK  status: ('A' for Active; 'I' for Inactive)
REMARK    1  A    between atoms: N_6  and  C_1 
REMARK       I    between atoms: C_9  and  N_6 
REMARK    2  A    between atoms: C_15  and  C_9 
REMARK    3  A    between atoms: C_13  and  C_16 
REMARK    4  A    between atoms: C_19  and  C_13 
ROOT
ATOM      1  C   UNL d   1      56.321   0.678  33.164  0.00  0.00     0.123 A 
ATOM      2  C   UNL d   1      56.615   0.679  33.935  0.00  0.00     0.092 A 
ATOM      3  C   UNL d   1      55.973   0.680  34.446  0.00  0.00     0.013 A 
ATOM      4  C   UNL d   1      55.288   0.678  34.004  0.00  0.00     0.029 A 
ATOM      5  S   UNL d   1      55.496   0.677  33.203  0.00  0.00    -0.070 SA
ATOM      6  C   UNL d   1      54.546   0.678  34.377  0.00  0.00     0.104 A 
ATOM      7  N   UNL d   1      54.503   0.679  35.199  0.00  0.00    -0.294 NA
ATOM      8  C   UNL d   1      57.408   0.681  34.138  0.00  0.00     0.103 C 
ATOM      9  C   UNL d   1      55.199   0.681  35.647  0.00  0.00     0.099 A 
ATOM     10  C   UNL d   1      55.936   0.681  35.272  0.00  0.00    -0.004 A 
ATOM     11  N   UNL d   1      58.194   0.682  34.345  0.00  0.00    -0.191 NA
ATOM     12  C   UNL d   1      54.374   0.677  33.570  0.00  0.00     0.029 C 
ATOM     13  C   UNL d   1      53.739   0.678  34.557  0.00  0.00     0.029 C 
ATOM     14  C   UNL d   1      54.467   0.681  36.026  0.00  0.00     0.029 C 
ATOM     15  C   UNL d   1      55.894   0.682  36.095  0.00  0.00     0.029 C 
ENDROOT
BRANCH   1  16
ATOM     16  N   UNL d   1      56.769   0.677  32.467  0.00  0.00    -0.201 NA
ATOM     17  C   UNL d   1      56.840  -0.014  32.023  0.00  0.00     0.280 C 
ATOM     18  O   UNL d   1      56.468  -0.705  32.266  0.00  0.00    -0.265 OA
BRANCH  17  19
ATOM     19  C   UNL d   1      57.282  -0.014  31.338  0.00  0.00     0.058 A 
ATOM     20  C   UNL d   1      57.392  -0.716  30.917  0.00  0.00     0.005 A 
ATOM     21  C   UNL d   1      57.840  -0.716  30.221  0.00  0.00     0.003 A 
ATOM     22  C   UNL d   1      58.178  -0.015  29.946  0.00  0.00     0.039 A 
ATOM     23  C   UNL d   1      58.066   0.674  30.365  0.00  0.00     0.003 A 
ATOM     24  C   UNL d   1      57.618   0.675  31.061  0.00  0.00     0.005 A 
BRANCH  22  25
ATOM     25  C   UNL d   1      58.623  -0.020  29.253  0.00  0.00     0.196 C 
ATOM     26  O   UNL d   1      58.281   0.203  28.545  0.00  0.00    -0.287 OA
BRANCH  25  27
ATOM     27  C   UNL d   1      59.412  -0.249  29.276  0.00  0.00     0.039 A 
ATOM     28  C   UNL d   1      59.630  -1.016  29.096  0.00  0.00     0.003 A 
ATOM     29  C   UNL d   1      60.419  -1.246  29.119  0.00  0.00     0.000 A 
ATOM     30  C   UNL d   1      60.998  -0.693  29.327  0.00  0.00     0.000 A 
ATOM     31  C   UNL d   1      60.783   0.083  29.509  0.00  0.00     0.000 A 
ATOM     32  C   UNL d   1      59.992   0.303  29.484  0.00  0.00     0.003 A 
ENDBRANCH  25  27
ENDBRANCH  22  25
ENDBRANCH  17  19
ENDBRANCH   1  16
TORSDOF 4
ENDMDL
