MODEL 1
REMARK VINA RESULT:      -7.6      0.000      0.000
REMARK  3 active torsions:
REMARK  status: ('A' for Active; 'I' for Inactive)
REMARK    1  A    between atoms: S_6  and  C_1 
REMARK    2  A    between atoms: C_9  and  S_6 
REMARK    3  A    between atoms: C_7  and  C_9 
ROOT
ATOM      1  C   UNL d   1      53.688  31.970  53.778  0.00  0.00     0.191 A 
ATOM      2  N   UNL d   1      54.290  32.427  53.477  0.00  0.00    -0.220 NA
ATOM      3  N   UNL d   1      53.583  32.146  54.563  0.00  0.00    -0.220 NA
ATOM      4  C   UNL d   1      54.556  32.891  54.090  0.00  0.00     0.101 A 
ATOM      5  C   UNL d   1      54.117  32.716  54.765  0.00  0.00     0.101 A 
ATOM      6  C   UNL d   1      55.155  33.460  54.116  0.00  0.00     0.021 A 
ATOM      7  C   UNL d   1      54.282  33.112  55.459  0.00  0.00     0.021 A 
ATOM      8  C   UNL d   1      54.870  33.679  55.505  0.00  0.00     0.002 A 
ATOM      9  C   UNL d   1      55.310  33.854  54.829  0.00  0.00     0.002 A 
ENDROOT
BRANCH   1  10
ATOM     10  S   UNL d   1      53.256  31.417  53.354  0.00  0.00    -0.064 SA
BRANCH  10  11
ATOM     11  C   UNL d   1      53.366  30.611  53.488  0.00  0.00     0.162 C 
BRANCH  11  12
ATOM     12  C   UNL d   1      52.916  30.046  53.061  0.00  0.00     0.197 C 
ATOM     13  O   UNL d   1      52.797  30.148  52.258  0.00  0.00    -0.647 OA
ATOM     14  O   UNL d   1      52.602  29.396  53.461  0.00  0.00    -0.647 OA
ENDBRANCH  11  12
ENDBRANCH  10  11
ENDBRANCH   1  10
TORSDOF 3
ENDMDL
MODEL 2
REMARK VINA RESULT:      -7.4      2.641      3.670
REMARK  3 active torsions:
REMARK  status: ('A' for Active; 'I' for Inactive)
REMARK    1  A    between atoms: S_6  and  C_1 
REMARK    2  A    between atoms: C_9  and  S_6 
REMARK    3  A    between atoms: C_7  and  C_9 
ROOT
ATOM      1  C   UNL d   1      53.345  32.924  53.649  0.00  0.00     0.191 A 
ATOM      2  N   UNL d   1      52.804  32.582  53.147  0.00  0.00    -0.220 NA
ATOM      3  N   UNL d   1      53.805  32.347  53.985  0.00  0.00    -0.220 NA
ATOM      4  C   UNL d   1      52.937  31.780  53.178  0.00  0.00     0.101 A 
ATOM      5  C   UNL d   1      53.560  31.634  53.700  0.00  0.00     0.101 A 
ATOM      6  C   UNL d   1      52.562  31.154  52.790  0.00  0.00     0.021 A 
ATOM      7  C   UNL d   1      53.799  30.865  53.826  0.00  0.00     0.021 A 
ATOM      8  C   UNL d   1      53.440  30.232  53.451  0.00  0.00     0.002 A 
ATOM      9  C   UNL d   1      52.818  30.378  52.929  0.00  0.00     0.002 A 
ENDROOT
BRANCH   1  10
ATOM     10  S   UNL d   1      53.414  33.730  53.792  0.00  0.00    -0.064 SA
BRANCH  10  11
ATOM     11  C   UNL d   1      52.917  34.099  54.336  0.00  0.00     0.162 C 
BRANCH  11  12
ATOM     12  C   UNL d   1      53.020  34.911  54.519  0.00  0.00     0.197 C 
ATOM     13  O   UNL d   1      53.374  35.125  55.225  0.00  0.00    -0.647 OA
ATOM     14  O   UNL d   1      52.760  35.482  53.982  0.00  0.00    -0.647 OA
ENDBRANCH  11  12
ENDBRANCH  10  11
ENDBRANCH   1  10
TORSDOF 3
ENDMDL
MODEL 3
REMARK VINA RESULT:      -7.2      1.837      2.168
REMARK  3 active torsions:
REMARK  status: ('A' for Active; 'I' for Inactive)
REMARK    1  A    between atoms: S_6  and  C_1 
REMARK    2  A    between atoms: C_9  and  S_6 
REMARK    3  A    between atoms: C_7  and  C_9 
ROOT
ATOM      1  C   UNL d   1      52.978  32.118  53.198  0.00  0.00     0.191 A 
ATOM      2  N   UNL d   1      52.445  32.432  52.668  0.00  0.00    -0.220 NA
ATOM      3  N   UNL d   1      53.200  32.689  53.728  0.00  0.00    -0.220 NA
ATOM      4  C   UNL d   1      52.342  33.210  52.881  0.00  0.00     0.101 A 
ATOM      5  C   UNL d   1      52.811  33.370  53.540  0.00  0.00     0.101 A 
ATOM      6  C   UNL d   1      51.870  33.802  52.550  0.00  0.00     0.021 A 
ATOM      7  C   UNL d   1      52.803  34.120  53.860  0.00  0.00     0.021 A 
ATOM      8  C   UNL d   1      52.343  34.720  53.547  0.00  0.00     0.002 A 
ATOM      9  C   UNL d   1      51.873  34.560  52.887  0.00  0.00     0.002 A 
ENDROOT
BRANCH   1  10
ATOM     10  S   UNL d   1      53.247  31.342  53.194  0.00  0.00    -0.064 SA
BRANCH  10  11
ATOM     11  C   UNL d   1      52.711  30.717  53.223  0.00  0.00     0.162 C 
BRANCH  11  12
ATOM     12  C   UNL d   1      52.982  29.934  53.355  0.00  0.00     0.197 C 
ATOM     13  O   UNL d   1      53.785  29.791  53.424  0.00  0.00    -0.647 OA
ATOM     14  O   UNL d   1      52.433  29.320  53.412  0.00  0.00    -0.647 OA
ENDBRANCH  11  12
ENDBRANCH  10  11
ENDBRANCH   1  10
TORSDOF 3
ENDMDL
MODEL 4
REMARK VINA RESULT:      -7.1      2.844      3.123
REMARK  3 active torsions:
REMARK  status: ('A' for Active; 'I' for Inactive)
REMARK    1  A    between atoms: S_6  and  C_1 
REMARK    2  A    between atoms: C_9  and  S_6 
REMARK    3  A    between atoms: C_7  and  C_9 
ROOT
ATOM      1  C   UNL d   1      52.419  33.992  53.439  0.00  0.00     0.191 A 
ATOM      2  N   UNL d   1      52.688  33.224  53.468  0.00  0.00    -0.220 NA
ATOM      3  N   UNL d   1      52.840  34.444  53.964  0.00  0.00    -0.220 NA
ATOM      4  C   UNL d   1      53.284  33.210  54.021  0.00  0.00     0.101 A 
ATOM      5  C   UNL d   1      53.379  33.969  54.329  0.00  0.00     0.101 A 
ATOM      6  C   UNL d   1      53.761  32.589  54.286  0.00  0.00     0.021 A 
ATOM      7  C   UNL d   1      53.949  34.097  54.899  0.00  0.00     0.021 A 
ATOM      8  C   UNL d   1      54.430  33.495  55.174  0.00  0.00     0.002 A 
ATOM      9  C   UNL d   1      54.336  32.736  54.865  0.00  0.00     0.002 A 
ENDROOT
BRANCH   1  10
ATOM     10  S   UNL d   1      51.815  34.264  52.954  0.00  0.00    -0.064 SA
BRANCH  10  11
ATOM     11  C   UNL d   1      51.049  33.974  53.044  0.00  0.00     0.162 C 
BRANCH  11  12
ATOM     12  C   UNL d   1      50.418  34.308  52.603  0.00  0.00     0.197 C 
ATOM     13  O   UNL d   1      50.415  34.241  51.787  0.00  0.00    -0.647 OA
ATOM     14  O   UNL d   1      49.809  34.698  53.002  0.00  0.00    -0.647 OA
ENDBRANCH  11  12
ENDBRANCH  10  11
ENDBRANCH   1  10
TORSDOF 3
ENDMDL
