MODEL 1
REMARK VINA RESULT:      19.5      0.000      0.000
REMARK  3 active torsions:
REMARK  status: ('A' for Active; 'I' for Inactive)
REMARK    1  A    between atoms: C_8  and  C_6 
REMARK    2  A    between atoms: C_9  and  C_8 
REMARK       I    between atoms: N_10  and  C_9 
REMARK    3  A    between atoms: C_13  and  N_10 
ROOT
ATOM      1  N   UNL d   1      46.102 -17.604  42.605  0.00  0.00    -0.207 NA
ATOM      2  N   UNL d   1      46.104 -17.652  44.282  0.00  0.00    -0.240 NA
ATOM      3  C   UNL d   1      45.970 -17.032  43.176  0.00  0.00     0.297 A 
ATOM      4  C   UNL d   1      46.283 -18.406  42.707  0.00  0.00     0.086 A 
ATOM      5  C   UNL d   1      46.281 -18.434  44.134  0.00  0.00     0.083 A 
ATOM      6  C   UNL d   1      45.973 -17.057  43.736  0.00  0.00     0.144 A 
ATOM      7  C   UNL d   1      46.374 -18.828  43.416  0.00  0.00     0.035 A 
ATOM      8  O   UNL d   1      45.804 -16.288  42.872  0.00  0.00    -0.264 OA
ATOM      9  C   UNL d   1      46.554 -19.628  43.391  0.00  0.00     0.003 A 
ATOM     10  C   UNL d   1      46.374 -18.795  41.981  0.00  0.00     0.019 A 
ATOM     11  C   UNL d   1      46.372 -18.853  44.843  0.00  0.00     0.019 A 
ATOM     12  C   UNL d   1      46.555 -19.664  44.826  0.00  0.00     0.002 A 
ATOM     13  C   UNL d   1      46.556 -19.600  41.968  0.00  0.00     0.002 A 
ATOM     14  C   UNL d   1      46.646 -20.050  44.099  0.00  0.00     0.000 A 
ATOM     15  C   UNL d   1      46.645 -20.014  42.664  0.00  0.00     0.000 A 
ENDROOT
BRANCH   6  16
ATOM     16  C   UNL d   1      45.806 -16.326  44.084  0.00  0.00     0.086 C 
BRANCH  16  17
ATOM     17  C   UNL d   1      45.201 -16.273  44.650  0.00  0.00     0.281 C 
ATOM     18  N   UNL d   1      44.985 -15.540  44.950  0.00  0.00    -0.208 NA
ATOM     19  O   UNL d   1      44.813 -16.952  44.915  0.00  0.00    -0.265 OA
BRANCH  18  20
ATOM     20  C   UNL d   1      45.366 -14.857  44.691  0.00  0.00     0.085 A 
ATOM     21  C   UNL d   1      44.970 -14.315  44.212  0.00  0.00     0.019 A 
ATOM     22  C   UNL d   1      45.353 -13.639  43.958  0.00  0.00     0.002 A 
ATOM     23  C   UNL d   1      44.959 -13.104  43.483  0.00  0.00     0.000 C 
ATOM     24  C   UNL d   1      46.132 -13.494  44.177  0.00  0.00     0.000 A 
ATOM     25  C   UNL d   1      46.531 -14.038  44.659  0.00  0.00     0.002 A 
ATOM     26  C   UNL d   1      46.143 -14.720  44.914  0.00  0.00     0.019 A 
ENDBRANCH  18  20
ENDBRANCH  16  17
ENDBRANCH   6  16
TORSDOF 3
ENDMDL
