MODEL 1
REMARK VINA RESULT:      34.2      0.000      0.000
REMARK  5 active torsions:
REMARK  status: ('A' for Active; 'I' for Inactive)
REMARK    1  A    between atoms: C_3  and  C_1 
REMARK    2  A    between atoms: C_4  and  C_3 
REMARK    3  A    between atoms: C_7  and  C_4 
REMARK    4  A    between atoms: C_10  and  C_7 
REMARK    5  A    between atoms: O_19  and  C_9 
ROOT
ATOM      1  C   UNL d   1      12.967  12.510  -4.139  0.00  0.00     0.199 C 
ATOM      2  O   UNL d   1      12.782  11.848  -4.596  0.00  0.00    -0.286 OA
ENDROOT
BRANCH   1   3
ATOM      3  C   UNL d   1      13.104  13.236  -4.501  0.00  0.00     0.078 A 
ATOM      4  C   UNL d   1      13.491  13.267  -5.229  0.00  0.00     0.201 A 
ATOM      5  C   UNL d   1      13.629  13.997  -5.593  0.00  0.00     0.066 A 
ATOM      6  O   UNL d   1      13.742  12.573  -5.598  0.00  0.00    -0.286 OA
ATOM      7  C   UNL d   1      13.380  14.693  -5.227  0.00  0.00     0.097 A 
ATOM      8  C   UNL d   1      12.994  14.661  -4.499  0.00  0.00     0.025 A 
ATOM      9  C   UNL d   1      12.856  13.935  -4.137  0.00  0.00     0.008 A 
BRANCH   7  10
ATOM     10  O   UNL d   1      13.518  15.426  -5.590  0.00  0.00    -0.328 OA
ATOM     11  C   UNL d   1      14.273  15.757  -5.579  0.00  0.00     0.181 C 
ENDBRANCH   7  10
ENDBRANCH   1   3
BRANCH   1  12
ATOM     12  C   UNL d   1      13.013  12.445  -3.319  0.00  0.00     0.042 C 
BRANCH  12  13
ATOM     13  C   UNL d   1      13.367  11.779  -2.972  0.00  0.00     0.003 C 
BRANCH  13  14
ATOM     14  C   UNL d   1      13.724  11.838  -2.233  0.00  0.00     0.000 A 
ATOM     15  C   UNL d   1      14.548  11.853  -2.180  0.00  0.00     0.001 A 
ATOM     16  C   UNL d   1      14.906  11.912  -1.441  0.00  0.00     0.011 A 
ATOM     17  C   UNL d   1      14.414  11.956  -0.753  0.00  0.00     0.058 A 
ATOM     18  C   UNL d   1      13.617  11.941  -0.812  0.00  0.00     0.011 A 
ATOM     19 CL   UNL d   1      14.759  12.015  -0.014  0.00  0.00    -0.082 Cl
ATOM     20  C   UNL d   1      13.260  11.882  -1.551  0.00  0.00     0.001 A 
ENDBRANCH  13  14
ENDBRANCH  12  13
ENDBRANCH   1  12
TORSDOF 5
ENDMDL
MODEL 2
REMARK VINA RESULT:      36.7      3.745      5.516
REMARK  5 active torsions:
REMARK  status: ('A' for Active; 'I' for Inactive)
REMARK    1  A    between atoms: C_3  and  C_1 
REMARK    2  A    between atoms: C_4  and  C_3 
REMARK    3  A    between atoms: C_7  and  C_4 
REMARK    4  A    between atoms: C_10  and  C_7 
REMARK    5  A    between atoms: O_19  and  C_9 
ROOT
ATOM      1  C   UNL d   1      15.599  14.761  -0.129  0.00  0.00     0.199 C 
ATOM      2  O   UNL d   1      16.416  14.799  -0.014  0.00  0.00    -0.286 OA
ENDROOT
BRANCH   1   3
ATOM      3  C   UNL d   1      15.212  14.036  -0.101  0.00  0.00     0.078 A 
ATOM      4  C   UNL d   1      15.647  13.335  -0.099  0.00  0.00     0.201 A 
ATOM      5  C   UNL d   1      15.256  12.607  -0.070  0.00  0.00     0.066 A 
ATOM      6  O   UNL d   1      16.472  13.356  -0.125  0.00  0.00    -0.286 OA
ATOM      7  C   UNL d   1      14.433  12.582  -0.044  0.00  0.00     0.097 A 
ATOM      8  C   UNL d   1      13.998  13.283  -0.046  0.00  0.00     0.025 A 
ATOM      9  C   UNL d   1      14.386  14.009  -0.074  0.00  0.00     0.008 A 
BRANCH   7  10
ATOM     10  O   UNL d   1      14.040  11.852  -0.015  0.00  0.00    -0.328 OA
ATOM     11  C   UNL d   1      13.280  11.780  -0.325  0.00  0.00     0.181 C 
ENDBRANCH   7  10
ENDBRANCH   1   3
BRANCH   1  12
ATOM     12  C   UNL d   1      15.172  15.450  -0.272  0.00  0.00     0.042 C 
BRANCH  12  13
ATOM     13  C   UNL d   1      15.542  16.109  -0.616  0.00  0.00     0.003 C 
BRANCH  13  14
ATOM     14  C   UNL d   1      15.305  16.377  -1.357  0.00  0.00     0.000 A 
ATOM     15  C   UNL d   1      15.240  17.188  -1.494  0.00  0.00     0.001 A 
ATOM     16  C   UNL d   1      15.003  17.457  -2.235  0.00  0.00     0.011 A 
ATOM     17  C   UNL d   1      14.832  16.888  -2.839  0.00  0.00     0.058 A 
ATOM     18  C   UNL d   1      14.897  16.103  -2.699  0.00  0.00     0.011 A 
ATOM     19 CL   UNL d   1      14.596  17.144  -3.579  0.00  0.00    -0.082 Cl
ATOM     20  C   UNL d   1      15.134  15.835  -1.958  0.00  0.00     0.001 A 
ENDBRANCH  13  14
ENDBRANCH  12  13
ENDBRANCH   1  12
TORSDOF 5
ENDMDL
