MODEL 1
REMARK VINA RESULT:      13.3      0.000      0.000
REMARK  2 active torsions:
REMARK  status: ('A' for Active; 'I' for Inactive)
REMARK    1  A    between atoms: C_3  and  C_1 
REMARK       I    between atoms: N_6  and  C_3 
REMARK    2  A    between atoms: C_12  and  N_6 
ROOT
ATOM      1  C   UNL d   1      45.940 -14.597  44.690  0.00  0.00     0.008 A 
ATOM      2  S   UNL d   1      45.035 -13.642  44.743  0.00  0.00    -0.086 SA
ATOM      3  C   UNL d   1      45.142 -14.443  44.790  0.00  0.00     0.030 A 
ATOM      4  C   UNL d   1      45.748 -13.299  44.615  0.00  0.00     0.035 A 
ATOM      5  C   UNL d   1      45.687 -16.005  44.836  0.00  0.00     0.085 A 
ATOM      6  C   UNL d   1      46.209 -15.378  44.713  0.00  0.00     0.020 A 
ATOM      7  C   UNL d   1      46.322 -13.881  44.580  0.00  0.00     0.007 A 
ATOM      8  C   UNL d   1      44.600 -15.076  44.917  0.00  0.00     0.008 A 
ATOM      9  C   UNL d   1      44.882 -15.854  44.938  0.00  0.00     0.020 A 
ENDROOT
BRANCH   5  10
ATOM     10  N   UNL d   1      45.969 -16.783  44.857  0.00  0.00    -0.208 NA
ATOM     11  C   UNL d   1      45.859 -17.280  44.208  0.00  0.00     0.285 C 
ATOM     12  O   UNL d   1      45.469 -17.000  43.542  0.00  0.00    -0.265 OA
BRANCH  11  13
ATOM     13  C   UNL d   1      46.139 -18.052  44.229  0.00  0.00     0.088 A 
ATOM     14  S   UNL d   1      46.192 -18.578  43.572  0.00  0.00    -0.071 SA
ATOM     15  C   UNL d   1      46.503 -19.296  43.839  0.00  0.00     0.087 A 
ATOM     16 CL   UNL d   1      46.639 -19.925  43.409  0.00  0.00    -0.075 Cl
ATOM     17  C   UNL d   1      46.647 -19.208  44.689  0.00  0.00     0.019 A 
ATOM     18  C   UNL d   1      46.425 -18.457  44.915  0.00  0.00     0.013 A 
ENDBRANCH  11  13
ENDBRANCH   5  10
TORSDOF 2
ENDMDL
MODEL 2
REMARK VINA RESULT:      13.4      1.759      4.326
REMARK  2 active torsions:
REMARK  status: ('A' for Active; 'I' for Inactive)
REMARK    1  A    between atoms: C_3  and  C_1 
REMARK       I    between atoms: N_6  and  C_3 
REMARK    2  A    between atoms: C_12  and  N_6 
ROOT
ATOM      1  C   UNL d   1      46.483 -18.802  42.979  0.00  0.00     0.008 A 
ATOM      2  S   UNL d   1      46.566 -20.110  43.100  0.00  0.00    -0.086 SA
ATOM      3  C   UNL d   1      46.471 -19.421  43.514  0.00  0.00     0.030 A 
ATOM      4  C   UNL d   1      46.638 -19.930  42.323  0.00  0.00     0.035 A 
ATOM      5  C   UNL d   1      46.297 -17.867  44.056  0.00  0.00     0.085 A 
ATOM      6  C   UNL d   1      46.397 -18.026  43.252  0.00  0.00     0.020 A 
ATOM      7  C   UNL d   1      46.588 -19.118  42.231  0.00  0.00     0.007 A 
ATOM      8  C   UNL d   1      46.369 -19.269  44.338  0.00  0.00     0.008 A 
ATOM      9  C   UNL d   1      46.284 -18.489  44.599  0.00  0.00     0.020 A 
ENDROOT
BRANCH   5  10
ATOM     10  N   UNL d   1      46.211 -17.086  44.317  0.00  0.00    -0.208 NA
ATOM     11  C   UNL d   1      45.637 -16.599  43.980  0.00  0.00     0.285 C 
ATOM     12  O   UNL d   1      45.152 -16.891  43.386  0.00  0.00    -0.265 OA
BRANCH  11  13
ATOM     13  C   UNL d   1      45.552 -15.824  44.239  0.00  0.00     0.088 A 
ATOM     14  S   UNL d   1      45.923 -15.145  43.903  0.00  0.00    -0.071 SA
ATOM     15  C   UNL d   1      45.686 -14.481  44.333  0.00  0.00     0.087 A 
ATOM     16 CL   UNL d   1      45.902 -13.748  44.202  0.00  0.00    -0.075 Cl
ATOM     17  C   UNL d   1      45.151 -14.759  44.954  0.00  0.00     0.019 A 
ATOM     18  C   UNL d   1      45.076 -15.569  44.891  0.00  0.00     0.013 A 
ENDBRANCH  11  13
ENDBRANCH   5  10
TORSDOF 2
ENDMDL
