MODEL 1
REMARK VINA RESULT:      23.4      0.000      0.000
REMARK  3 active torsions:
REMARK  status: ('A' for Active; 'I' for Inactive)
REMARK       I    between atoms: N_2  and  C_1 
REMARK    1  A    between atoms: C_4  and  C_1 
REMARK    2  A    between atoms: C_3  and  N_2 
REMARK    3  A    between atoms: S_11  and  C_7 
ROOT
ATOM      1  C   UNL d   1     -55.144-101.845 -37.096  0.00  0.00     0.064 A 
ATOM      2  C   UNL d   1     -55.793-102.339 -37.204  0.00  0.00     0.030 A 
ATOM      3  C   UNL d   1     -54.720-101.865 -36.382  0.00  0.00     0.005 A 
ATOM      4  C   UNL d   1     -56.025-102.856 -36.605  0.00  0.00     0.006 A 
ATOM      5  C   UNL d   1     -54.952-102.382 -35.782  0.00  0.00     0.000 A 
ATOM      6  C   UNL d   1     -55.607-102.879 -35.896  0.00  0.00     0.001 A 
ENDROOT
BRANCH   1   7
ATOM      7  C   UNL d   1     -54.913-101.328 -37.696  0.00  0.00     0.281 C 
ATOM      8  N   UNL d   1     -54.711-100.544 -37.509  0.00  0.00    -0.183 NA
ATOM      9  O   UNL d   1     -54.882-101.589 -38.475  0.00  0.00    -0.265 OA
BRANCH   8  10
ATOM     10  C   UNL d   1     -54.741-100.284 -36.741  0.00  0.00     0.197 A 
ATOM     11  N   UNL d   1     -54.803 -99.494 -36.496  0.00  0.00    -0.219 NA
ATOM     12  C   UNL d   1     -54.815 -99.479 -35.666  0.00  0.00     0.108 A 
ATOM     13  C   UNL d   1     -54.760-100.261 -35.390  0.00  0.00     0.059 A 
ATOM     14  S   UNL d   1     -54.715-100.753 -36.055  0.00  0.00    -0.046 SA
ENDBRANCH   8  10
ENDBRANCH   1   7
BRANCH   2  15
ATOM     15  S   UNL d   1     -56.211-102.316 -37.914  0.00  0.00    -0.113 SA
ATOM     16  C   UNL d   1     -55.856-102.584 -38.607  0.00  0.00     0.074 C 
ENDBRANCH   2  15
TORSDOF 3
ENDMDL
MODEL 2
REMARK VINA RESULT:      24.3      1.334      2.776
REMARK  3 active torsions:
REMARK  status: ('A' for Active; 'I' for Inactive)
REMARK       I    between atoms: N_2  and  C_1 
REMARK    1  A    between atoms: C_4  and  C_1 
REMARK    2  A    between atoms: C_3  and  N_2 
REMARK    3  A    between atoms: S_11  and  C_7 
ROOT
ATOM      1  C   UNL d   1     -54.777-100.783 -37.372  0.00  0.00     0.064 A 
ATOM      2  C   UNL d   1     -54.859-100.380 -36.659  0.00  0.00     0.030 A 
ATOM      3  C   UNL d   1     -54.715-101.612 -37.377  0.00  0.00     0.005 A 
ATOM      4  C   UNL d   1     -54.880-100.797 -35.948  0.00  0.00     0.006 A 
ATOM      5  C   UNL d   1     -54.736-102.029 -36.665  0.00  0.00     0.000 A 
ATOM      6  C   UNL d   1     -54.820-101.617 -35.949  0.00  0.00     0.001 A 
ENDROOT
BRANCH   1   7
ATOM      7  C   UNL d   1     -54.755-100.366 -38.084  0.00  0.00     0.281 C 
ATOM      8  N   UNL d   1     -54.767-100.780 -38.804  0.00  0.00    -0.183 NA
ATOM      9  O   UNL d   1     -54.722 -99.544 -38.079  0.00  0.00    -0.265 OA
BRANCH   8  10
ATOM     10  C   UNL d   1     -54.800-101.591 -38.811  0.00  0.00     0.197 A 
ATOM     11  N   UNL d   1     -54.711-102.088 -38.153  0.00  0.00    -0.219 NA
ATOM     12  C   UNL d   1     -54.784-102.875 -38.410  0.00  0.00     0.108 A 
ATOM     13  C   UNL d   1     -54.918-102.870 -39.230  0.00  0.00     0.059 A 
ATOM     14  S   UNL d   1     -54.928-102.078 -39.472  0.00  0.00    -0.046 SA
ENDBRANCH   8  10
ENDBRANCH   1   7
BRANCH   2  15
ATOM     15  S   UNL d   1     -54.920 -99.558 -36.659  0.00  0.00    -0.113 SA
ATOM     16  C   UNL d   1     -55.147 -99.165 -35.972  0.00  0.00     0.074 C 
ENDBRANCH   2  15
TORSDOF 3
ENDMDL
