MODEL 1
REMARK VINA RESULT:      90.0      0.000      0.000
REMARK  5 active torsions:
REMARK  status: ('A' for Active; 'I' for Inactive)
REMARK    1  A    between atoms: N_9  and  C_3 
REMARK    2  A    between atoms: C_13  and  C_5 
REMARK    3  A    between atoms: C_12  and  N_10 
REMARK    4  A    between atoms: C_20  and  C_11 
REMARK    5  A    between atoms: C_25  and  C_20 
ROOT
ATOM      1  N   UNL d   1     -50.599  26.430  33.944  0.00  0.00    -0.196 N 
ATOM      2  C   UNL d   1     -50.954  25.705  33.773  0.00  0.00     0.167 A 
ATOM      3  C   UNL d   1     -49.796  26.484  33.899  0.00  0.00     0.152 A 
ATOM      4  N   UNL d   1     -51.859  26.989  34.193  0.00  0.00    -0.163 NA
ATOM      5  C   UNL d   1     -51.748  25.631  33.812  0.00  0.00     0.055 A 
ATOM      6  C   UNL d   1     -52.214  26.264  34.021  0.00  0.00     0.104 A 
ATOM      7  N   UNL d   1     -50.488  25.072  33.564  0.00  0.00    -0.227 NA
ATOM      8  C   UNL d   1     -49.331  25.868  33.695  0.00  0.00     0.057 A 
ATOM      9  C   UNL d   1     -49.686  25.143  33.523  0.00  0.00     0.086 A 
ATOM     10  C   UNL d   1     -53.014  26.196  34.063  0.00  0.00     0.023 C 
ENDROOT
BRANCH   3  11
ATOM     11  N   UNL d   1     -49.430  27.231  34.076  0.00  0.00    -0.286 N 
ATOM     12  C   UNL d   1     -49.063  27.358  34.822  0.00  0.00     0.101 A 
ATOM     13  C   UNL d   1     -48.697  28.106  34.999  0.00  0.00     0.101 A 
ATOM     14  N   UNL d   1     -48.698  28.725  34.430  0.00  0.00    -0.286 N 
ATOM     15  C   UNL d   1     -49.069  28.604  33.668  0.00  0.00     0.101 A 
ATOM     16  C   UNL d   1     -49.435  27.856  33.491  0.00  0.00     0.101 A 
BRANCH  14  17
ATOM     17  C   UNL d   1     -48.333  29.469  34.606  0.00  0.00     0.148 A 
ATOM     18  N   UNL d   1     -47.993  29.595  35.377  0.00  0.00    -0.227 NA
ATOM     19  C   UNL d   1     -47.629  30.338  35.553  0.00  0.00     0.101 A 
ATOM     20  C   UNL d   1     -47.607  30.952  34.957  0.00  0.00     0.021 A 
ATOM     21  C   UNL d   1     -47.945  30.817  34.201  0.00  0.00     0.005 A 
ATOM     22  C   UNL d   1     -48.311  30.071  34.024  0.00  0.00     0.037 A 
ENDBRANCH  14  17
ENDBRANCH   3  11
BRANCH   9  23
ATOM     23  C   UNL d   1     -49.206  24.480  33.306  0.00  0.00     0.019 C 
BRANCH  23  24
ATOM     24  C   UNL d   1     -48.789  24.031  33.900  0.00  0.00     0.002 C 
ATOM     25  C   UNL d   1     -48.892  23.199  33.952  0.00  0.00     0.000 C 
ENDBRANCH  23  24
ENDBRANCH   9  23
BRANCH   5  26
ATOM     26  C   UNL d   1     -52.098  24.918  33.643  0.00  0.00     0.004 A 
ATOM     27  C   UNL d   1     -52.907  24.877  33.568  0.00  0.00     0.000 A 
ATOM     28  C   UNL d   1     -53.262  24.152  33.396  0.00  0.00     0.000 A 
ATOM     29  C   UNL d   1     -52.797  23.491  33.306  0.00  0.00     0.000 A 
ATOM     30  C   UNL d   1     -51.985  23.544  33.384  0.00  0.00     0.000 A 
ATOM     31  C   UNL d   1     -51.636  24.257  33.553  0.00  0.00     0.000 A 
ENDBRANCH   5  26
TORSDOF 5
ENDMDL
