MODEL 1
REMARK VINA RESULT:      -2.9      0.000      0.000
REMARK  2 active torsions:
REMARK  status: ('A' for Active; 'I' for Inactive)
REMARK    1  A    between atoms: C_2  and  CA_1 
REMARK    2  A    between atoms: C_3  and  CA_1 
ROOT
ATOM      1  C   UNL d   1      32.652  22.652 -21.510  0.00  0.00     0.025 A 
ATOM      2  C   UNL d   1      32.240  23.350 -21.692  0.00  0.00     0.002 A 
ATOM      3  C   UNL d   1      33.152  22.313 -22.072  0.00  0.00     0.002 A 
ATOM      4  C   UNL d   1      31.740  23.689 -21.130  0.00  0.00     0.000 C 
ATOM      5  C   UNL d   1      32.331  23.702 -22.430  0.00  0.00     0.000 A 
ATOM      6  C   UNL d   1      33.240  22.672 -22.815  0.00  0.00     0.000 A 
ATOM      7  C   UNL d   1      32.831  23.364 -22.992  0.00  0.00     0.000 A 
ENDROOT
BRANCH   1   8
ATOM      8  CA  UNL d   1      32.559  22.300 -20.768  0.00  0.00     0.167 C 
ATOM      9  N   UNL d   1      32.577  22.760 -20.087  0.00  0.00    -0.142 N 
BRANCH   8  10
ATOM     10  C   UNL d   1      32.447  21.485 -20.714  0.00  0.00     0.231 C 
ATOM     11  O   UNL d   1      31.731  21.142 -20.931  0.00  0.00    -0.643 OA
ATOM     12  OXT UNL d   1      33.061  21.001 -20.438  0.00  0.00    -0.643 OA
ENDBRANCH   8  10
ENDBRANCH   1   8
TORSDOF 2
ENDMDL
MODEL 2
REMARK VINA RESULT:      -2.8      1.206      2.025
REMARK  2 active torsions:
REMARK  status: ('A' for Active; 'I' for Inactive)
REMARK    1  A    between atoms: C_2  and  CA_1 
REMARK    2  A    between atoms: C_3  and  CA_1 
ROOT
ATOM      1  C   UNL d   1      32.827  22.469 -20.443  0.00  0.00     0.025 A 
ATOM      2  C   UNL d   1      32.487  23.227 -20.443  0.00  0.00     0.002 A 
ATOM      3  C   UNL d   1      33.204  22.189 -19.765  0.00  0.00     0.002 A 
ATOM      4  C   UNL d   1      32.110  23.507 -21.121  0.00  0.00     0.000 C 
ATOM      5  C   UNL d   1      32.526  23.697 -19.768  0.00  0.00     0.000 A 
ATOM      6  C   UNL d   1      33.241  22.666 -19.087  0.00  0.00     0.000 A 
ATOM      7  C   UNL d   1      32.903  23.416 -19.090  0.00  0.00     0.000 A 
ENDROOT
BRANCH   1   8
ATOM      8  CA  UNL d   1      32.786  22.000 -21.122  0.00  0.00     0.167 C 
ATOM      9  N   UNL d   1      33.012  22.305 -21.851  0.00  0.00    -0.142 N 
BRANCH   8  10
ATOM     10  C   UNL d   1      32.518  21.221 -21.065  0.00  0.00     0.231 C 
ATOM     11  O   UNL d   1      31.718  21.059 -20.960  0.00  0.00    -0.643 OA
ATOM     12  OXT UNL d   1      33.057  20.594 -21.113  0.00  0.00    -0.643 OA
ENDBRANCH   8  10
ENDBRANCH   1   8
TORSDOF 2
ENDMDL
MODEL 3
REMARK VINA RESULT:      -2.6      6.642      7.308
REMARK  2 active torsions:
REMARK  status: ('A' for Active; 'I' for Inactive)
REMARK    1  A    between atoms: C_2  and  CA_1 
REMARK    2  A    between atoms: C_3  and  CA_1 
ROOT
ATOM      1  C   UNL d   1      29.962  16.615 -24.166  0.00  0.00     0.025 A 
ATOM      2  C   UNL d   1      30.153  16.004 -23.636  0.00  0.00     0.002 A 
ATOM      3  C   UNL d   1      30.542  17.157 -24.392  0.00  0.00     0.002 A 
ATOM      4  C   UNL d   1      29.574  15.462 -23.410  0.00  0.00     0.000 C 
ATOM      5  C   UNL d   1      30.918  15.939 -23.339  0.00  0.00     0.000 A 
ATOM      6  C   UNL d   1      31.312  17.087 -24.090  0.00  0.00     0.000 A 
ATOM      7  C   UNL d   1      31.497  16.481 -23.566  0.00  0.00     0.000 A 
ENDROOT
BRANCH   1   8
ATOM      8  CA  UNL d   1      29.194  16.678 -24.462  0.00  0.00     0.167 C 
ATOM      9  N   UNL d   1      28.819  16.020 -24.784  0.00  0.00    -0.142 N 
BRANCH   8  10
ATOM     10  C   UNL d   1      28.803  17.404 -24.434  0.00  0.00     0.231 C 
ATOM     11  O   UNL d   1      28.361  17.619 -23.774  0.00  0.00    -0.643 OA
ATOM     12  OXT UNL d   1      28.854  17.925 -25.076  0.00  0.00    -0.643 OA
ENDBRANCH   8  10
ENDBRANCH   1   8
TORSDOF 2
ENDMDL
MODEL 4
REMARK VINA RESULT:      -2.6      6.829      7.383
REMARK  2 active torsions:
REMARK  status: ('A' for Active; 'I' for Inactive)
REMARK    1  A    between atoms: C_2  and  CA_1 
REMARK    2  A    between atoms: C_3  and  CA_1 
ROOT
ATOM      1  C   UNL d   1      29.901  16.261 -23.957  0.00  0.00     0.025 A 
ATOM      2  C   UNL d   1      29.383  16.823 -24.281  0.00  0.00     0.002 A 
ATOM      3  C   UNL d   1      29.633  15.742 -23.374  0.00  0.00     0.002 A 
ATOM      4  C   UNL d   1      29.651  17.341 -24.864  0.00  0.00     0.000 C 
ATOM      5  C   UNL d   1      28.603  16.863 -24.020  0.00  0.00     0.000 A 
ATOM      6  C   UNL d   1      28.845  15.787 -23.115  0.00  0.00     0.000 A 
ATOM      7  C   UNL d   1      28.334  16.345 -23.437  0.00  0.00     0.000 A 
ENDROOT
BRANCH   1   8
ATOM      8  CA  UNL d   1      30.683  16.223 -24.221  0.00  0.00     0.167 C 
ATOM      9  N   UNL d   1      30.849  16.220 -25.026  0.00  0.00    -0.142 N 
BRANCH   8  10
ATOM     10  C   UNL d   1      31.298  16.187 -23.672  0.00  0.00     0.231 C 
ATOM     11  O   UNL d   1      31.622  16.875 -23.358  0.00  0.00    -0.643 OA
ATOM     12  OXT UNL d   1      31.596  15.453 -23.432  0.00  0.00    -0.643 OA
ENDBRANCH   8  10
ENDBRANCH   1   8
TORSDOF 2
ENDMDL
MODEL 5
REMARK VINA RESULT:      -2.5      6.556      7.299
REMARK  2 active torsions:
REMARK  status: ('A' for Active; 'I' for Inactive)
REMARK    1  A    between atoms: C_2  and  CA_1 
REMARK    2  A    between atoms: C_3  and  CA_1 
ROOT
ATOM      1  C   UNL d   1      29.930  16.558 -24.102  0.00  0.00     0.025 A 
ATOM      2  C   UNL d   1      29.694  15.997 -23.537  0.00  0.00     0.002 A 
ATOM      3  C   UNL d   1      29.382  17.102 -24.393  0.00  0.00     0.002 A 
ATOM      4  C   UNL d   1      30.242  15.453 -23.246  0.00  0.00     0.000 C 
ATOM      5  C   UNL d   1      28.917  15.984 -23.267  0.00  0.00     0.000 A 
ATOM      6  C   UNL d   1      28.598  17.085 -24.118  0.00  0.00     0.000 A 
ATOM      7  C   UNL d   1      28.369  16.528 -23.557  0.00  0.00     0.000 A 
ENDROOT
BRANCH   1   8
ATOM      8  CA  UNL d   1      30.711  16.569 -24.371  0.00  0.00     0.167 C 
ATOM      9  N   UNL d   1      31.077  15.872 -24.607  0.00  0.00    -0.142 N 
BRANCH   8  10
ATOM     10  C   UNL d   1      31.122  17.283 -24.402  0.00  0.00     0.231 C 
ATOM     11  O   UNL d   1      31.543  17.555 -23.749  0.00  0.00    -0.643 OA
ATOM     12  OXT UNL d   1      31.115  17.735 -25.096  0.00  0.00    -0.643 OA
ENDBRANCH   8  10
ENDBRANCH   1   8
TORSDOF 2
ENDMDL
