MODEL 1
REMARK VINA RESULT:      -2.1      0.000      0.000
REMARK  4 active torsions:
REMARK  status: ('A' for Active; 'I' for Inactive)
REMARK    1  A    between atoms: S_11  and  C_2 
REMARK    2  A    between atoms: C_7  and  C_3 
REMARK    3  A    between atoms: C_17  and  S_11 
REMARK    4  A    between atoms: C_13  and  C_17 
ROOT
ATOM      1  C   UNL d   1      59.357  -1.039  29.226  0.00  0.00     0.092 A 
ATOM      2  C   UNL d   1      60.025  -1.288  28.837  0.00  0.00     0.124 A 
ATOM      3  C   UNL d   1      59.274  -0.235  29.433  0.00  0.00     0.017 A 
ATOM      4  N   UNL d   1      60.623  -0.739  28.648  0.00  0.00    -0.201 NA
ATOM      5  C   UNL d   1      60.537   0.055  28.855  0.00  0.00     0.280 A 
ATOM      6  C   UNL d   1      58.761  -1.584  29.415  0.00  0.00     0.103 C 
ATOM      7  N   UNL d   1      58.167  -2.135  29.602  0.00  0.00    -0.191 NA
ATOM      8  C   UNL d   1      59.869   0.305  29.243  0.00  0.00     0.063 A 
ATOM      9  O   UNL d   1      61.133   0.600  28.665  0.00  0.00    -0.265 OA
ENDROOT
BRANCH   2  10
ATOM     10  S   UNL d   1      60.110  -2.087  28.631  0.00  0.00    -0.067 SA
BRANCH  10  11
ATOM     11  C   UNL d   1      60.778  -2.519  28.882  0.00  0.00     0.037 C 
BRANCH  11  12
ATOM     12  C   UNL d   1      61.091  -3.278  28.467  0.00  0.00     0.007 C 
ATOM     13  C   UNL d   1      61.102  -4.211  28.849  0.00  0.00     0.001 C 
ENDBRANCH  11  12
ENDBRANCH  10  11
ENDBRANCH   2  10
BRANCH   3  14
ATOM     14  C   UNL d   1      58.598   0.017  29.826  0.00  0.00     0.011 A 
ATOM     15  C   UNL d   1      58.020   0.418  29.420  0.00  0.00     0.058 A 
ATOM     16 CL   UNL d   1      57.974   0.682  28.455  0.00  0.00    -0.082 Cl
ATOM     17  C   UNL d   1      57.337   0.669  29.834  0.00  0.00     0.011 A 
ATOM     18  C   UNL d   1      57.256   0.510  30.639  0.00  0.00     0.001 A 
ATOM     19  C   UNL d   1      57.842   0.110  31.029  0.00  0.00     0.000 A 
ATOM     20  C   UNL d   1      58.523  -0.142  30.621  0.00  0.00     0.001 A 
ENDBRANCH   3  14
TORSDOF 4
ENDMDL
MODEL 2
REMARK VINA RESULT:      -2.0      3.164      4.296
REMARK  4 active torsions:
REMARK  status: ('A' for Active; 'I' for Inactive)
REMARK    1  A    between atoms: S_11  and  C_2 
REMARK    2  A    between atoms: C_7  and  C_3 
REMARK    3  A    between atoms: C_17  and  S_11 
REMARK    4  A    between atoms: C_13  and  C_17 
ROOT
ATOM      1  C   UNL d   1      57.495   0.264  32.399  0.00  0.00     0.092 A 
ATOM      2  C   UNL d   1      58.087   0.365  31.853  0.00  0.00     0.124 A 
ATOM      3  C   UNL d   1      56.759  -0.047  32.160  0.00  0.00     0.017 A 
ATOM      4  N   UNL d   1      57.955   0.156  31.056  0.00  0.00    -0.201 NA
ATOM      5  C   UNL d   1      57.225  -0.152  30.824  0.00  0.00     0.280 A 
ATOM      6  C   UNL d   1      57.624   0.472  33.192  0.00  0.00     0.103 C 
ATOM      7  N   UNL d   1      57.760   0.681  33.985  0.00  0.00    -0.191 NA
ATOM      8  C   UNL d   1      56.633  -0.252  31.371  0.00  0.00     0.063 A 
ATOM      9  O   UNL d   1      57.096  -0.359  30.031  0.00  0.00    -0.265 OA
ENDROOT
BRANCH   2  10
ATOM     10  S   UNL d   1      58.820   0.674  32.089  0.00  0.00    -0.067 SA
BRANCH  10  11
ATOM     11  C   UNL d   1      59.467   0.670  31.563  0.00  0.00     0.037 C 
BRANCH  11  12
ATOM     12  C   UNL d   1      60.331   0.465  31.806  0.00  0.00     0.007 C 
ATOM     13  C   UNL d   1      61.133   0.427  31.196  0.00  0.00     0.001 C 
ENDBRANCH  11  12
ENDBRANCH  10  11
ENDBRANCH   2  10
BRANCH   3  14
ATOM     14  C   UNL d   1      56.160  -0.148  32.713  0.00  0.00     0.011 A 
ATOM     15  C   UNL d   1      55.859  -0.889  32.852  0.00  0.00     0.058 A 
ATOM     16 CL   UNL d   1      56.099  -1.771  32.443  0.00  0.00    -0.082 Cl
ATOM     17  C   UNL d   1      55.248  -0.977  33.418  0.00  0.00     0.011 A 
ATOM     18  C   UNL d   1      54.960  -0.321  33.826  0.00  0.00     0.001 A 
ATOM     19  C   UNL d   1      55.272   0.411  33.676  0.00  0.00     0.000 A 
ATOM     20  C   UNL d   1      55.879   0.503  33.113  0.00  0.00     0.001 A 
ENDBRANCH   3  14
TORSDOF 4
ENDMDL
MODEL 3
REMARK VINA RESULT:      -1.7      1.392      1.752
REMARK  4 active torsions:
REMARK  status: ('A' for Active; 'I' for Inactive)
REMARK    1  A    between atoms: S_11  and  C_2 
REMARK    2  A    between atoms: C_7  and  C_3 
REMARK    3  A    between atoms: C_17  and  S_11 
REMARK    4  A    between atoms: C_13  and  C_17 
ROOT
ATOM      1  C   UNL d   1      58.241  -0.935  30.046  0.00  0.00     0.092 A 
ATOM      2  C   UNL d   1      58.616  -1.201  29.377  0.00  0.00     0.124 A 
ATOM      3  C   UNL d   1      58.253  -0.122  30.232  0.00  0.00     0.017 A 
ATOM      4  N   UNL d   1      59.012  -0.660  28.881  0.00  0.00    -0.201 NA
ATOM      5  C   UNL d   1      59.021   0.144  29.070  0.00  0.00     0.280 A 
ATOM      6  C   UNL d   1      57.846  -1.472  30.541  0.00  0.00     0.103 C 
ATOM      7  N   UNL d   1      57.454  -2.015  31.032  0.00  0.00    -0.191 NA
ATOM      8  C   UNL d   1      58.646   0.410  29.738  0.00  0.00     0.063 A 
ATOM      9  O   UNL d   1      59.415   0.680  28.575  0.00  0.00    -0.265 OA
ENDROOT
BRANCH   2  10
ATOM     10  S   UNL d   1      58.605  -2.009  29.190  0.00  0.00    -0.067 SA
BRANCH  10  11
ATOM     11  C   UNL d   1      59.200  -2.338  28.706  0.00  0.00     0.037 C 
BRANCH  11  12
ATOM     12  C   UNL d   1      59.252  -3.228  28.482  0.00  0.00     0.007 C 
ATOM     13  C   UNL d   1      60.078  -3.807  28.506  0.00  0.00     0.001 C 
ENDBRANCH  11  12
ENDBRANCH  10  11
ENDBRANCH   2  10
BRANCH   3  14
ATOM     14  C   UNL d   1      57.873   0.148  30.910  0.00  0.00     0.011 A 
ATOM     15  C   UNL d   1      58.310   0.408  31.542  0.00  0.00     0.058 A 
ATOM     16 CL   UNL d   1      59.303   0.466  31.661  0.00  0.00    -0.082 Cl
ATOM     17  C   UNL d   1      57.909   0.679  32.225  0.00  0.00     0.011 A 
ATOM     18  C   UNL d   1      57.085   0.681  32.251  0.00  0.00     0.001 A 
ATOM     19  C   UNL d   1      56.664   0.418  31.611  0.00  0.00     0.000 A 
ATOM     20  C   UNL d   1      57.059   0.147  30.930  0.00  0.00     0.001 A 
ENDBRANCH   3  14
TORSDOF 4
ENDMDL
MODEL 4
REMARK VINA RESULT:      -1.3      1.569      3.541
REMARK  4 active torsions:
REMARK  status: ('A' for Active; 'I' for Inactive)
REMARK    1  A    between atoms: S_11  and  C_2 
REMARK    2  A    between atoms: C_7  and  C_3 
REMARK    3  A    between atoms: C_17  and  S_11 
REMARK    4  A    between atoms: C_13  and  C_17 
ROOT
ATOM      1  C   UNL d   1      58.731  -1.057  29.626  0.00  0.00     0.092 A 
ATOM      2  C   UNL d   1      58.611  -0.273  29.798  0.00  0.00     0.124 A 
ATOM      3  C   UNL d   1      59.368  -1.282  29.137  0.00  0.00     0.017 A 
ATOM      4  N   UNL d   1      59.126   0.303  29.484  0.00  0.00    -0.201 NA
ATOM      5  C   UNL d   1      59.756   0.076  29.001  0.00  0.00     0.280 A 
ATOM      6  C   UNL d   1      58.219  -1.632  29.937  0.00  0.00     0.103 C 
ATOM      7  N   UNL d   1      57.703  -2.202  30.253  0.00  0.00    -0.191 NA
ATOM      8  C   UNL d   1      59.875  -0.708  28.829  0.00  0.00     0.063 A 
ATOM      9  O   UNL d   1      60.267   0.651  28.690  0.00  0.00    -0.265 OA
ENDROOT
BRANCH   2  10
ATOM     10  S   UNL d   1      57.978  -0.048  30.285  0.00  0.00    -0.067 SA
BRANCH  10  11
ATOM     11  C   UNL d   1      58.122   0.335  31.012  0.00  0.00     0.037 C 
BRANCH  11  12
ATOM     12  C   UNL d   1      57.463   0.682  31.553  0.00  0.00     0.007 C 
ATOM     13  C   UNL d   1      57.239   0.386  32.491  0.00  0.00     0.001 C 
ENDBRANCH  11  12
ENDBRANCH  10  11
ENDBRANCH   2  10
BRANCH   3  14
ATOM     14  C   UNL d   1      59.489  -2.076  28.963  0.00  0.00     0.011 A 
ATOM     15  C   UNL d   1      60.208  -2.419  29.119  0.00  0.00     0.058 A 
ATOM     16 CL   UNL d   1      61.039  -2.024  29.513  0.00  0.00    -0.082 Cl
ATOM     17  C   UNL d   1      60.316  -3.228  28.936  0.00  0.00     0.011 A 
ATOM     18  C   UNL d   1      59.702  -3.667  28.604  0.00  0.00     0.001 A 
ATOM     19  C   UNL d   1      58.991  -3.309  28.455  0.00  0.00     0.000 A 
ATOM     20  C   UNL d   1      58.879  -2.504  28.635  0.00  0.00     0.001 A 
ENDBRANCH   3  14
TORSDOF 4
ENDMDL
MODEL 5
REMARK VINA RESULT:      -0.9      2.058      2.864
REMARK  4 active torsions:
REMARK  status: ('A' for Active; 'I' for Inactive)
REMARK    1  A    between atoms: S_11  and  C_2 
REMARK    2  A    between atoms: C_7  and  C_3 
REMARK    3  A    between atoms: C_17  and  S_11 
REMARK    4  A    between atoms: C_13  and  C_17 
ROOT
ATOM      1  C   UNL d   1      58.558   0.389  30.843  0.00  0.00     0.092 A 
ATOM      2  C   UNL d   1      58.987   0.569  30.178  0.00  0.00     0.124 A 
ATOM      3  C   UNL d   1      57.733   0.276  30.786  0.00  0.00     0.017 A 
ATOM      4  N   UNL d   1      58.600   0.640  29.442  0.00  0.00    -0.201 NA
ATOM      5  C   UNL d   1      57.784   0.527  29.391  0.00  0.00     0.280 A 
ATOM      6  C   UNL d   1      58.940   0.318  31.576  0.00  0.00     0.103 C 
ATOM      7  N   UNL d   1      59.330   0.249  32.307  0.00  0.00    -0.191 NA
ATOM      8  C   UNL d   1      57.355   0.347  30.056  0.00  0.00     0.063 A 
ATOM      9  O   UNL d   1      57.402   0.598  28.658  0.00  0.00    -0.265 OA
ENDROOT
BRANCH   2  10
ATOM     10  S   UNL d   1      59.807   0.682  30.233  0.00  0.00    -0.067 SA
BRANCH  10  11
ATOM     11  C   UNL d   1      60.297   0.534  29.574  0.00  0.00     0.037 C 
BRANCH  11  12
ATOM     12  C   UNL d   1      61.019  -0.036  29.584  0.00  0.00     0.007 C 
ATOM     13  C   UNL d   1      61.133  -0.872  29.031  0.00  0.00     0.001 C 
ENDBRANCH  11  12
ENDBRANCH  10  11
ENDBRANCH   2  10
BRANCH   3  14
ATOM     14  C   UNL d   1      57.299   0.093  31.459  0.00  0.00     0.011 A 
ATOM     15  C   UNL d   1      57.029  -0.664  31.574  0.00  0.00     0.058 A 
ATOM     16 CL   UNL d   1      57.136  -1.480  31.004  0.00  0.00    -0.082 Cl
ATOM     17  C   UNL d   1      56.588  -0.835  32.264  0.00  0.00     0.011 A 
ATOM     18  C   UNL d   1      56.431  -0.243  32.817  0.00  0.00     0.001 A 
ATOM     19  C   UNL d   1      56.708   0.507  32.687  0.00  0.00     0.000 A 
ATOM     20  C   UNL d   1      57.147   0.682  32.001  0.00  0.00     0.001 A 
ENDBRANCH   3  14
TORSDOF 4
ENDMDL
MODEL 6
REMARK VINA RESULT:       0.7      3.940      5.237
REMARK  4 active torsions:
REMARK  status: ('A' for Active; 'I' for Inactive)
REMARK    1  A    between atoms: S_11  and  C_2 
REMARK    2  A    between atoms: C_7  and  C_3 
REMARK    3  A    between atoms: C_17  and  S_11 
REMARK    4  A    between atoms: C_13  and  C_17 
ROOT
ATOM      1  C   UNL d   1      56.657  -0.502  32.897  0.00  0.00     0.092 A 
ATOM      2  C   UNL d   1      56.749  -0.942  32.222  0.00  0.00     0.124 A 
ATOM      3  C   UNL d   1      56.009  -0.647  33.402  0.00  0.00     0.017 A 
ATOM      4  N   UNL d   1      56.195  -1.537  32.036  0.00  0.00    -0.201 NA
ATOM      5  C   UNL d   1      55.555  -1.678  32.538  0.00  0.00     0.280 A 
ATOM      6  C   UNL d   1      57.208   0.090  33.084  0.00  0.00     0.103 C 
ATOM      7  N   UNL d   1      57.763   0.682  33.264  0.00  0.00    -0.191 NA
ATOM      8  C   UNL d   1      55.463  -1.237  33.214  0.00  0.00     0.063 A 
ATOM      9  O   UNL d   1      55.004  -2.270  32.352  0.00  0.00    -0.265 OA
ENDROOT
BRANCH   2  10
ATOM     10  S   UNL d   1      57.393  -0.799  31.718  0.00  0.00    -0.067 SA
BRANCH  10  11
ATOM     11  C   UNL d   1      57.343  -0.986  30.907  0.00  0.00     0.037 C 
BRANCH  11  12
ATOM     12  C   UNL d   1      58.071  -1.090  30.354  0.00  0.00     0.007 C 
ATOM     13  C   UNL d   1      58.319  -0.504  29.571  0.00  0.00     0.001 C 
ENDBRANCH  11  12
ENDBRANCH  10  11
ENDBRANCH   2  10
BRANCH   3  14
ATOM     14  C   UNL d   1      55.916  -0.201  34.086  0.00  0.00     0.011 A 
ATOM     15  C   UNL d   1      55.238   0.231  34.197  0.00  0.00     0.058 A 
ATOM     16 CL   UNL d   1      54.432   0.331  33.612  0.00  0.00    -0.082 Cl
ATOM     17  C   UNL d   1      55.158   0.680  34.899  0.00  0.00     0.011 A 
ATOM     18  C   UNL d   1      55.758   0.682  35.465  0.00  0.00     0.001 A 
ATOM     19  C   UNL d   1      56.428   0.244  35.338  0.00  0.00     0.000 A 
ATOM     20  C   UNL d   1      56.512  -0.204  34.641  0.00  0.00     0.001 A 
ENDBRANCH   3  14
TORSDOF 4
ENDMDL
