MODEL 1
REMARK VINA RESULT:      -8.3      0.000      0.000
REMARK  4 active torsions:
REMARK  status: ('A' for Active; 'I' for Inactive)
REMARK    1  A    between atoms: C_3  and  C_1 
REMARK    2  A    between atoms: C_5  and  C_1 
REMARK    3  A    between atoms: C_2  and  C_3 
REMARK       I    between atoms: N_4  and  C_2 
REMARK    4  A    between atoms: C_6  and  N_4 
ROOT
ATOM      1  C   UNL d   1      53.598  32.554  53.859  0.00  0.00     0.279 C 
ATOM      2  N   UNL d   1      52.988  33.017  54.173  0.00  0.00    -0.208 NA
ATOM      3  O   UNL d   1      54.139  32.905  53.345  0.00  0.00    -0.265 OA
ENDROOT
BRANCH   1   4
ATOM      4  C   UNL d   1      53.684  31.749  54.040  0.00  0.00     0.063 C 
BRANCH   4   5
ATOM      5  C   UNL d   1      53.527  31.178  53.498  0.00  0.00     0.006 C 
BRANCH   5   6
ATOM      6  C   UNL d   1      53.366  30.391  53.725  0.00  0.00     0.011 A 
ATOM      7  C   UNL d   1      52.983  29.858  53.228  0.00  0.00     0.058 A 
ATOM      8 CL   UNL d   1      52.747  30.102  52.476  0.00  0.00    -0.082 Cl
ATOM      9  C   UNL d   1      52.833  29.097  53.461  0.00  0.00     0.011 A 
ATOM     10  C   UNL d   1      53.071  28.843  54.226  0.00  0.00     0.001 A 
ATOM     11  C   UNL d   1      53.453  29.355  54.739  0.00  0.00     0.000 A 
ATOM     12  C   UNL d   1      53.604  30.137  54.491  0.00  0.00     0.001 A 
ENDBRANCH   5   6
ENDBRANCH   4   5
ENDBRANCH   1   4
BRANCH   2  13
ATOM     13  C   UNL d   1      52.902  33.821  53.992  0.00  0.00     0.088 A 
ATOM     14  C   UNL d   1      53.122  34.382  54.556  0.00  0.00     0.061 A 
ATOM     15  C   UNL d   1      53.051  35.170  54.410  0.00  0.00     0.197 A 
ATOM     16  O   UNL d   1      53.270  35.728  54.972  0.00  0.00    -0.286 OA
ATOM     17  C   UNL d   1      52.747  35.419  53.670  0.00  0.00     0.042 A 
ATOM     18  C   UNL d   1      52.527  34.858  53.106  0.00  0.00     0.005 A 
ATOM     19  C   UNL d   1      52.613  34.055  53.288  0.00  0.00     0.019 A 
ENDBRANCH   2  13
TORSDOF 4
ENDMDL
MODEL 2
REMARK VINA RESULT:      -8.1      1.585      4.565
REMARK  4 active torsions:
REMARK  status: ('A' for Active; 'I' for Inactive)
REMARK    1  A    between atoms: C_3  and  C_1 
REMARK    2  A    between atoms: C_5  and  C_1 
REMARK    3  A    between atoms: C_2  and  C_3 
REMARK       I    between atoms: N_4  and  C_2 
REMARK    4  A    between atoms: C_6  and  N_4 
ROOT
ATOM      1  C   UNL d   1      53.727  32.004  53.865  0.00  0.00     0.279 C 
ATOM      2  N   UNL d   1      53.134  31.475  54.099  0.00  0.00    -0.208 NA
ATOM      3  O   UNL d   1      54.314  31.740  53.349  0.00  0.00    -0.265 OA
ENDROOT
BRANCH   1   4
ATOM      4  C   UNL d   1      53.752  32.789  54.130  0.00  0.00     0.063 C 
BRANCH   4   5
ATOM      5  C   UNL d   1      53.476  33.393  53.678  0.00  0.00     0.006 C 
BRANCH   5   6
ATOM      6  C   UNL d   1      53.308  34.142  54.004  0.00  0.00     0.011 A 
ATOM      7  C   UNL d   1      52.884  34.717  53.595  0.00  0.00     0.058 A 
ATOM      8 CL   UNL d   1      52.613  34.554  52.833  0.00  0.00    -0.082 Cl
ATOM      9  C   UNL d   1      52.727  35.440  53.923  0.00  0.00     0.011 A 
ATOM     10  C   UNL d   1      53.001  35.612  54.699  0.00  0.00     0.001 A 
ATOM     11  C   UNL d   1      53.425  35.056  55.127  0.00  0.00     0.000 A 
ATOM     12  C   UNL d   1      53.582  34.314  54.781  0.00  0.00     0.001 A 
ENDBRANCH   5   6
ENDBRANCH   4   5
ENDBRANCH   1   4
BRANCH   2  13
ATOM     13  C   UNL d   1      53.109  30.690  53.834  0.00  0.00     0.088 A 
ATOM     14  C   UNL d   1      53.273  30.084  54.369  0.00  0.00     0.061 A 
ATOM     15  C   UNL d   1      53.257  29.312  54.143  0.00  0.00     0.197 A 
ATOM     16  O   UNL d   1      53.420  28.709  54.677  0.00  0.00    -0.286 OA
ATOM     17  C   UNL d   1      53.070  29.127  53.348  0.00  0.00     0.042 A 
ATOM     18  C   UNL d   1      52.906  29.733  52.813  0.00  0.00     0.005 A 
ATOM     19  C   UNL d   1      52.931  30.517  53.078  0.00  0.00     0.019 A 
ENDBRANCH   2  13
TORSDOF 4
ENDMDL
MODEL 3
REMARK VINA RESULT:      -8.0      2.773      3.814
REMARK  4 active torsions:
REMARK  status: ('A' for Active; 'I' for Inactive)
REMARK    1  A    between atoms: C_3  and  C_1 
REMARK    2  A    between atoms: C_5  and  C_1 
REMARK    3  A    between atoms: C_2  and  C_3 
REMARK       I    between atoms: N_4  and  C_2 
REMARK    4  A    between atoms: C_6  and  N_4 
ROOT
ATOM      1  C   UNL d   1      51.431  34.052  52.808  0.00  0.00     0.279 C 
ATOM      2  N   UNL d   1      50.638  33.932  53.016  0.00  0.00    -0.208 NA
ATOM      3  O   UNL d   1      51.606  34.579  52.198  0.00  0.00    -0.265 OA
ENDROOT
BRANCH   1   4
ATOM      4  C   UNL d   1      52.055  33.661  53.189  0.00  0.00     0.063 C 
BRANCH   4   5
ATOM      5  C   UNL d   1      52.607  34.065  53.609  0.00  0.00     0.006 C 
BRANCH   5   6
ATOM      6  C   UNL d   1      53.217  33.672  54.023  0.00  0.00     0.011 A 
ATOM      7  C   UNL d   1      53.579  33.996  54.687  0.00  0.00     0.058 A 
ATOM      8 CL   UNL d   1      53.337  34.735  54.961  0.00  0.00    -0.082 Cl
ATOM      9  C   UNL d   1      54.169  33.604  55.079  0.00  0.00     0.011 A 
ATOM     10  C   UNL d   1      54.420  32.850  54.804  0.00  0.00     0.001 A 
ATOM     11  C   UNL d   1      54.075  32.507  54.144  0.00  0.00     0.000 A 
ATOM     12  C   UNL d   1      53.468  32.918  53.748  0.00  0.00     0.001 A 
ENDBRANCH   5   6
ENDBRANCH   4   5
ENDBRANCH   1   4
BRANCH   2  13
ATOM     13  C   UNL d   1      50.014  34.322  52.635  0.00  0.00     0.088 A 
ATOM     14  C   UNL d   1      49.563  34.864  53.063  0.00  0.00     0.061 A 
ATOM     15  C   UNL d   1      48.951  35.259  52.722  0.00  0.00     0.197 A 
ATOM     16  O   UNL d   1      48.501  35.798  53.149  0.00  0.00    -0.286 OA
ATOM     17  C   UNL d   1      48.774  35.114  51.917  0.00  0.00     0.042 A 
ATOM     18  C   UNL d   1      49.226  34.573  51.488  0.00  0.00     0.005 A 
ATOM     19  C   UNL d   1      49.849  34.182  51.870  0.00  0.00     0.019 A 
ENDBRANCH   2  13
TORSDOF 4
ENDMDL
MODEL 4
REMARK VINA RESULT:      -7.8      3.185      5.300
REMARK  4 active torsions:
REMARK  status: ('A' for Active; 'I' for Inactive)
REMARK    1  A    between atoms: C_3  and  C_1 
REMARK    2  A    between atoms: C_5  and  C_1 
REMARK    3  A    between atoms: C_2  and  C_3 
REMARK       I    between atoms: N_4  and  C_2 
REMARK    4  A    between atoms: C_6  and  N_4 
ROOT
ATOM      1  C   UNL d   1      51.044  34.107  52.823  0.00  0.00     0.279 C 
ATOM      2  N   UNL d   1      51.229  33.485  53.338  0.00  0.00    -0.208 NA
ATOM      3  O   UNL d   1      51.608  34.348  52.272  0.00  0.00    -0.265 OA
ENDROOT
BRANCH   1   4
ATOM      4  C   UNL d   1      50.312  34.497  52.843  0.00  0.00     0.063 C 
BRANCH   4   5
ATOM      5  C   UNL d   1      49.832  34.519  52.199  0.00  0.00     0.006 C 
BRANCH   5   6
ATOM      6  C   UNL d   1      49.109  34.937  52.206  0.00  0.00     0.011 A 
ATOM      7  C   UNL d   1      48.593  34.937  51.565  0.00  0.00     0.058 A 
ATOM      8 CL   UNL d   1      48.791  34.512  50.886  0.00  0.00    -0.082 Cl
ATOM      9  C   UNL d   1      47.896  35.347  51.584  0.00  0.00     0.011 A 
ATOM     10  C   UNL d   1      47.689  35.782  52.274  0.00  0.00     0.001 A 
ATOM     11  C   UNL d   1      48.186  35.797  52.926  0.00  0.00     0.000 A 
ATOM     12  C   UNL d   1      48.903  35.372  52.896  0.00  0.00     0.001 A 
ENDBRANCH   5   6
ENDBRANCH   4   5
ENDBRANCH   1   4
BRANCH   2  13
ATOM     13  C   UNL d   1      51.960  33.095  53.318  0.00  0.00     0.088 A 
ATOM     14  C   UNL d   1      52.008  32.360  52.947  0.00  0.00     0.061 A 
ATOM     15  C   UNL d   1      52.703  31.956  52.911  0.00  0.00     0.197 A 
ATOM     16  O   UNL d   1      52.752  31.224  52.540  0.00  0.00    -0.286 OA
ATOM     17  C   UNL d   1      53.386  32.294  53.259  0.00  0.00     0.042 A 
ATOM     18  C   UNL d   1      53.337  33.028  53.630  0.00  0.00     0.005 A 
ATOM     19  C   UNL d   1      52.606  33.418  53.650  0.00  0.00     0.019 A 
ENDBRANCH   2  13
TORSDOF 4
ENDMDL
