MODEL 1
REMARK VINA RESULT:      -5.5      0.000      0.000
REMARK  3 active torsions:
REMARK  status: ('A' for Active; 'I' for Inactive)
REMARK    1  A    between atoms: N_5  and  C_2 
REMARK    2  A    between atoms: C_8  and  C_3 
REMARK       I    between atoms: C_7  and  N_5 
REMARK    3  A    between atoms: C_10  and  C_7 
ROOT
ATOM      1  N   UNL d   1      56.961   0.213  30.814  0.00  0.00    -0.200 NA
ATOM      2  C   UNL d   1      57.649   0.528  30.490  0.00  0.00     0.216 A 
ATOM      3  C   UNL d   1      57.068   0.170  31.640  0.00  0.00     0.172 A 
ATOM      4  N   UNL d   1      57.829   0.464  31.805  0.00  0.00    -0.187 NA
ATOM      5  S   UNL d   1      58.179   0.682  31.088  0.00  0.00     0.054 SA
ENDROOT
BRANCH   2   6
ATOM      6  N   UNL d   1      57.785   0.669  29.675  0.00  0.00    -0.181 NA
ATOM      7  C   UNL d   1      58.339   0.231  29.256  0.00  0.00     0.281 C 
ATOM      8  O   UNL d   1      58.461   0.382  28.455  0.00  0.00    -0.265 OA
BRANCH   7   9
ATOM      9  C   UNL d   1      58.770  -0.359  29.638  0.00  0.00     0.058 C 
ATOM     10  C   UNL d   1      58.497  -1.136  29.644  0.00  0.00     0.005 C 
ATOM     11  C   UNL d   1      59.478  -0.168  30.015  0.00  0.00     0.005 C 
ENDBRANCH   7   9
ENDBRANCH   2   6
BRANCH   3  12
ATOM     12  C   UNL d   1      56.542  -0.105  32.213  0.00  0.00     0.036 A 
ATOM     13  C   UNL d   1      56.094   0.432  32.661  0.00  0.00     0.003 A 
ATOM     14  C   UNL d   1      55.568   0.157  33.234  0.00  0.00     0.000 A 
ATOM     15  C   UNL d   1      55.486  -0.659  33.365  0.00  0.00     0.000 A 
ATOM     16  C   UNL d   1      55.934  -1.197  32.917  0.00  0.00     0.000 A 
ATOM     17  C   UNL d   1      56.460  -0.921  32.344  0.00  0.00     0.003 A 
ENDBRANCH   3  12
TORSDOF 3
ENDMDL
MODEL 2
REMARK VINA RESULT:      -5.1      0.812      1.043
REMARK  3 active torsions:
REMARK  status: ('A' for Active; 'I' for Inactive)
REMARK    1  A    between atoms: N_5  and  C_2 
REMARK    2  A    between atoms: C_8  and  C_3 
REMARK       I    between atoms: C_7  and  N_5 
REMARK    3  A    between atoms: C_10  and  C_7 
ROOT
ATOM      1  N   UNL d   1      58.133   0.031  31.267  0.00  0.00    -0.200 NA
ATOM      2  C   UNL d   1      58.394   0.379  30.569  0.00  0.00     0.216 A 
ATOM      3  C   UNL d   1      57.304   0.122  31.299  0.00  0.00     0.172 A 
ATOM      4  N   UNL d   1      57.075   0.528  30.611  0.00  0.00    -0.187 NA
ATOM      5  S   UNL d   1      57.755   0.682  30.167  0.00  0.00     0.054 SA
ENDROOT
BRANCH   2   6
ATOM      6  N   UNL d   1      59.190   0.417  30.310  0.00  0.00    -0.181 NA
ATOM      7  C   UNL d   1      59.448  -0.023  29.666  0.00  0.00     0.281 C 
ATOM      8  O   UNL d   1      60.234   0.026  29.425  0.00  0.00    -0.265 OA
BRANCH   7   9
ATOM      9  C   UNL d   1      58.919  -0.511  29.264  0.00  0.00     0.058 C 
ATOM     10  C   UNL d   1      58.462  -0.210  28.648  0.00  0.00     0.005 C 
ATOM     11  C   UNL d   1      58.848  -1.303  29.481  0.00  0.00     0.005 C 
ENDBRANCH   7   9
ENDBRANCH   2   6
BRANCH   3  12
ATOM     12  C   UNL d   1      56.781  -0.130  31.886  0.00  0.00     0.036 A 
ATOM     13  C   UNL d   1      56.396   0.425  32.369  0.00  0.00     0.003 A 
ATOM     14  C   UNL d   1      55.873   0.173  32.956  0.00  0.00     0.000 A 
ATOM     15  C   UNL d   1      55.730  -0.638  33.064  0.00  0.00     0.000 A 
ATOM     16  C   UNL d   1      56.115  -1.194  32.581  0.00  0.00     0.000 A 
ATOM     17  C   UNL d   1      56.638  -0.941  31.994  0.00  0.00     0.003 A 
ENDBRANCH   3  12
TORSDOF 3
ENDMDL
MODEL 3
REMARK VINA RESULT:      -4.3      1.687      3.717
REMARK  3 active torsions:
REMARK  status: ('A' for Active; 'I' for Inactive)
REMARK    1  A    between atoms: N_5  and  C_2 
REMARK    2  A    between atoms: C_8  and  C_3 
REMARK       I    between atoms: C_7  and  N_5 
REMARK    3  A    between atoms: C_10  and  C_7 
ROOT
ATOM      1  N   UNL d   1      56.757   0.314  31.273  0.00  0.00    -0.200 NA
ATOM      2  C   UNL d   1      56.644   0.564  32.048  0.00  0.00     0.216 A 
ATOM      3  C   UNL d   1      57.580   0.276  31.138  0.00  0.00     0.172 A 
ATOM      4  N   UNL d   1      57.955   0.506  31.843  0.00  0.00    -0.187 NA
ATOM      5  S   UNL d   1      57.368   0.682  32.399  0.00  0.00     0.054 SA
ENDROOT
BRANCH   2   6
ATOM      6  N   UNL d   1      55.902   0.679  32.421  0.00  0.00    -0.181 NA
ATOM      7  C   UNL d   1      55.622   0.148  32.981  0.00  0.00     0.281 C 
ATOM      8  O   UNL d   1      54.890   0.276  33.338  0.00  0.00    -0.265 OA
BRANCH   7   9
ATOM      9  C   UNL d   1      56.074  -0.511  33.184  0.00  0.00     0.058 C 
ATOM     10  C   UNL d   1      56.666  -0.448  33.754  0.00  0.00     0.005 C 
ATOM     11  C   UNL d   1      55.932  -1.234  32.815  0.00  0.00     0.005 C 
ENDBRANCH   7   9
ENDBRANCH   2   6
BRANCH   3  12
ATOM     12  C   UNL d   1      57.978   0.057  30.450  0.00  0.00     0.036 A 
ATOM     13  C   UNL d   1      58.273   0.638  29.934  0.00  0.00     0.003 A 
ATOM     14  C   UNL d   1      58.672   0.418  29.246  0.00  0.00     0.000 A 
ATOM     15  C   UNL d   1      58.780  -0.385  29.067  0.00  0.00     0.000 A 
ATOM     16  C   UNL d   1      58.486  -0.967  29.582  0.00  0.00     0.000 A 
ATOM     17  C   UNL d   1      58.087  -0.747  30.270  0.00  0.00     0.003 A 
ENDBRANCH   3  12
TORSDOF 3
ENDMDL
