MODEL 1
REMARK VINA RESULT:      -3.4      0.000      0.000
REMARK  4 active torsions:
REMARK  status: ('A' for Active; 'I' for Inactive)
REMARK    1  A    between atoms: C_4  and  S_1 
REMARK    2  A    between atoms: N_5  and  S_1 
REMARK    3  A    between atoms: C_3  and  C_12 
REMARK    4  A    between atoms: C_12  and  N_5 
ROOT
ATOM      1  S   UNL d   1      33.107  20.282 -21.838  0.00  0.00     0.285 S 
ATOM      2  O   UNL d   1      33.240  20.743 -22.509  0.00  0.00    -0.198 OA
ATOM      3  O   UNL d   1      32.973  19.805 -21.161  0.00  0.00    -0.198 OA
ENDROOT
BRANCH   1   4
ATOM      4  C   UNL d   1      32.989  20.959 -21.386  0.00  0.00     0.105 A 
ATOM      5  C   UNL d   1      32.628  21.629 -21.732  0.00  0.00     0.013 A 
ATOM      6  C   UNL d   1      32.520  22.298 -21.258  0.00  0.00     0.001 A 
ATOM      7  C   UNL d   1      32.161  22.964 -21.605  0.00  0.00     0.000 A 
ATOM      8  C   UNL d   1      32.757  22.310 -20.471  0.00  0.00     0.000 A 
ATOM      9  C   UNL d   1      32.047  23.638 -21.141  0.00  0.00     0.000 A 
ATOM     10  C   UNL d   1      32.282  23.655 -20.352  0.00  0.00     0.000 A 
ATOM     11  C   UNL d   1      32.638  22.984 -20.024  0.00  0.00     0.000 A 
ATOM     12  C   UNL d   1      33.106  21.649 -20.151  0.00  0.00     0.001 A 
ATOM     13  C   UNL d   1      33.224  20.973 -20.603  0.00  0.00     0.013 A 
ENDBRANCH   1   4
BRANCH   1  14
ATOM     14  N   UNL d   1      33.226  19.589 -22.289  0.00  0.00    -0.155 NA
BRANCH  14  15
ATOM     15  C   UNL d   1      32.691  19.373 -22.876  0.00  0.00     0.132 C 
BRANCH  15  16
ATOM     16  C   UNL d   1      32.791  18.661 -23.297  0.00  0.00     0.108 A 
ATOM     17  N   UNL d   1      32.514  17.925 -23.061  0.00  0.00    -0.237 NA
ATOM     18  C   UNL d   1      32.735  17.367 -23.642  0.00  0.00     0.111 A 
ATOM     19  C   UNL d   1      32.568  16.551 -23.628  0.00  0.00     0.028 C 
ATOM     20  S   UNL d   1      33.147  17.775 -24.228  0.00  0.00    -0.066 SA
ATOM     21  C   UNL d   1      33.182  18.575 -24.015  0.00  0.00     0.058 A 
ENDBRANCH  15  16
ENDBRANCH  14  15
ENDBRANCH   1  14
TORSDOF 4
ENDMDL
MODEL 2
REMARK VINA RESULT:      -3.3      1.080      4.983
REMARK  4 active torsions:
REMARK  status: ('A' for Active; 'I' for Inactive)
REMARK    1  A    between atoms: C_4  and  S_1 
REMARK    2  A    between atoms: N_5  and  S_1 
REMARK    3  A    between atoms: C_3  and  C_12 
REMARK    4  A    between atoms: C_12  and  N_5 
ROOT
ATOM      1  S   UNL d   1      33.158  19.895 -22.543  0.00  0.00     0.285 S 
ATOM      2  O   UNL d   1      33.094  19.341 -21.936  0.00  0.00    -0.198 OA
ATOM      3  O   UNL d   1      33.225  20.467 -23.154  0.00  0.00    -0.198 OA
ENDROOT
BRANCH   1   4
ATOM      4  C   UNL d   1      33.078  19.301 -23.106  0.00  0.00     0.105 A 
ATOM      5  C   UNL d   1      32.830  18.538 -22.870  0.00  0.00     0.013 A 
ATOM      6  C   UNL d   1      32.757  17.957 -23.453  0.00  0.00     0.001 A 
ATOM      7  C   UNL d   1      32.510  17.199 -23.216  0.00  0.00     0.000 A 
ATOM      8  C   UNL d   1      32.921  18.118 -24.243  0.00  0.00     0.000 A 
ATOM      9  C   UNL d   1      32.433  16.610 -23.790  0.00  0.00     0.000 A 
ATOM     10  C   UNL d   1      32.596  16.766 -24.582  0.00  0.00     0.000 A 
ATOM     11  C   UNL d   1      32.841  17.526 -24.800  0.00  0.00     0.000 A 
ATOM     12  C   UNL d   1      33.161  18.865 -24.455  0.00  0.00     0.001 A 
ATOM     13  C   UNL d   1      33.241  19.459 -23.892  0.00  0.00     0.013 A 
ENDBRANCH   1   4
BRANCH   1  14
ATOM     14  N   UNL d   1      33.240  20.505 -21.979  0.00  0.00    -0.155 NA
BRANCH  14  15
ATOM     15  C   UNL d   1      32.620  20.696 -21.473  0.00  0.00     0.132 C 
BRANCH  15  16
ATOM     16  C   UNL d   1      32.635  21.406 -21.036  0.00  0.00     0.108 A 
ATOM     17  N   UNL d   1      32.205  22.083 -21.211  0.00  0.00    -0.237 NA
ATOM     18  C   UNL d   1      32.383  22.659 -20.634  0.00  0.00     0.111 A 
ATOM     19  C   UNL d   1      32.072  23.430 -20.596  0.00  0.00     0.028 C 
ATOM     20  S   UNL d   1      32.924  22.321 -20.110  0.00  0.00    -0.066 SA
ATOM     21  C   UNL d   1      33.079  21.546 -20.359  0.00  0.00     0.058 A 
ENDBRANCH  15  16
ENDBRANCH  14  15
ENDBRANCH   1  14
TORSDOF 4
ENDMDL
MODEL 3
REMARK VINA RESULT:      -3.1      0.945      1.564
REMARK  4 active torsions:
REMARK  status: ('A' for Active; 'I' for Inactive)
REMARK    1  A    between atoms: C_4  and  S_1 
REMARK    2  A    between atoms: N_5  and  S_1 
REMARK    3  A    between atoms: C_3  and  C_12 
REMARK    4  A    between atoms: C_12  and  N_5 
ROOT
ATOM      1  S   UNL d   1      32.986  19.470 -22.729  0.00  0.00     0.285 S 
ATOM      2  O   UNL d   1      33.138  19.153 -21.983  0.00  0.00    -0.198 OA
ATOM      3  O   UNL d   1      32.831  19.783 -23.493  0.00  0.00    -0.198 OA
ENDROOT
BRANCH   1   4
ATOM      4  C   UNL d   1      32.943  20.226 -22.409  0.00  0.00     0.105 A 
ATOM      5  C   UNL d   1      32.596  20.338 -21.656  0.00  0.00     0.013 A 
ATOM      6  C   UNL d   1      32.564  21.107 -21.355  0.00  0.00     0.001 A 
ATOM      7  C   UNL d   1      32.218  21.215 -20.606  0.00  0.00     0.000 A 
ATOM      8  C   UNL d   1      32.862  21.746 -21.777  0.00  0.00     0.000 A 
ATOM      9  C   UNL d   1      32.180  21.979 -20.294  0.00  0.00     0.000 A 
ATOM     10  C   UNL d   1      32.477  22.622 -20.713  0.00  0.00     0.000 A 
ATOM     11  C   UNL d   1      32.818  22.497 -21.456  0.00  0.00     0.000 A 
ATOM     12  C   UNL d   1      33.195  21.620 -22.507  0.00  0.00     0.001 A 
ATOM     13  C   UNL d   1      33.239  20.864 -22.827  0.00  0.00     0.013 A 
ENDBRANCH   1   4
BRANCH   1  14
ATOM     14  N   UNL d   1      33.028  18.706 -23.063  0.00  0.00    -0.155 NA
BRANCH  14  15
ATOM     15  C   UNL d   1      32.359  18.350 -23.384  0.00  0.00     0.132 C 
BRANCH  15  16
ATOM     16  C   UNL d   1      32.370  17.545 -23.598  0.00  0.00     0.108 A 
ATOM     17  N   UNL d   1      31.941  16.948 -23.233  0.00  0.00    -0.237 NA
ATOM     18  C   UNL d   1      32.115  16.229 -23.620  0.00  0.00     0.111 A 
ATOM     19  C   UNL d   1      31.801  15.481 -23.432  0.00  0.00     0.028 C 
ATOM     20  S   UNL d   1      32.653  16.400 -24.222  0.00  0.00    -0.066 SA
ATOM     21  C   UNL d   1      32.811  17.213 -24.208  0.00  0.00     0.058 A 
ENDBRANCH  15  16
ENDBRANCH  14  15
ENDBRANCH   1  14
TORSDOF 4
ENDMDL
MODEL 4
REMARK VINA RESULT:      -3.0      1.367      5.331
REMARK  4 active torsions:
REMARK  status: ('A' for Active; 'I' for Inactive)
REMARK    1  A    between atoms: C_4  and  S_1 
REMARK    2  A    between atoms: N_5  and  S_1 
REMARK    3  A    between atoms: C_3  and  C_12 
REMARK    4  A    between atoms: C_12  and  N_5 
ROOT
ATOM      1  S   UNL d   1      32.836  18.573 -23.350  0.00  0.00     0.285 S 
ATOM      2  O   UNL d   1      32.810  18.239 -22.596  0.00  0.00    -0.198 OA
ATOM      3  O   UNL d   1      32.865  18.922 -24.114  0.00  0.00    -0.198 OA
ENDROOT
BRANCH   1   4
ATOM      4  C   UNL d   1      32.628  17.852 -23.686  0.00  0.00     0.105 A 
ATOM      5  C   UNL d   1      31.829  17.700 -23.880  0.00  0.00     0.013 A 
ATOM      6  C   UNL d   1      31.644  16.969 -24.216  0.00  0.00     0.001 A 
ATOM      7  C   UNL d   1      30.848  16.821 -24.408  0.00  0.00     0.000 A 
ATOM      8  C   UNL d   1      32.223  16.402 -24.358  0.00  0.00     0.000 A 
ATOM      9  C   UNL d   1      30.651  16.092 -24.745  0.00  0.00     0.000 A 
ATOM     10  C   UNL d   1      31.227  15.523 -24.889  0.00  0.00     0.000 A 
ATOM     11  C   UNL d   1      32.013  15.686 -24.692  0.00  0.00     0.000 A 
ATOM     12  C   UNL d   1      32.995  16.566 -24.164  0.00  0.00     0.001 A 
ATOM     13  C   UNL d   1      33.203  17.287 -23.828  0.00  0.00     0.013 A 
ENDBRANCH   1   4
BRANCH   1  14
ATOM     14  N   UNL d   1      33.048  19.309 -23.018  0.00  0.00    -0.155 NA
BRANCH  14  15
ATOM     15  C   UNL d   1      32.852  19.491 -22.240  0.00  0.00     0.132 C 
BRANCH  15  16
ATOM     16  C   UNL d   1      32.861  20.282 -21.976  0.00  0.00     0.108 A 
ATOM     17  N   UNL d   1      32.497  20.561 -21.296  0.00  0.00    -0.237 NA
ATOM     18  C   UNL d   1      32.643  21.381 -21.241  0.00  0.00     0.111 A 
ATOM     19  C   UNL d   1      32.377  21.889 -20.638  0.00  0.00     0.028 C 
ATOM     20  S   UNL d   1      33.100  21.592 -21.896  0.00  0.00    -0.066 SA
ATOM     21  C   UNL d   1      33.234  20.912 -22.350  0.00  0.00     0.058 A 
ENDBRANCH  15  16
ENDBRANCH  14  15
ENDBRANCH   1  14
TORSDOF 4
ENDMDL
MODEL 5
REMARK VINA RESULT:      -2.6      2.468      5.194
REMARK  4 active torsions:
REMARK  status: ('A' for Active; 'I' for Inactive)
REMARK    1  A    between atoms: C_4  and  S_1 
REMARK    2  A    between atoms: N_5  and  S_1 
REMARK    3  A    between atoms: C_3  and  C_12 
REMARK    4  A    between atoms: C_12  and  N_5 
ROOT
ATOM      1  S   UNL d   1      32.516  22.225 -20.620  0.00  0.00     0.285 S 
ATOM      2  O   UNL d   1      32.056  21.605 -20.329  0.00  0.00    -0.198 OA
ATOM      3  O   UNL d   1      32.982  22.862 -20.907  0.00  0.00    -0.198 OA
ENDROOT
BRANCH   1   4
ATOM      4  C   UNL d   1      32.678  21.797 -21.303  0.00  0.00     0.105 A 
ATOM      5  C   UNL d   1      32.697  20.962 -21.273  0.00  0.00     0.013 A 
ATOM      6  C   UNL d   1      32.862  20.553 -21.972  0.00  0.00     0.001 A 
ATOM      7  C   UNL d   1      32.880  19.722 -21.939  0.00  0.00     0.000 A 
ATOM      8  C   UNL d   1      33.003  20.949 -22.678  0.00  0.00     0.000 A 
ATOM      9  C   UNL d   1      33.044  19.302 -22.632  0.00  0.00     0.000 A 
ATOM     10  C   UNL d   1      33.186  19.694 -23.341  0.00  0.00     0.000 A 
ATOM     11  C   UNL d   1      33.164  20.521 -23.356  0.00  0.00     0.000 A 
ATOM     12  C   UNL d   1      32.980  21.761 -22.690  0.00  0.00     0.001 A 
ATOM     13  C   UNL d   1      32.818  22.190 -22.007  0.00  0.00     0.013 A 
ENDBRANCH   1   4
BRANCH   1  14
ATOM     14  N   UNL d   1      32.357  22.667 -19.930  0.00  0.00    -0.155 NA
BRANCH  14  15
ATOM     15  C   UNL d   1      32.944  22.794 -19.367  0.00  0.00     0.132 C 
BRANCH  15  16
ATOM     16  C   UNL d   1      32.750  23.097 -18.615  0.00  0.00     0.108 A 
ATOM     17  N   UNL d   1      33.221  23.047 -17.945  0.00  0.00    -0.237 NA
ATOM     18  C   UNL d   1      32.818  23.421 -17.317  0.00  0.00     0.111 A 
ATOM     19  C   UNL d   1      33.092  23.500 -16.534  0.00  0.00     0.028 C 
ATOM     20  S   UNL d   1      32.100  23.697 -17.616  0.00  0.00    -0.066 SA
ATOM     21  C   UNL d   1      32.058  23.496 -18.420  0.00  0.00     0.058 A 
ENDBRANCH  15  16
ENDBRANCH  14  15
ENDBRANCH   1  14
TORSDOF 4
ENDMDL
MODEL 6
REMARK VINA RESULT:      -2.2      1.907      2.886
REMARK  4 active torsions:
REMARK  status: ('A' for Active; 'I' for Inactive)
REMARK    1  A    between atoms: C_4  and  S_1 
REMARK    2  A    between atoms: N_5  and  S_1 
REMARK    3  A    between atoms: C_3  and  C_12 
REMARK    4  A    between atoms: C_12  and  N_5 
ROOT
ATOM      1  S   UNL d   1      33.033  22.008 -20.224  0.00  0.00     0.285 S 
ATOM      2  O   UNL d   1      32.873  21.297 -19.838  0.00  0.00    -0.198 OA
ATOM      3  O   UNL d   1      33.198  22.727 -20.625  0.00  0.00    -0.198 OA
ENDROOT
BRANCH   1   4
ATOM      4  C   UNL d   1      32.830  22.430 -19.548  0.00  0.00     0.105 A 
ATOM      5  C   UNL d   1      33.144  22.202 -18.808  0.00  0.00     0.013 A 
ATOM      6  C   UNL d   1      32.926  22.641 -18.142  0.00  0.00     0.001 A 
ATOM      7  C   UNL d   1      33.241  22.412 -17.407  0.00  0.00     0.000 A 
ATOM      8  C   UNL d   1      32.417  23.284 -18.200  0.00  0.00     0.000 A 
ATOM      9  C   UNL d   1      33.030  22.844 -16.734  0.00  0.00     0.000 A 
ATOM     10  C   UNL d   1      32.521  23.488 -16.787  0.00  0.00     0.000 A 
ATOM     11  C   UNL d   1      32.217  23.702 -17.526  0.00  0.00     0.000 A 
ATOM     12  C   UNL d   1      32.121  23.492 -18.927  0.00  0.00     0.001 A 
ATOM     13  C   UNL d   1      32.323  23.070 -19.603  0.00  0.00     0.013 A 
ENDBRANCH   1   4
BRANCH   1  14
ATOM     14  N   UNL d   1      33.240  21.588 -20.915  0.00  0.00    -0.155 NA
BRANCH  14  15
ATOM     15  C   UNL d   1      32.659  21.287 -21.414  0.00  0.00     0.132 C 
BRANCH  15  16
ATOM     16  C   UNL d   1      32.862  20.766 -22.032  0.00  0.00     0.108 A 
ATOM     17  N   UNL d   1      32.885  19.948 -21.977  0.00  0.00    -0.237 NA
ATOM     18  C   UNL d   1      33.114  19.644 -22.721  0.00  0.00     0.111 A 
ATOM     19  C   UNL d   1      33.208  18.840 -22.916  0.00  0.00     0.028 C 
ATOM     20  S   UNL d   1      33.227  20.289 -23.223  0.00  0.00    -0.066 SA
ATOM     21  C   UNL d   1      33.072  20.983 -22.797  0.00  0.00     0.058 A 
ENDBRANCH  15  16
ENDBRANCH  14  15
ENDBRANCH   1  14
TORSDOF 4
ENDMDL
