MODEL 1
REMARK VINA RESULT:      -1.2      0.000      0.000
REMARK  6 active torsions:
REMARK  status: ('A' for Active; 'I' for Inactive)
REMARK    1  A    between atoms: C_3  and  S_1 
REMARK    2  A    between atoms: N_4  and  S_1 
REMARK    3  A    between atoms: S_2  and  C_7 
REMARK    4  A    between atoms: C_8  and  S_2 
REMARK    5  A    between atoms: C_6  and  C_9 
REMARK       I    between atoms: N_10  and  C_6 
REMARK    6  A    between atoms: C_17  and  N_10 
ROOT
ATOM      1  C   UNL d   1      56.354  -0.386  32.414  0.00  0.00     0.115 A 
ATOM      2  C   UNL d   1      57.002  -0.406  31.899  0.00  0.00     0.019 A 
ATOM      3  C   UNL d   1      57.025   0.127  31.273  0.00  0.00     0.059 A 
ATOM      4  C   UNL d   1      55.754   0.150  32.303  0.00  0.00     0.070 A 
ATOM      5  C   UNL d   1      56.425   0.663  31.161  0.00  0.00     0.006 A 
ATOM      6  C   UNL d   1      55.785   0.682  31.672  0.00  0.00     0.012 A 
ATOM      7 CL   UNL d   1      55.105   0.162  32.828  0.00  0.00    -0.082 Cl
ENDROOT
BRANCH   3   8
ATOM      8  C   UNL d   1      57.668   0.125  30.741  0.00  0.00     0.279 C 
ATOM      9  N   UNL d   1      57.706  -0.429  30.135  0.00  0.00    -0.208 NA
ATOM     10  O   UNL d   1      58.272   0.682  30.821  0.00  0.00    -0.265 OA
BRANCH   9  11
ATOM     11  C   UNL d   1      58.343  -0.427  29.613  0.00  0.00     0.085 A 
ATOM     12  C   UNL d   1      58.852  -1.089  29.570  0.00  0.00     0.031 A 
ATOM     13  C   UNL d   1      59.499  -1.091  29.043  0.00  0.00     0.094 A 
ATOM     14  C   UNL d   1      59.643  -0.425  28.549  0.00  0.00     0.012 A 
ATOM     15  C   UNL d   1      59.134   0.238  28.592  0.00  0.00     0.002 A 
ATOM     16  C   UNL d   1      58.488   0.240  29.118  0.00  0.00     0.019 A 
BRANCH  13  17
ATOM     17  S   UNL d   1      59.912  -1.789  29.097  0.00  0.00     0.262 S 
ATOM     18  O   UNL d   1      60.340  -2.484  29.156  0.00  0.00    -0.213 OA
ATOM     19  O   UNL d   1      59.254  -2.219  28.906  0.00  0.00    -0.213 OA
BRANCH  17  20
ATOM     20  C   UNL d   1      60.588  -1.362  29.292  0.00  0.00     0.364 C 
ATOM     21  F   UNL d   1      61.064  -1.067  28.707  0.00  0.00    -0.159 F 
ATOM     22  F   UNL d   1      60.783  -1.235  30.077  0.00  0.00    -0.159 F 
ENDBRANCH  17  20
ENDBRANCH  13  17
ENDBRANCH   9  11
ENDBRANCH   3   8
BRANCH   1  23
ATOM     23  S   UNL d   1      56.339  -0.927  33.042  0.00  0.00     0.272 S 
ATOM     24  O   UNL d   1      55.963  -1.485  32.549  0.00  0.00    -0.200 OA
ATOM     25  O   UNL d   1      56.314  -1.479  33.650  0.00  0.00    -0.200 OA
BRANCH  23  26
ATOM     26  N   UNL d   1      56.707  -0.393  33.539  0.00  0.00    -0.225 N 
ATOM     27  C   UNL d   1      57.510  -0.247  33.470  0.00  0.00     0.118 A 
ATOM     28  C   UNL d   1      57.874   0.290  33.971  0.00  0.00     0.142 A 
ATOM     29  O   UNL d   1      57.444   0.682  34.537  0.00  0.00    -0.300 OA
ATOM     30  C   UNL d   1      56.626   0.542  34.616  0.00  0.00     0.142 A 
ATOM     31  C   UNL d   1      56.270   0.005  34.113  0.00  0.00     0.118 A 
ENDBRANCH  23  26
ENDBRANCH   1  23
TORSDOF 6
ENDMDL
MODEL 2
REMARK VINA RESULT:       0.3      2.428      5.120
REMARK  6 active torsions:
REMARK  status: ('A' for Active; 'I' for Inactive)
REMARK    1  A    between atoms: C_3  and  S_1 
REMARK    2  A    between atoms: N_4  and  S_1 
REMARK    3  A    between atoms: S_2  and  C_7 
REMARK    4  A    between atoms: C_8  and  S_2 
REMARK    5  A    between atoms: C_6  and  C_9 
REMARK       I    between atoms: N_10  and  C_6 
REMARK    6  A    between atoms: C_17  and  N_10 
ROOT
ATOM      1  C   UNL d   1      59.575   0.036  29.950  0.00  0.00     0.115 A 
ATOM      2  C   UNL d   1      58.789   0.037  30.209  0.00  0.00     0.019 A 
ATOM      3  C   UNL d   1      58.616   0.354  30.948  0.00  0.00     0.059 A 
ATOM      4  C   UNL d   1      60.164   0.343  30.418  0.00  0.00     0.070 A 
ATOM      5  C   UNL d   1      59.205   0.661  31.416  0.00  0.00     0.006 A 
ATOM      6  C   UNL d   1      59.983   0.660  31.158  0.00  0.00     0.012 A 
ATOM      7 CL   UNL d   1      60.954   0.338  30.147  0.00  0.00    -0.082 Cl
ENDROOT
BRANCH   3   8
ATOM      8  C   UNL d   1      57.831   0.365  31.229  0.00  0.00     0.279 C 
ATOM      9  N   UNL d   1      57.651   0.065  31.974  0.00  0.00    -0.208 NA
ATOM     10  O   UNL d   1      57.228   0.679  30.761  0.00  0.00    -0.265 OA
BRANCH   9  11
ATOM     11  C   UNL d   1      56.873   0.079  32.247  0.00  0.00     0.085 A 
ATOM     12  C   UNL d   1      56.612  -0.497  32.794  0.00  0.00     0.031 A 
ATOM     13  C   UNL d   1      55.825  -0.487  33.074  0.00  0.00     0.094 A 
ATOM     14  C   UNL d   1      55.289   0.104  32.805  0.00  0.00     0.012 A 
ATOM     15  C   UNL d   1      55.551   0.680  32.258  0.00  0.00     0.002 A 
ATOM     16  C   UNL d   1      56.336   0.670  31.978  0.00  0.00     0.019 A 
BRANCH  13  17
ATOM     17  S   UNL d   1      55.698  -1.095  33.597  0.00  0.00     0.262 S 
ATOM     18  O   UNL d   1      55.571  -1.699  34.135  0.00  0.00    -0.213 OA
ATOM     19  O   UNL d   1      55.669  -1.636  32.995  0.00  0.00    -0.213 OA
BRANCH  17  20
ATOM     20  C   UNL d   1      55.726  -0.556  34.217  0.00  0.00     0.364 C 
ATOM     21  F   UNL d   1      55.047  -0.355  34.610  0.00  0.00    -0.159 F 
ATOM     22  F   UNL d   1      56.438  -0.219  34.440  0.00  0.00    -0.159 F 
ENDBRANCH  17  20
ENDBRANCH  13  17
ENDBRANCH   9  11
ENDBRANCH   3   8
BRANCH   1  23
ATOM     23  S   UNL d   1      59.739  -0.286  29.204  0.00  0.00     0.272 S 
ATOM     24  O   UNL d   1      59.738   0.481  28.876  0.00  0.00    -0.200 OA
ATOM     25  O   UNL d   1      59.901  -0.584  28.455  0.00  0.00    -0.200 OA
BRANCH  23  26
ATOM     26  N   UNL d   1      59.743  -1.044  29.509  0.00  0.00    -0.225 N 
ATOM     27  C   UNL d   1      59.080  -1.520  29.447  0.00  0.00     0.118 A 
ATOM     28  C   UNL d   1      59.089  -2.280  29.755  0.00  0.00     0.142 A 
ATOM     29  O   UNL d   1      59.753  -2.566  30.123  0.00  0.00    -0.300 OA
ATOM     30  C   UNL d   1      60.434  -2.091  30.193  0.00  0.00     0.142 A 
ATOM     31  C   UNL d   1      60.417  -1.334  29.883  0.00  0.00     0.118 A 
ENDBRANCH  23  26
ENDBRANCH   1  23
TORSDOF 6
ENDMDL
