MODEL 1
REMARK VINA RESULT:      69.6      0.000      0.000
REMARK  6 active torsions:
REMARK  status: ('A' for Active; 'I' for Inactive)
REMARK    1  A    between atoms: C_4  and  N_1 
REMARK    2  A    between atoms: C_7  and  C_3 
REMARK    3  A    between atoms: N_13  and  C_4 
REMARK    4  A    between atoms: C_16  and  N_13 
REMARK    5  A    between atoms: C_20  and  C_16 
REMARK    6  A    between atoms: C_17  and  C_20 
ROOT
ATOM      1  N   UNL d   1      59.839  49.371  51.434  0.00  0.00    -0.281 N 
ATOM      2  C   UNL d   1      61.011  49.015  52.147  0.00  0.00     0.080 A 
ATOM      3  C   UNL d   1      60.584  49.031  51.448  0.00  0.00     0.084 A 
ATOM      4  N   UNL d   1      60.693  49.339  52.831  0.00  0.00    -0.301 N 
ATOM      5  C   UNL d   1      59.518  49.698  52.123  0.00  0.00     0.101 A 
ATOM      6  C   UNL d   1      61.759  48.717  52.329  0.00  0.00     0.021 A 
ATOM      7  C   UNL d   1      61.240  49.245  53.442  0.00  0.00     0.080 A 
ATOM      8  C   UNL d   1      59.952  49.679  52.821  0.00  0.00     0.100 A 
ATOM      9  C   UNL d   1      61.902  48.860  53.135  0.00  0.00     0.021 A 
ENDROOT
BRANCH   1  10
ATOM     10  C   UNL d   1      59.400  49.391  50.733  0.00  0.00     0.184 C 
ATOM     11  S   UNL d   1      59.755  49.661  50.047  0.00  0.00    -0.040 SA
BRANCH  10  12
ATOM     12  N   UNL d   1      58.619  49.144  50.724  0.00  0.00    -0.330 N 
ATOM     13  H   UNL d   1      58.440  48.348  50.605  0.00  0.00     0.168 HD
BRANCH  12  14
ATOM     14  C   UNL d   1      58.015  49.689  50.834  0.00  0.00     0.074 C 
BRANCH  14  15
ATOM     15  C   UNL d   1      57.254  49.454  50.814  0.00  0.00     0.018 C 
BRANCH  15  16
ATOM     16  C   UNL d   1      56.849  49.161  50.155  0.00  0.00     0.002 A 
ATOM     17  C   UNL d   1      56.541  49.692  49.593  0.00  0.00     0.000 A 
ATOM     18  C   UNL d   1      56.136  49.403  48.935  0.00  0.00     0.000 A 
ATOM     19  C   UNL d   1      56.036  48.586  48.834  0.00  0.00     0.000 A 
ATOM     20  C   UNL d   1      56.344  48.054  49.396  0.00  0.00     0.000 A 
ATOM     21  C   UNL d   1      56.749  48.351  50.054  0.00  0.00     0.000 A 
ENDBRANCH  15  16
ENDBRANCH  14  15
ENDBRANCH  12  14
ENDBRANCH  10  12
ENDBRANCH   1  10
BRANCH   3  22
ATOM     22  C   UNL d   1      60.901  48.706  50.760  0.00  0.00     0.037 A 
ATOM     23  C   UNL d   1      60.793  47.906  50.592  0.00  0.00     0.100 A 
ATOM     24  N   UNL d   1      61.112  47.589  49.904  0.00  0.00    -0.242 NA
ATOM     25  C   UNL d   1      61.532  48.051  49.388  0.00  0.00     0.099 A 
ATOM     26  C   UNL d   1      61.644  48.855  49.550  0.00  0.00     0.021 A 
ATOM     27  C   UNL d   1      61.327  49.180  50.239  0.00  0.00     0.005 A 
ENDBRANCH   3  22
TORSDOF 6
ENDMDL
