MODEL 1
REMARK VINA RESULT:      23.6      0.000      0.000
REMARK  5 active torsions:
REMARK  status: ('A' for Active; 'I' for Inactive)
REMARK    1  A    between atoms: C_2  and  S_1 
REMARK    2  A    between atoms: C_12  and  S_1 
REMARK    3  A    between atoms: N_5  and  C_3 
REMARK    4  A    between atoms: C_18  and  N_7 
REMARK    5  A    between atoms: O_22  and  C_20 
ROOT
ATOM      1  C   UNL d   1     -42.077-123.046 -52.995  0.00  0.00     0.123 A 
ATOM      2  C   UNL d   1     -41.962-122.366 -53.452  0.00  0.00     0.078 A 
ATOM      3  C   UNL d   1     -41.986-122.414 -54.273  0.00  0.00     0.036 A 
ATOM      4  C   UNL d   1     -42.217-123.770 -53.363  0.00  0.00     0.112 A 
ATOM      5  N   UNL d   1     -42.241-123.815 -54.189  0.00  0.00    -0.243 NA
ATOM      6  C   UNL d   1     -42.126-123.139 -54.642  0.00  0.00     0.083 A 
ATOM      7  C   UNL d   1     -41.871-121.735 -54.727  0.00  0.00     0.027 A 
ATOM      8  C   UNL d   1     -42.150-123.185 -55.463  0.00  0.00     0.021 A 
ATOM      9  C   UNL d   1     -41.895-121.780 -55.556  0.00  0.00     0.094 A 
ATOM     10  C   UNL d   1     -42.034-122.504 -55.925  0.00  0.00     0.026 A 
ENDROOT
BRANCH   2  11
ATOM     11  N   UNL d   1     -41.821-121.634 -53.080  0.00  0.00    -0.301 N 
ATOM     12  C   UNL d   1     -41.259-121.582 -52.471  0.00  0.00     0.100 A 
ATOM     13  C   UNL d   1     -41.125-120.849 -52.106  0.00  0.00     0.100 A 
ATOM     14  N   UNL d   1     -41.544-120.178 -52.344  0.00  0.00    -0.301 N 
ATOM     15  C   UNL d   1     -42.107-120.234 -52.955  0.00  0.00     0.100 A 
ATOM     16  C   UNL d   1     -42.241-120.963 -53.319  0.00  0.00     0.100 A 
BRANCH  14  17
ATOM     17  C   UNL d   1     -41.405-119.453 -51.976  0.00  0.00     0.064 A 
ATOM     18  C   UNL d   1     -41.276-118.774 -52.437  0.00  0.00     0.018 A 
ATOM     19  C   UNL d   1     -41.136-118.047 -52.072  0.00  0.00     0.002 A 
ATOM     20  C   UNL d   1     -41.125-117.998 -51.251  0.00  0.00     0.000 A 
ATOM     21  C   UNL d   1     -41.253-118.675 -50.793  0.00  0.00     0.002 A 
ATOM     22  C   UNL d   1     -41.392-119.400 -51.162  0.00  0.00     0.018 A 
ENDBRANCH  14  17
ENDBRANCH   2  11
BRANCH   1  23
ATOM     23  S   UNL d   1     -42.054-123.001 -52.166  0.00  0.00     0.213 S 
ATOM     24  O   UNL d   1     -42.843-122.752 -52.156  0.00  0.00    -0.217 OA
ATOM     25  O   UNL d   1     -41.258-123.252 -52.172  0.00  0.00    -0.217 OA
BRANCH  23  26
ATOM     26  C   UNL d   1     -42.029-122.957 -51.341  0.00  0.00     0.088 A 
ATOM     27  C   UNL d   1     -41.377-123.244 -50.925  0.00  0.00     0.011 A 
ATOM     28  C   UNL d   1     -41.350-123.201 -50.104  0.00  0.00     0.001 A 
ATOM     29  C   UNL d   1     -41.985-122.866 -49.679  0.00  0.00     0.000 A 
ATOM     30  C   UNL d   1     -42.641-122.577 -50.096  0.00  0.00     0.001 A 
ATOM     31  C   UNL d   1     -42.659-122.625 -50.927  0.00  0.00     0.011 A 
ENDBRANCH  23  26
ENDBRANCH   1  23
BRANCH   9  32
ATOM     32  O   UNL d   1     -41.778-121.095 -56.005  0.00  0.00    -0.328 OA
ATOM     33  C   UNL d   1     -41.757-121.148 -56.831  0.00  0.00     0.181 C 
ENDBRANCH   9  32
TORSDOF 5
ENDMDL
