MODEL 1
REMARK VINA RESULT:      -7.2      0.000      0.000
REMARK  4 active torsions:
REMARK  status: ('A' for Active; 'I' for Inactive)
REMARK    1  A    between atoms: N_10  and  C_3 
REMARK    2  A    between atoms: C_12  and  C_5 
REMARK    3  A    between atoms: C_15  and  C_9 
REMARK    4  A    between atoms: C_19  and  N_11 
ROOT
ATOM      1  N   UNL d   1     -47.253  13.085  22.903  0.00  0.00    -0.196 N 
ATOM      2  C   UNL d   1     -47.991  13.452  22.805  0.00  0.00     0.167 A 
ATOM      3  C   UNL d   1     -47.218  12.273  22.958  0.00  0.00     0.152 A 
ATOM      4  N   UNL d   1     -46.619  14.355  22.886  0.00  0.00    -0.163 NA
ATOM      5  C   UNL d   1     -48.035  14.255  22.750  0.00  0.00     0.055 A 
ATOM      6  N   UNL d   1     -48.665  12.992  22.767  0.00  0.00    -0.227 NA
ATOM      7  C   UNL d   1     -47.920  11.807  22.916  0.00  0.00     0.057 A 
ATOM      8  C   UNL d   1     -47.356  14.722  22.789  0.00  0.00     0.104 A 
ATOM      9  C   UNL d   1     -48.623  12.185  22.822  0.00  0.00     0.086 A 
ATOM     10  C   UNL d   1     -47.402  15.521  22.734  0.00  0.00     0.023 C 
ENDROOT
BRANCH   3  11
ATOM     11  N   UNL d   1     -46.464  11.893  23.057  0.00  0.00    -0.286 N 
ATOM     12  C   UNL d   1     -45.747  12.158  22.686  0.00  0.00     0.101 A 
ATOM     13  C   UNL d   1     -45.024  11.744  22.818  0.00  0.00     0.100 A 
ATOM     14  N   UNL d   1     -45.006  11.060  23.324  0.00  0.00    -0.300 N 
ATOM     15  C   UNL d   1     -45.729  10.795  23.698  0.00  0.00     0.100 A 
ATOM     16  C   UNL d   1     -46.452  11.208  23.566  0.00  0.00     0.101 A 
BRANCH  14  17
ATOM     17  C   UNL d   1     -44.280  10.645  23.457  0.00  0.00     0.080 C 
ATOM     18  C   UNL d   1     -44.291   9.840  23.698  0.00  0.00     0.021 C 
ENDBRANCH  14  17
ENDBRANCH   3  11
BRANCH   9  19
ATOM     19  C   UNL d   1     -49.336  11.706  22.780  0.00  0.00     0.018 C 
ATOM     20  C   UNL d   1     -49.733  11.478  23.511  0.00  0.00     0.002 C 
ATOM     21  C   UNL d   1     -49.648  11.460  22.021  0.00  0.00     0.002 C 
ENDBRANCH   9  19
BRANCH   5  22
ATOM     22  C   UNL d   1     -48.779  14.625  22.652  0.00  0.00     0.004 A 
ATOM     23  C   UNL d   1     -49.182  14.905  23.304  0.00  0.00     0.000 A 
ATOM     24  C   UNL d   1     -49.916  15.270  23.207  0.00  0.00     0.000 A 
ATOM     25  C   UNL d   1     -50.230  15.347  22.460  0.00  0.00     0.000 A 
ATOM     26  C   UNL d   1     -49.819  15.062  21.805  0.00  0.00     0.000 A 
ATOM     27  C   UNL d   1     -49.098  14.705  21.909  0.00  0.00     0.000 A 
ENDBRANCH   5  22
TORSDOF 4
ENDMDL
MODEL 2
REMARK VINA RESULT:      -6.4      0.986      2.365
REMARK  4 active torsions:
REMARK  status: ('A' for Active; 'I' for Inactive)
REMARK    1  A    between atoms: N_10  and  C_3 
REMARK    2  A    between atoms: C_12  and  C_5 
REMARK    3  A    between atoms: C_15  and  C_9 
REMARK    4  A    between atoms: C_19  and  N_11 
ROOT
ATOM      1  N   UNL d   1     -47.838  12.246  23.187  0.00  0.00    -0.196 N 
ATOM      2  C   UNL d   1     -48.458  12.784  23.071  0.00  0.00     0.167 A 
ATOM      3  C   UNL d   1     -47.072  12.487  23.048  0.00  0.00     0.152 A 
ATOM      4  N   UNL d   1     -48.774  11.250  23.573  0.00  0.00    -0.163 NA
ATOM      5  C   UNL d   1     -49.218  12.554  23.206  0.00  0.00     0.055 A 
ATOM      6  N   UNL d   1     -48.288  13.543  22.822  0.00  0.00    -0.227 NA
ATOM      7  C   UNL d   1     -46.907  13.272  22.791  0.00  0.00     0.057 A 
ATOM      8  C   UNL d   1     -49.394  11.789  23.458  0.00  0.00     0.104 A 
ATOM      9  C   UNL d   1     -47.524  13.776  22.686  0.00  0.00     0.086 A 
ATOM     10  C   UNL d   1     -50.152  11.562  23.591  0.00  0.00     0.023 C 
ENDROOT
BRANCH   3  11
ATOM     11  N   UNL d   1     -46.433  11.938  23.165  0.00  0.00    -0.286 N 
ATOM     12  C   UNL d   1     -46.503  11.217  23.611  0.00  0.00     0.101 A 
ATOM     13  C   UNL d   1     -45.838  10.706  23.697  0.00  0.00     0.100 A 
ATOM     14  N   UNL d   1     -45.093  10.907  23.338  0.00  0.00    -0.300 N 
ATOM     15  C   UNL d   1     -45.023  11.632  22.889  0.00  0.00     0.100 A 
ATOM     16  C   UNL d   1     -45.689  12.144  22.803  0.00  0.00     0.101 A 
BRANCH  14  17
ATOM     17  C   UNL d   1     -44.424  10.393  23.424  0.00  0.00     0.080 C 
ATOM     18  C   UNL d   1     -43.647  10.689  23.306  0.00  0.00     0.021 C 
ENDBRANCH  14  17
ENDBRANCH   3  11
BRANCH   9  19
ATOM     19  C   UNL d   1     -47.352  14.576  22.424  0.00  0.00     0.018 C 
ATOM     20  C   UNL d   1     -46.877  15.092  22.927  0.00  0.00     0.002 C 
ATOM     21  C   UNL d   1     -47.648  14.858  21.671  0.00  0.00     0.002 C 
ENDBRANCH   9  19
BRANCH   5  22
ATOM     22  C   UNL d   1     -49.844  13.098  23.090  0.00  0.00     0.004 A 
ATOM     23  C   UNL d   1     -50.227  13.128  22.370  0.00  0.00     0.000 A 
ATOM     24  C   UNL d   1     -50.844  13.664  22.255  0.00  0.00     0.000 A 
ATOM     25  C   UNL d   1     -51.064  14.158  22.863  0.00  0.00     0.000 A 
ATOM     26  C   UNL d   1     -50.675  14.124  23.588  0.00  0.00     0.000 A 
ATOM     27  C   UNL d   1     -50.069  13.593  23.692  0.00  0.00     0.000 A 
ENDBRANCH   5  22
TORSDOF 4
ENDMDL
MODEL 3
REMARK VINA RESULT:      -4.7      6.740      8.930
REMARK  4 active torsions:
REMARK  status: ('A' for Active; 'I' for Inactive)
REMARK    1  A    between atoms: N_10  and  C_3 
REMARK    2  A    between atoms: C_12  and  C_5 
REMARK    3  A    between atoms: C_15  and  C_9 
REMARK    4  A    between atoms: C_19  and  N_11 
ROOT
ATOM      1  N   UNL d   1     -40.080  14.847  19.805  0.00  0.00    -0.196 N 
ATOM      2  C   UNL d   1     -39.985  14.599  20.591  0.00  0.00     0.167 A 
ATOM      3  C   UNL d   1     -40.799  14.734  19.437  0.00  0.00     0.152 A 
ATOM      4  N   UNL d   1     -38.737  15.309  19.789  0.00  0.00    -0.163 NA
ATOM      5  C   UNL d   1     -39.279  14.707  20.963  0.00  0.00     0.055 A 
ATOM      6  N   UNL d   1     -40.613  14.248  20.979  0.00  0.00    -0.227 NA
ATOM      7  C   UNL d   1     -41.440  14.371  19.846  0.00  0.00     0.057 A 
ATOM      8  C   UNL d   1     -38.643  15.061  20.575  0.00  0.00     0.104 A 
ATOM      9  C   UNL d   1     -41.325  14.139  20.607  0.00  0.00     0.086 A 
ATOM     10  C   UNL d   1     -37.940  15.167  20.947  0.00  0.00     0.023 C 
ENDROOT
BRANCH   3  11
ATOM     11  N   UNL d   1     -40.899  14.987  18.632  0.00  0.00    -0.286 N 
ATOM     12  C   UNL d   1     -41.278  15.715  18.407  0.00  0.00     0.101 A 
ATOM     13  C   UNL d   1     -41.352  15.919  17.592  0.00  0.00     0.100 A 
ATOM     14  N   UNL d   1     -41.050  15.400  16.989  0.00  0.00    -0.300 N 
ATOM     15  C   UNL d   1     -40.669  14.668  17.217  0.00  0.00     0.100 A 
ATOM     16  C   UNL d   1     -40.594  14.463  18.032  0.00  0.00     0.101 A 
BRANCH  14  17
ATOM     17  C   UNL d   1     -41.125  15.605  16.170  0.00  0.00     0.080 C 
ATOM     18  C   UNL d   1     -41.851  15.906  15.875  0.00  0.00     0.021 C 
ENDBRANCH  14  17
ENDBRANCH   3  11
BRANCH   9  19
ATOM     19  C   UNL d   1     -41.981  13.769  21.020  0.00  0.00     0.018 C 
ATOM     20  C   UNL d   1     -42.078  12.913  20.976  0.00  0.00     0.002 C 
ATOM     21  C   UNL d   1     -42.533  14.246  21.470  0.00  0.00     0.002 C 
ENDBRANCH   9  19
BRANCH   5  22
ATOM     22  C   UNL d   1     -39.183  14.456  21.756  0.00  0.00     0.004 A 
ATOM     23  C   UNL d   1     -39.331  14.977  22.366  0.00  0.00     0.000 A 
ATOM     24  C   UNL d   1     -39.237  14.730  23.148  0.00  0.00     0.000 A 
ATOM     25  C   UNL d   1     -38.997  13.968  23.302  0.00  0.00     0.000 A 
ATOM     26  C   UNL d   1     -38.849  13.446  22.682  0.00  0.00     0.000 A 
ATOM     27  C   UNL d   1     -38.944  13.697  21.916  0.00  0.00     0.000 A 
ENDBRANCH   5  22
TORSDOF 4
ENDMDL
MODEL 4
REMARK VINA RESULT:      -4.3      8.231      9.725
REMARK  4 active torsions:
REMARK  status: ('A' for Active; 'I' for Inactive)
REMARK    1  A    between atoms: N_10  and  C_3 
REMARK    2  A    between atoms: C_12  and  C_5 
REMARK    3  A    between atoms: C_15  and  C_9 
REMARK    4  A    between atoms: C_19  and  N_11 
ROOT
ATOM      1  N   UNL d   1     -40.007  14.995  19.253  0.00  0.00    -0.196 N 
ATOM      2  C   UNL d   1     -39.603  14.672  19.901  0.00  0.00     0.167 A 
ATOM      3  C   UNL d   1     -39.863  14.699  18.508  0.00  0.00     0.152 A 
ATOM      4  N   UNL d   1     -40.679  15.895  20.122  0.00  0.00    -0.163 NA
ATOM      5  C   UNL d   1     -39.739  14.958  20.642  0.00  0.00     0.055 A 
ATOM      6  N   UNL d   1     -39.070  14.064  19.779  0.00  0.00    -0.227 NA
ATOM      7  C   UNL d   1     -39.311  14.073  18.392  0.00  0.00     0.057 A 
ATOM      8  C   UNL d   1     -40.276  15.571  20.770  0.00  0.00     0.104 A 
ATOM      9  C   UNL d   1     -38.932  13.775  19.035  0.00  0.00     0.086 A 
ATOM     10  C   UNL d   1     -40.410  15.855  21.508  0.00  0.00     0.023 C 
ENDROOT
BRANCH   3  11
ATOM     11  N   UNL d   1     -40.275  15.029  17.841  0.00  0.00    -0.286 N 
ATOM     12  C   UNL d   1     -39.937  15.600  17.310  0.00  0.00     0.101 A 
ATOM     13  C   UNL d   1     -40.390  15.896  16.662  0.00  0.00     0.100 A 
ATOM     14  N   UNL d   1     -41.186  15.625  16.536  0.00  0.00    -0.300 N 
ATOM     15  C   UNL d   1     -41.525  15.049  17.071  0.00  0.00     0.100 A 
ATOM     16  C   UNL d   1     -41.073  14.753  17.719  0.00  0.00     0.101 A 
BRANCH  14  17
ATOM     17  C   UNL d   1     -41.641  15.921  15.885  0.00  0.00     0.080 C 
ATOM     18  C   UNL d   1     -42.435  15.668  15.774  0.00  0.00     0.021 C 
ENDBRANCH  14  17
ENDBRANCH   3  11
BRANCH   9  19
ATOM     19  C   UNL d   1     -38.371  13.136  18.912  0.00  0.00     0.018 C 
ATOM     20  C   UNL d   1     -38.242  12.835  18.114  0.00  0.00     0.002 C 
ATOM     21  C   UNL d   1     -37.944  12.801  19.576  0.00  0.00     0.002 C 
ENDBRANCH   9  19
BRANCH   5  22
ATOM     22  C   UNL d   1     -39.331  14.631  21.296  0.00  0.00     0.004 A 
ATOM     23  C   UNL d   1     -38.654  14.992  21.573  0.00  0.00     0.000 A 
ATOM     24  C   UNL d   1     -38.252  14.670  22.218  0.00  0.00     0.000 A 
ATOM     25  C   UNL d   1     -38.536  13.995  22.571  0.00  0.00     0.000 A 
ATOM     26  C   UNL d   1     -39.221  13.634  22.288  0.00  0.00     0.000 A 
ATOM     27  C   UNL d   1     -39.610  13.958  21.653  0.00  0.00     0.000 A 
ENDBRANCH   5  22
TORSDOF 4
ENDMDL
