MODEL 1
REMARK VINA RESULT:      11.4      0.000      0.000
REMARK  2 active torsions:
REMARK  status: ('A' for Active; 'I' for Inactive)
REMARK    1  A    between atoms: C_5  and  CA_2 
REMARK    2  A    between atoms: C_4  and  CA_3 
ROOT
ATOM      1  N   UNL d   1     -56.086-100.094 -44.315  0.00  0.00    -0.233 NA
ATOM      2  CA  UNL d   1     -55.294-100.321 -44.345  0.00  0.00     0.146 A 
ATOM      3  CA  UNL d   1     -56.304 -99.318 -44.471  0.00  0.00     0.146 A 
ATOM      4  C   UNL d   1     -55.721 -98.755 -44.660  0.00  0.00     0.025 A 
ATOM      5  C   UNL d   1     -54.711 -99.758 -44.534  0.00  0.00     0.025 A 
ATOM      6  C   UNL d   1     -54.926 -98.973 -44.692  0.00  0.00     0.004 A 
ENDROOT
BRANCH   2   7
ATOM      7  C   UNL d   1     -55.073-101.100 -44.189  0.00  0.00     0.229 C 
ATOM      8  O   UNL d   1     -54.737-101.301 -43.466  0.00  0.00    -0.643 OA
ATOM      9  OXT UNL d   1     -55.175-101.708 -44.737  0.00  0.00    -0.643 OA
ENDBRANCH   2   7
BRANCH   3  10
ATOM     10  C   UNL d   1     -57.093 -99.094 -44.441  0.00  0.00     0.229 C 
ATOM     11  O   UNL d   1     -57.543 -99.171 -43.760  0.00  0.00    -0.643 OA
ATOM     12  OXT UNL d   1     -57.482 -98.773 -45.110  0.00  0.00    -0.643 OA
ENDBRANCH   3  10
TORSDOF 2
ENDMDL
MODEL 2
REMARK VINA RESULT:      12.4      1.949      2.748
REMARK  2 active torsions:
REMARK  status: ('A' for Active; 'I' for Inactive)
REMARK    1  A    between atoms: C_5  and  CA_2 
REMARK    2  A    between atoms: C_4  and  CA_3 
ROOT
ATOM      1  N   UNL d   1     -57.761 -98.788 -43.779  0.00  0.00    -0.233 NA
ATOM      2  CA  UNL d   1     -57.147 -98.783 -44.330  0.00  0.00     0.146 A 
ATOM      3  CA  UNL d   1     -58.543 -98.777 -44.027  0.00  0.00     0.146 A 
ATOM      4  C   UNL d   1     -58.719 -98.762 -44.840  0.00  0.00     0.025 A 
ATOM      5  C   UNL d   1     -57.322 -98.768 -45.143  0.00  0.00     0.025 A 
ATOM      6  C   UNL d   1     -58.111 -98.757 -45.398  0.00  0.00     0.004 A 
ENDROOT
BRANCH   2   7
ATOM      7  C   UNL d   1     -56.361 -98.793 -44.082  0.00  0.00     0.229 C 
ATOM      8  O   UNL d   1     -55.750 -98.756 -44.633  0.00  0.00    -0.643 OA
ATOM      9  OXT UNL d   1     -56.146 -98.840 -43.287  0.00  0.00    -0.643 OA
ENDBRANCH   2   7
BRANCH   3  10
ATOM     10  C   UNL d   1     -59.153 -98.782 -43.478  0.00  0.00     0.229 C 
ATOM     11  O   UNL d   1     -59.942 -98.781 -43.700  0.00  0.00    -0.643 OA
ATOM     12  OXT UNL d   1     -58.999 -98.789 -42.654  0.00  0.00    -0.643 OA
ENDBRANCH   3  10
TORSDOF 2
ENDMDL
MODEL 3
REMARK VINA RESULT:      13.1      0.021      2.642
REMARK  2 active torsions:
REMARK  status: ('A' for Active; 'I' for Inactive)
REMARK    1  A    between atoms: C_5  and  CA_2 
REMARK    2  A    between atoms: C_4  and  CA_3 
ROOT
ATOM      1  N   UNL d   1     -56.085-100.096 -44.319  0.00  0.00    -0.233 NA
ATOM      2  CA  UNL d   1     -56.301 -99.315 -44.474  0.00  0.00     0.146 A 
ATOM      3  CA  UNL d   1     -55.298-100.325 -44.348  0.00  0.00     0.146 A 
ATOM      4  C   UNL d   1     -54.711 -99.766 -44.536  0.00  0.00     0.025 A 
ATOM      5  C   UNL d   1     -55.714 -98.756 -44.662  0.00  0.00     0.025 A 
ATOM      6  C   UNL d   1     -54.917 -98.982 -44.693  0.00  0.00     0.004 A 
ENDROOT
BRANCH   2   7
ATOM      7  C   UNL d   1     -57.091 -99.083 -44.446  0.00  0.00     0.229 C 
ATOM      8  O   UNL d   1     -57.455 -98.760 -45.109  0.00  0.00    -0.643 OA
ATOM      9  OXT UNL d   1     -57.552 -99.160 -43.766  0.00  0.00    -0.643 OA
ENDBRANCH   2   7
BRANCH   3  10
ATOM     10  C   UNL d   1     -55.086-101.103 -44.193  0.00  0.00     0.229 C 
ATOM     11  O   UNL d   1     -55.164-101.697 -44.752  0.00  0.00    -0.643 OA
ATOM     12  OXT UNL d   1     -54.776-101.332 -43.449  0.00  0.00    -0.643 OA
ENDBRANCH   3  10
TORSDOF 2
ENDMDL
