MODEL 1
REMARK VINA RESULT:      51.0      0.000      0.000
REMARK  12 active torsions:
REMARK  status: ('A' for Active; 'I' for Inactive)
REMARK    1  A    between atoms: C_23  and  N_1 
REMARK    2  A    between atoms: S_8  and  C_2 
REMARK    3  A    between atoms: C_7  and  C_11 
REMARK       I    between atoms: N_12  and  C_7 
REMARK    4  A    between atoms: C_24  and  S_8 
REMARK    5  A    between atoms: C_25  and  N_12 
REMARK    6  A    between atoms: C_13  and  C_25 
REMARK    7  A    between atoms: C_15  and  C_24 
REMARK    8  A    between atoms: O_26  and  C_15 
REMARK    9  A    between atoms: C_28  and  C_23 
REMARK   10  A    between atoms: C_27  and  O_26 
REMARK   11  A    between atoms: C_30  and  C_28 
REMARK   12  A    between atoms: C_29  and  C_30 
ROOT
ATOM      1  N   UNL d   1      14.609  15.731  -4.025  0.00  0.00    -0.253 N 
ATOM      2  C   UNL d   1      14.547  15.568  -3.227  0.00  0.00     0.182 A 
ATOM      3  C   UNL d   1      14.398  15.164  -4.582  0.00  0.00     0.268 A 
ATOM      4  N   UNL d   1      14.273  14.834  -2.987  0.00  0.00    -0.222 NA
ATOM      5  C   UNL d   1      14.125  14.433  -4.344  0.00  0.00     0.074 A 
ATOM      6  C   UNL d   1      14.060  14.260  -3.535  0.00  0.00     0.088 A 
ATOM      7  C   UNL d   1      13.783  13.519  -3.287  0.00  0.00     0.024 A 
ATOM      8  C   UNL d   1      13.911  13.856  -4.896  0.00  0.00     0.006 A 
ATOM      9  C   UNL d   1      13.571  12.950  -3.847  0.00  0.00     0.059 A 
ATOM     10  O   UNL d   1      14.464  15.337  -5.391  0.00  0.00    -0.267 OA
ATOM     11  C   UNL d   1      13.637  13.122  -4.655  0.00  0.00     0.005 A 
ENDROOT
BRANCH   9  12
ATOM     12  C   UNL d   1      13.294  12.206  -3.600  0.00  0.00     0.279 C 
ATOM     13  N   UNL d   1      13.543  11.909  -2.887  0.00  0.00    -0.204 NA
ATOM     14  O   UNL d   1      12.774  11.793  -4.086  0.00  0.00    -0.265 OA
BRANCH  13  15
ATOM     15  C   UNL d   1      14.063  12.336  -2.415  0.00  0.00     0.127 C 
BRANCH  15  16
ATOM     16  C   UNL d   1      14.153  12.140  -1.618  0.00  0.00     0.119 A 
ATOM     17  O   UNL d   1      13.630  12.072  -1.003  0.00  0.00    -0.304 OA
ATOM     18  C   UNL d   1      14.031  11.858  -0.320  0.00  0.00     0.123 A 
ATOM     19  C   UNL d   1      14.831  11.794  -0.534  0.00  0.00     0.029 A 
ATOM     20  C   UNL d   1      14.911  11.964  -1.322  0.00  0.00     0.028 A 
ENDBRANCH  15  16
ENDBRANCH  13  15
ENDBRANCH   9  12
BRANCH   2  21
ATOM     21  S   UNL d   1      14.758  16.138  -2.667  0.00  0.00    -0.044 SA
BRANCH  21  22
ATOM     22  C   UNL d   1      14.758  15.952  -1.869  0.00  0.00     0.107 C 
BRANCH  22  23
ATOM     23  C   UNL d   1      15.119  16.466  -1.332  0.00  0.00     0.307 C 
ATOM     24  O   UNL d   1      14.903  17.266  -1.302  0.00  0.00    -0.258 OA
BRANCH  23  25
ATOM     25  O   UNL d   1      15.703  16.169  -0.822  0.00  0.00    -0.271 OA
BRANCH  25  26
ATOM     26  C   UNL d   1      15.529  15.505  -0.363  0.00  0.00     0.126 C 
ATOM     27  C   UNL d   1      16.146  15.100  -0.019  0.00  0.00     0.029 C 
ENDBRANCH  25  26
ENDBRANCH  23  25
ENDBRANCH  22  23
ENDBRANCH  21  22
ENDBRANCH   2  21
BRANCH   1  28
ATOM     28  C   UNL d   1      14.889  16.481  -4.266  0.00  0.00     0.085 C 
BRANCH  28  29
ATOM     29  C   UNL d   1      14.362  17.056  -4.531  0.00  0.00     0.019 C 
BRANCH  29  30
ATOM     30  C   UNL d   1      14.478  17.443  -5.237  0.00  0.00     0.002 C 
BRANCH  30  31
ATOM     31  C   UNL d   1      13.952  18.019  -5.501  0.00  0.00     0.000 C 
ATOM     32  C   UNL d   1      13.993  18.303  -6.253  0.00  0.00     0.000 C 
ENDBRANCH  30  31
ENDBRANCH  29  30
ENDBRANCH  28  29
ENDBRANCH   1  28
TORSDOF 12
ENDMDL
MODEL 2
REMARK VINA RESULT:      51.5      1.391      4.073
REMARK  12 active torsions:
REMARK  status: ('A' for Active; 'I' for Inactive)
REMARK    1  A    between atoms: C_23  and  N_1 
REMARK    2  A    between atoms: S_8  and  C_2 
REMARK    3  A    between atoms: C_7  and  C_11 
REMARK       I    between atoms: N_12  and  C_7 
REMARK    4  A    between atoms: C_24  and  S_8 
REMARK    5  A    between atoms: C_25  and  N_12 
REMARK    6  A    between atoms: C_13  and  C_25 
REMARK    7  A    between atoms: C_15  and  C_24 
REMARK    8  A    between atoms: O_26  and  C_15 
REMARK    9  A    between atoms: C_28  and  C_23 
REMARK   10  A    between atoms: C_27  and  O_26 
REMARK   11  A    between atoms: C_30  and  C_28 
REMARK   12  A    between atoms: C_29  and  C_30 
ROOT
ATOM      1  N   UNL d   1      13.238  13.213  -3.638  0.00  0.00    -0.253 N 
ATOM      2  C   UNL d   1      13.597  13.315  -2.912  0.00  0.00     0.182 A 
ATOM      3  C   UNL d   1      13.295  13.794  -4.216  0.00  0.00     0.268 A 
ATOM      4  N   UNL d   1      14.017  14.004  -2.766  0.00  0.00    -0.222 NA
ATOM      5  C   UNL d   1      13.712  14.480  -4.072  0.00  0.00     0.074 A 
ATOM      6  C   UNL d   1      14.080  14.592  -3.337  0.00  0.00     0.088 A 
ATOM      7  C   UNL d   1      14.506  15.287  -3.184  0.00  0.00     0.024 A 
ATOM      8  C   UNL d   1      13.776  15.071  -4.646  0.00  0.00     0.006 A 
ATOM      9  C   UNL d   1      14.563  15.871  -3.765  0.00  0.00     0.059 A 
ATOM     10  O   UNL d   1      12.926  13.682  -4.951  0.00  0.00    -0.267 OA
ATOM     11  C   UNL d   1      14.195  15.760  -4.500  0.00  0.00     0.005 A 
ENDROOT
BRANCH   9  12
ATOM     12  C   UNL d   1      14.989  16.569  -3.614  0.00  0.00     0.279 C 
ATOM     13  N   UNL d   1      15.101  16.803  -2.845  0.00  0.00    -0.204 NA
ATOM     14  O   UNL d   1      15.284  17.001  -4.249  0.00  0.00    -0.265 OA
BRANCH  13  15
ATOM     15  C   UNL d   1      14.799  16.358  -2.224  0.00  0.00     0.127 C 
BRANCH  15  16
ATOM     16  C   UNL d   1      14.985  16.557  -1.444  0.00  0.00     0.119 A 
ATOM     17  O   UNL d   1      14.688  17.109  -0.930  0.00  0.00    -0.304 OA
ATOM     18  C   UNL d   1      15.087  17.062  -0.214  0.00  0.00     0.123 A 
ATOM     19  C   UNL d   1      15.647  16.456  -0.302  0.00  0.00     0.029 A 
ATOM     20  C   UNL d   1      15.589  16.145  -1.049  0.00  0.00     0.028 A 
ENDBRANCH  15  16
ENDBRANCH  13  15
ENDBRANCH   9  12
BRANCH   2  21
ATOM     21  S   UNL d   1      13.540  12.731  -2.331  0.00  0.00    -0.044 SA
BRANCH  21  22
ATOM     22  C   UNL d   1      14.182  12.564  -1.849  0.00  0.00     0.107 C 
BRANCH  22  23
ATOM     23  C   UNL d   1      14.068  12.122  -1.161  0.00  0.00     0.307 C 
ATOM     24  O   UNL d   1      13.330  11.779  -0.995  0.00  0.00    -0.258 OA
BRANCH  23  25
ATOM     25  O   UNL d   1      14.703  12.023  -0.636  0.00  0.00    -0.271 OA
BRANCH  25  26
ATOM     26  C   UNL d   1      14.830  12.596  -0.054  0.00  0.00     0.126 C 
ATOM     27  C   UNL d   1      15.491  13.068  -0.113  0.00  0.00     0.029 C 
ENDBRANCH  25  26
ENDBRANCH  23  25
ENDBRANCH  22  23
ENDBRANCH  21  22
ENDBRANCH   2  21
BRANCH   1  28
ATOM     28  C   UNL d   1      12.811  12.509  -3.783  0.00  0.00     0.085 C 
BRANCH  28  29
ATOM     29  C   UNL d   1      13.119  11.931  -4.284  0.00  0.00     0.019 C 
BRANCH  29  30
ATOM     30  C   UNL d   1      13.050  11.992  -5.093  0.00  0.00     0.002 C 
BRANCH  30  31
ATOM     31  C   UNL d   1      13.681  11.813  -5.590  0.00  0.00     0.000 C 
ATOM     32  C   UNL d   1      13.583  11.784  -6.388  0.00  0.00     0.000 C 
ENDBRANCH  30  31
ENDBRANCH  29  30
ENDBRANCH  28  29
ENDBRANCH   1  28
TORSDOF 12
ENDMDL
