MODEL 1
REMARK VINA RESULT:      -2.6      0.000      0.000
REMARK  9 active torsions:
REMARK  status: ('A' for Active; 'I' for Inactive)
REMARK    1  A    between atoms: C_8  and  S_1 
REMARK    2  A    between atoms: C_2  and  N_3 
REMARK    3  A    between atoms: N_4  and  C_2 
REMARK    4  A    between atoms: C_6  and  C_2 
REMARK    5  A    between atoms: N_3  and  C_5 
REMARK       I    between atoms: C_7  and  N_4 
REMARK    6  A    between atoms: C_5  and  N_9 
REMARK    7  A    between atoms: C_13  and  C_7 
REMARK    8  A    between atoms: N_9  and  C_23 
REMARK    9  A    between atoms: O_29  and  C_24 
ROOT
ATOM      1  C   UNL d   1      32.161  17.064 -23.366  0.00  0.00     0.238 C 
ENDROOT
BRANCH   1   2
ATOM      2  N   UNL d   1      32.269  17.846 -23.093  0.00  0.00    -0.188 NA
BRANCH   2   3
ATOM      3  C   UNL d   1      32.868  18.415 -23.114  0.00  0.00     0.223 C 
ATOM      4  S   UNL d   1      33.121  18.712 -23.804  0.00  0.00    -0.037 SA
BRANCH   3   5
ATOM      5  N   UNL d   1      33.185  18.654 -22.395  0.00  0.00    -0.217 NA
BRANCH   5   6
ATOM      6  C   UNL d   1      33.114  19.430 -22.132  0.00  0.00     0.084 A 
ATOM      7  C   UNL d   1      33.240  19.633 -21.351  0.00  0.00     0.020 A 
ATOM      8  C   UNL d   1      33.171  20.401 -21.079  0.00  0.00     0.015 A 
ATOM      9  C   UNL d   1      32.968  20.993 -21.610  0.00  0.00     0.107 A 
ATOM     10  C   UNL d   1      32.833  20.823 -22.410  0.00  0.00     0.015 A 
ATOM     11  C   UNL d   1      32.909  20.040 -22.655  0.00  0.00     0.020 A 
BRANCH   9  12
ATOM     12  S   UNL d   1      32.896  21.784 -21.340  0.00  0.00     0.302 S 
ATOM     13  O   UNL d   1      33.060  21.533 -20.569  0.00  0.00    -0.197 OA
ATOM     14  O   UNL d   1      32.732  22.024 -22.120  0.00  0.00    -0.197 OA
ATOM     15  N   UNL d   1      32.823  22.567 -21.079  0.00  0.00    -0.043 N 
ENDBRANCH   9  12
ENDBRANCH   5   6
ENDBRANCH   3   5
ENDBRANCH   2   3
ENDBRANCH   1   2
BRANCH   1  16
ATOM     16  N   UNL d   1      31.660  16.929 -23.729  0.00  0.00    -0.346 NA
ATOM     17  C   UNL d   1      31.090  16.726 -24.316  0.00  0.00     0.329 C 
ATOM     18  O   UNL d   1      31.358  16.525 -25.097  0.00  0.00    -0.251 OA
BRANCH  17  19
ATOM     19  C   UNL d   1      30.311  16.729 -24.117  0.00  0.00     0.071 A 
ATOM     20  C   UNL d   1      29.774  17.274 -24.547  0.00  0.00     0.008 A 
ATOM     21  C   UNL d   1      28.963  17.295 -24.357  0.00  0.00     0.024 A 
ATOM     22  C   UNL d   1      28.662  16.795 -23.755  0.00  0.00     0.094 A 
ATOM     23  C   UNL d   1      29.192  16.302 -23.377  0.00  0.00     0.024 A 
ATOM     24  C   UNL d   1      30.012  16.266 -23.553  0.00  0.00     0.008 A 
BRANCH  22  25
ATOM     25  O   UNL d   1      27.843  16.838 -23.587  0.00  0.00    -0.328 OA
ATOM     26  C   UNL d   1      27.457  16.214 -23.179  0.00  0.00     0.181 C 
ENDBRANCH  22  25
ENDBRANCH  17  19
ENDBRANCH   1  16
BRANCH   1  27
ATOM     27  C   UNL d   1      32.702  16.487 -23.162  0.00  0.00     0.262 C 
ATOM     28 CL   UNL d   1      33.241  15.909 -22.954  0.00  0.00    -0.074 Cl
ATOM     29 CL   UNL d   1      33.160  16.670 -23.854  0.00  0.00    -0.074 Cl
ATOM     30 CL   UNL d   1      32.254  16.312 -22.489  0.00  0.00    -0.074 Cl
ENDBRANCH   1  27
TORSDOF 9
ENDMDL
