MODEL 1
REMARK VINA RESULT:     -10.0      0.000      0.000
REMARK  2 active torsions:
REMARK  status: ('A' for Active; 'I' for Inactive)
REMARK    1  A    between atoms: C_9  and  C_1 
REMARK    2  A    between atoms: C_18  and  N_6 
ROOT
ATOM      1  C   UNL d   1      52.928  34.002  53.570  0.00  0.00     0.121 A 
ATOM      2  C   UNL d   1      52.882  32.590  53.325  0.00  0.00     0.057 A 
ATOM      3  C   UNL d   1      52.595  33.354  53.164  0.00  0.00     0.204 A 
ATOM      4  C   UNL d   1      53.489  32.465  53.878  0.00  0.00     0.069 A 
ATOM      5  C   UNL d   1      53.536  33.886  54.124  0.00  0.00     0.089 A 
ATOM      6  N   UNL d   1      53.814  33.117  54.276  0.00  0.00    -0.303 N 
ATOM      7  C   UNL d   1      53.761  31.710  54.025  0.00  0.00     0.044 A 
ATOM      8  C   UNL d   1      52.557  31.940  52.927  0.00  0.00     0.031 A 
ATOM      9  C   UNL d   1      53.438  31.067  53.630  0.00  0.00     0.121 A 
ATOM     10  C   UNL d   1      52.835  31.182  53.081  0.00  0.00     0.119 A 
ATOM     11  O   UNL d   1      53.601  30.265  53.669  0.00  0.00    -0.299 OA
ATOM     12  O   UNL d   1      52.627  30.451  52.781  0.00  0.00    -0.300 OA
ATOM     13  O   UNL d   1      51.992  33.469  52.615  0.00  0.00    -0.286 OA
ATOM     14  C   UNL d   1      53.095  29.884  53.139  0.00  0.00     0.304 A 
ENDROOT
BRANCH   1  15
ATOM     15  C   UNL d   1      52.650  34.764  53.417  0.00  0.00     0.215 C 
ATOM     16  O   UNL d   1      52.086  35.102  53.912  0.00  0.00    -0.644 OA
ATOM     17  O   UNL d   1      52.936  35.184  52.771  0.00  0.00    -0.644 OA
ENDBRANCH   1  15
BRANCH   6  18
ATOM     18  C   UNL d   1      54.416  33.002  54.825  0.00  0.00     0.080 C 
ATOM     19  C   UNL d   1      54.856  33.651  55.094  0.00  0.00     0.021 C 
ENDBRANCH   6  18
TORSDOF 2
ENDMDL
MODEL 2
REMARK VINA RESULT:      -9.9      1.194      1.942
REMARK  2 active torsions:
REMARK  status: ('A' for Active; 'I' for Inactive)
REMARK    1  A    between atoms: C_9  and  C_1 
REMARK    2  A    between atoms: C_18  and  N_6 
ROOT
ATOM      1  C   UNL d   1      53.455  33.887  54.435  0.00  0.00     0.121 A 
ATOM      2  C   UNL d   1      53.439  32.517  54.014  0.00  0.00     0.057 A 
ATOM      3  C   UNL d   1      53.731  33.104  54.525  0.00  0.00     0.204 A 
ATOM      4  C   UNL d   1      52.883  32.696  53.423  0.00  0.00     0.069 A 
ATOM      5  C   UNL d   1      52.899  34.075  53.847  0.00  0.00     0.089 A 
ATOM      6  N   UNL d   1      52.616  33.477  53.343  0.00  0.00    -0.303 N 
ATOM      7  C   UNL d   1      52.605  32.108  52.929  0.00  0.00     0.044 A 
ATOM      8  C   UNL d   1      53.706  31.737  54.095  0.00  0.00     0.031 A 
ATOM      9  C   UNL d   1      52.872  31.336  53.011  0.00  0.00     0.121 A 
ATOM     10  C   UNL d   1      53.423  31.150  53.594  0.00  0.00     0.119 A 
ATOM     11  O   UNL d   1      52.691  30.650  52.600  0.00  0.00    -0.299 OA
ATOM     12  O   UNL d   1      53.581  30.350  53.543  0.00  0.00    -0.300 OA
ATOM     13  O   UNL d   1      54.281  32.919  55.108  0.00  0.00    -0.286 OA
ATOM     14  C   UNL d   1      53.133  30.038  52.933  0.00  0.00     0.304 A 
ENDROOT
BRANCH   1  15
ATOM     15  C   UNL d   1      53.739  34.478  54.937  0.00  0.00     0.215 C 
ATOM     16  O   UNL d   1      53.275  34.744  55.563  0.00  0.00    -0.644 OA
ATOM     17  O   UNL d   1      54.485  34.799  54.812  0.00  0.00    -0.644 OA
ENDBRANCH   1  15
BRANCH   6  18
ATOM     18  C   UNL d   1      52.065  33.663  52.760  0.00  0.00     0.080 C 
ATOM     19  C   UNL d   1      51.669  34.390  52.786  0.00  0.00     0.021 C 
ENDBRANCH   6  18
TORSDOF 2
ENDMDL
MODEL 3
REMARK VINA RESULT:      -9.7      1.488      2.747
REMARK  2 active torsions:
REMARK  status: ('A' for Active; 'I' for Inactive)
REMARK    1  A    between atoms: C_9  and  C_1 
REMARK    2  A    between atoms: C_18  and  N_6 
ROOT
ATOM      1  C   UNL d   1      51.880  33.639  52.983  0.00  0.00     0.121 A 
ATOM      2  C   UNL d   1      52.986  33.850  53.870  0.00  0.00     0.057 A 
ATOM      3  C   UNL d   1      52.317  34.149  53.479  0.00  0.00     0.204 A 
ATOM      4  C   UNL d   1      53.225  33.060  53.776  0.00  0.00     0.069 A 
ATOM      5  C   UNL d   1      52.111  32.847  52.884  0.00  0.00     0.089 A 
ATOM      6  N   UNL d   1      52.784  32.561  53.282  0.00  0.00    -0.303 N 
ATOM      7  C   UNL d   1      53.884  32.780  54.168  0.00  0.00     0.044 A 
ATOM      8  C   UNL d   1      53.427  34.349  54.365  0.00  0.00     0.031 A 
ATOM      9  C   UNL d   1      54.319  33.277  54.657  0.00  0.00     0.121 A 
ATOM     10  C   UNL d   1      54.090  34.061  54.755  0.00  0.00     0.119 A 
ATOM     11  O   UNL d   1      54.991  33.146  55.107  0.00  0.00    -0.299 OA
ATOM     12  O   UNL d   1      54.621  34.414  55.267  0.00  0.00    -0.300 OA
ATOM     13  O   UNL d   1      52.088  34.933  53.577  0.00  0.00    -0.286 OA
ATOM     14  C   UNL d   1      55.176  33.855  55.486  0.00  0.00     0.304 A 
ENDROOT
BRANCH   1  15
ATOM     15  C   UNL d   1      51.214  33.926  52.590  0.00  0.00     0.215 C 
ATOM     16  O   UNL d   1      50.477  33.897  52.955  0.00  0.00    -0.644 OA
ATOM     17  O   UNL d   1      51.287  34.240  51.834  0.00  0.00    -0.644 OA
ENDBRANCH   1  15
BRANCH   6  18
ATOM     18  C   UNL d   1      53.013  31.776  53.183  0.00  0.00     0.080 C 
ATOM     19  C   UNL d   1      52.491  31.237  52.829  0.00  0.00     0.021 C 
ENDBRANCH   6  18
TORSDOF 2
ENDMDL
MODEL 4
REMARK VINA RESULT:      -9.6      1.324      3.378
REMARK  2 active torsions:
REMARK  status: ('A' for Active; 'I' for Inactive)
REMARK    1  A    between atoms: C_9  and  C_1 
REMARK    2  A    between atoms: C_18  and  N_6 
ROOT
ATOM      1  C   UNL d   1      52.820  31.579  53.179  0.00  0.00     0.121 A 
ATOM      2  C   UNL d   1      53.673  32.403  53.985  0.00  0.00     0.057 A 
ATOM      3  C   UNL d   1      53.512  31.665  53.638  0.00  0.00     0.204 A 
ATOM      4  C   UNL d   1      53.161  33.049  53.883  0.00  0.00     0.069 A 
ATOM      5  C   UNL d   1      52.302  32.220  53.072  0.00  0.00     0.089 A 
ATOM      6  N   UNL d   1      52.476  32.953  53.425  0.00  0.00    -0.303 N 
ATOM      7  C   UNL d   1      53.332  33.768  54.230  0.00  0.00     0.044 A 
ATOM      8  C   UNL d   1      54.358  32.498  54.442  0.00  0.00     0.031 A 
ATOM      9  C   UNL d   1      54.011  33.859  54.683  0.00  0.00     0.121 A 
ATOM     10  C   UNL d   1      54.524  33.224  54.789  0.00  0.00     0.119 A 
ATOM     11  O   UNL d   1      54.313  34.505  55.087  0.00  0.00    -0.299 OA
ATOM     12  O   UNL d   1      55.143  33.478  55.258  0.00  0.00    -0.300 OA
ATOM     13  O   UNL d   1      54.024  31.030  53.744  0.00  0.00    -0.286 OA
ATOM     14  C   UNL d   1      55.018  34.265  55.444  0.00  0.00     0.304 A 
ENDROOT
BRANCH   1  15
ATOM     15  C   UNL d   1      52.651  30.851  52.830  0.00  0.00     0.215 C 
ATOM     16  O   UNL d   1      52.209  30.291  53.241  0.00  0.00    -0.644 OA
ATOM     17  O   UNL d   1      52.924  30.685  52.073  0.00  0.00    -0.644 OA
ENDBRANCH   1  15
BRANCH   6  18
ATOM     18  C   UNL d   1      51.963  33.588  53.319  0.00  0.00     0.080 C 
ATOM     19  C   UNL d   1      51.177  33.449  53.095  0.00  0.00     0.021 C 
ENDBRANCH   6  18
TORSDOF 2
ENDMDL
MODEL 5
REMARK VINA RESULT:      -9.5      1.514      3.045
REMARK  2 active torsions:
REMARK  status: ('A' for Active; 'I' for Inactive)
REMARK    1  A    between atoms: C_9  and  C_1 
REMARK    2  A    between atoms: C_18  and  N_6 
ROOT
ATOM      1  C   UNL d   1      54.133  33.317  54.553  0.00  0.00     0.121 A 
ATOM      2  C   UNL d   1      52.931  33.810  53.945  0.00  0.00     0.057 A 
ATOM      3  C   UNL d   1      53.587  33.938  54.439  0.00  0.00     0.204 A 
ATOM      4  C   UNL d   1      52.813  33.080  53.566  0.00  0.00     0.069 A 
ATOM      5  C   UNL d   1      54.022  32.584  54.178  0.00  0.00     0.089 A 
ATOM      6  N   UNL d   1      53.361  32.469  53.686  0.00  0.00    -0.303 N 
ATOM      7  C   UNL d   1      52.164  32.968  53.084  0.00  0.00     0.044 A 
ATOM      8  C   UNL d   1      52.384  34.421  53.825  0.00  0.00     0.031 A 
ATOM      9  C   UNL d   1      51.623  33.575  52.967  0.00  0.00     0.121 A 
ATOM     10  C   UNL d   1      51.733  34.301  53.338  0.00  0.00     0.119 A 
ATOM     11  O   UNL d   1      50.937  33.615  52.521  0.00  0.00    -0.299 OA
ATOM     12  O   UNL d   1      51.115  34.789  53.121  0.00  0.00    -0.300 OA
ATOM     13  O   UNL d   1      53.697  34.665  54.810  0.00  0.00    -0.286 OA
ATOM     14  C   UNL d   1      50.622  34.372  52.619  0.00  0.00     0.304 A 
ENDROOT
BRANCH   1  15
ATOM     15  C   UNL d   1      54.787  33.435  55.042  0.00  0.00     0.215 C 
ATOM     16  O   UNL d   1      55.487  33.733  54.727  0.00  0.00    -0.644 OA
ATOM     17  O   UNL d   1      54.739  33.255  55.842  0.00  0.00    -0.644 OA
ENDBRANCH   1  15
BRANCH   6  18
ATOM     18  C   UNL d   1      53.250  31.742  53.315  0.00  0.00     0.080 C 
ATOM     19  C   UNL d   1      53.647  31.072  53.599  0.00  0.00     0.021 C 
ENDBRANCH   6  18
TORSDOF 2
ENDMDL
MODEL 6
REMARK VINA RESULT:      -9.0      0.771      3.083
REMARK  2 active torsions:
REMARK  status: ('A' for Active; 'I' for Inactive)
REMARK    1  A    between atoms: C_9  and  C_1 
REMARK    2  A    between atoms: C_18  and  N_6 
ROOT
ATOM      1  C   UNL d   1      53.474  31.452  53.635  0.00  0.00     0.121 A 
ATOM      2  C   UNL d   1      52.590  32.496  53.202  0.00  0.00     0.057 A 
ATOM      3  C   UNL d   1      52.852  31.709  53.140  0.00  0.00     0.204 A 
ATOM      4  C   UNL d   1      52.935  33.024  53.743  0.00  0.00     0.069 A 
ATOM      5  C   UNL d   1      53.824  31.974  54.178  0.00  0.00     0.089 A 
ATOM      6  N   UNL d   1      53.552  32.759  54.230  0.00  0.00    -0.303 N 
ATOM      7  C   UNL d   1      52.668  33.794  53.793  0.00  0.00     0.044 A 
ATOM      8  C   UNL d   1      51.974  32.760  52.715  0.00  0.00     0.031 A 
ATOM      9  C   UNL d   1      52.057  34.053  53.309  0.00  0.00     0.121 A 
ATOM     10  C   UNL d   1      51.710  33.536  52.771  0.00  0.00     0.119 A 
ATOM     11  O   UNL d   1      51.686  34.781  53.243  0.00  0.00    -0.299 OA
ATOM     12  O   UNL d   1      51.125  33.946  52.372  0.00  0.00    -0.300 OA
ATOM     13  O   UNL d   1      52.505  31.192  52.602  0.00  0.00    -0.286 OA
ATOM     14  C   UNL d   1      51.107  34.711  52.659  0.00  0.00     0.304 A 
ENDROOT
BRANCH   1  15
ATOM     15  C   UNL d   1      53.740  30.673  53.581  0.00  0.00     0.215 C 
ATOM     16  O   UNL d   1      53.376  30.082  54.023  0.00  0.00    -0.644 OA
ATOM     17  O   UNL d   1      54.370  30.488  53.086  0.00  0.00    -0.644 OA
ENDBRANCH   1  15
BRANCH   6  18
ATOM     18  C   UNL d   1      53.899  33.275  54.769  0.00  0.00     0.080 C 
ATOM     19  C   UNL d   1      54.462  32.991  55.306  0.00  0.00     0.021 C 
ENDBRANCH   6  18
TORSDOF 2
ENDMDL
MODEL 7
REMARK VINA RESULT:      -7.8      1.064      1.406
REMARK  2 active torsions:
REMARK  status: ('A' for Active; 'I' for Inactive)
REMARK    1  A    between atoms: C_9  and  C_1 
REMARK    2  A    between atoms: C_18  and  N_6 
ROOT
ATOM      1  C   UNL d   1      51.666  33.898  52.918  0.00  0.00     0.121 A 
ATOM      2  C   UNL d   1      52.347  32.647  53.080  0.00  0.00     0.057 A 
ATOM      3  C   UNL d   1      51.720  33.082  52.751  0.00  0.00     0.204 A 
ATOM      4  C   UNL d   1      52.915  33.009  53.567  0.00  0.00     0.069 A 
ATOM      5  C   UNL d   1      52.230  34.268  53.403  0.00  0.00     0.089 A 
ATOM      6  N   UNL d   1      52.853  33.820  53.726  0.00  0.00    -0.303 N 
ATOM      7  C   UNL d   1      53.526  32.568  53.883  0.00  0.00     0.044 A 
ATOM      8  C   UNL d   1      52.409  31.836  52.921  0.00  0.00     0.031 A 
ATOM      9  C   UNL d   1      53.585  31.765  53.723  0.00  0.00     0.121 A 
ATOM     10  C   UNL d   1      53.026  31.399  53.242  0.00  0.00     0.119 A 
ATOM     11  O   UNL d   1      54.129  31.201  53.962  0.00  0.00    -0.299 OA
ATOM     12  O   UNL d   1      53.226  30.608  53.184  0.00  0.00    -0.300 OA
ATOM     13  O   UNL d   1      51.162  32.715  52.270  0.00  0.00    -0.286 OA
ATOM     14  C   UNL d   1      53.904  30.482  53.625  0.00  0.00     0.304 A 
ENDROOT
BRANCH   1  15
ATOM     15  C   UNL d   1      51.047  34.338  52.596  0.00  0.00     0.215 C 
ATOM     16  O   UNL d   1      51.079  34.579  51.810  0.00  0.00    -0.644 OA
ATOM     17  O   UNL d   1      50.399  34.536  53.061  0.00  0.00    -0.644 OA
ENDBRANCH   1  15
BRANCH   6  18
ATOM     18  C   UNL d   1      53.411  34.187  54.207  0.00  0.00     0.080 C 
ATOM     19  C   UNL d   1      53.296  34.972  54.445  0.00  0.00     0.021 C 
ENDBRANCH   6  18
TORSDOF 2
ENDMDL
MODEL 8
REMARK VINA RESULT:      -7.2      1.693      2.687
REMARK  2 active torsions:
REMARK  status: ('A' for Active; 'I' for Inactive)
REMARK    1  A    between atoms: C_9  and  C_1 
REMARK    2  A    between atoms: C_18  and  N_6 
ROOT
ATOM      1  C   UNL d   1      54.311  33.853  54.779  0.00  0.00     0.121 A 
ATOM      2  C   UNL d   1      53.184  33.307  54.081  0.00  0.00     0.057 A 
ATOM      3  C   UNL d   1      53.928  33.196  54.434  0.00  0.00     0.204 A 
ATOM      4  C   UNL d   1      52.820  34.054  54.066  0.00  0.00     0.069 A 
ATOM      5  C   UNL d   1      53.954  34.603  54.769  0.00  0.00     0.089 A 
ATOM      6  N   UNL d   1      53.209  34.700  54.412  0.00  0.00    -0.303 N 
ATOM      7  C   UNL d   1      52.088  34.147  53.716  0.00  0.00     0.044 A 
ATOM      8  C   UNL d   1      52.796  32.661  53.736  0.00  0.00     0.031 A 
ATOM      9  C   UNL d   1      51.706  33.505  53.375  0.00  0.00     0.121 A 
ATOM     10  C   UNL d   1      52.060  32.762  53.385  0.00  0.00     0.119 A 
ATOM     11  O   UNL d   1      50.983  33.442  52.993  0.00  0.00    -0.299 OA
ATOM     12  O   UNL d   1      51.555  32.241  53.009  0.00  0.00    -0.300 OA
ATOM     13  O   UNL d   1      54.282  32.453  54.444  0.00  0.00    -0.286 OA
ATOM     14  C   UNL d   1      50.892  32.654  52.766  0.00  0.00     0.304 A 
ENDROOT
BRANCH   1  15
ATOM     15  C   UNL d   1      55.050  33.753  55.132  0.00  0.00     0.215 C 
ATOM     16  O   UNL d   1      55.105  33.632  55.944  0.00  0.00    -0.644 OA
ATOM     17  O   UNL d   1      55.731  33.775  54.672  0.00  0.00    -0.644 OA
ENDBRANCH   1  15
BRANCH   6  18
ATOM     18  C   UNL d   1      52.855  35.443  54.402  0.00  0.00     0.080 C 
ATOM     19  C   UNL d   1      53.250  36.091  54.736  0.00  0.00     0.021 C 
ENDBRANCH   6  18
TORSDOF 2
ENDMDL
