MODEL 1
REMARK VINA RESULT:      25.1      0.000      0.000
REMARK  3 active torsions:
REMARK  status: ('A' for Active; 'I' for Inactive)
REMARK    1  A    between atoms: C_8  and  C_1 
REMARK    2  A    between atoms: N_4  and  C_2 
REMARK       I    between atoms: C_6  and  N_4 
REMARK    3  A    between atoms: C_10  and  C_6 
ROOT
ATOM      1  C   UNL d   1      45.724 -13.335  44.694  0.00  0.00     0.177 A 
ATOM      2  C   UNL d   1      45.061 -13.756  44.412  0.00  0.00     0.114 A 
ATOM      3  O   UNL d   1      46.336 -13.874  44.774  0.00  0.00    -0.301 OA
ATOM      4  C   UNL d   1      45.278 -14.544  44.324  0.00  0.00     0.043 A 
ATOM      5  C   UNL d   1      46.063 -14.621  44.547  0.00  0.00     0.102 A 
ATOM      6  C   UNL d   1      44.855 -15.204  44.068  0.00  0.00     0.004 A 
ATOM      7  C   UNL d   1      46.435 -15.357  44.516  0.00  0.00     0.025 A 
ATOM      8  C   UNL d   1      45.224 -15.947  44.035  0.00  0.00     0.000 A 
ATOM      9  C   UNL d   1      46.013 -16.013  44.261  0.00  0.00     0.002 A 
ENDROOT
BRANCH   2  10
ATOM     10  N   UNL d   1      44.316 -13.435  44.249  0.00  0.00    -0.206 NA
ATOM     11  C   UNL d   1      44.195 -13.003  43.557  0.00  0.00     0.279 C 
ATOM     12  O   UNL d   1      43.447 -12.680  43.394  0.00  0.00    -0.265 OA
BRANCH  11  13
ATOM     13  C   UNL d   1      44.818 -12.891  43.028  0.00  0.00     0.058 A 
ATOM     14  C   UNL d   1      44.980 -13.464  42.457  0.00  0.00     0.005 A 
ATOM     15  C   UNL d   1      45.602 -13.352  41.927  0.00  0.00     0.000 A 
ATOM     16  C   UNL d   1      46.063 -12.667  41.969  0.00  0.00     0.000 A 
ATOM     17  C   UNL d   1      45.901 -12.094  42.540  0.00  0.00     0.000 A 
ATOM     18  C   UNL d   1      45.279 -12.206  43.069  0.00  0.00     0.005 A 
ENDBRANCH  11  13
ENDBRANCH   2  10
BRANCH   1  19
ATOM     19  C   UNL d   1      45.774 -12.519  44.868  0.00  0.00     0.321 C 
ATOM     20  O   UNL d   1      46.520 -12.160  44.954  0.00  0.00    -0.261 OA
ATOM     21  N   UNL d   1      45.096 -12.081  44.952  0.00  0.00    -0.101 N 
ENDBRANCH   1  19
TORSDOF 3
ENDMDL
