MODEL 1
REMARK VINA RESULT:      45.0      0.000      0.000
REMARK  3 active torsions:
REMARK  status: ('A' for Active; 'I' for Inactive)
REMARK    1  A    between atoms: C_2  and  N_1 
REMARK    2  A    between atoms: N_6  and  C_5 
REMARK    3  A    between atoms: C_12  and  N_6 
ROOT
ATOM      1  C   UNL d   1     -55.054-100.309 -44.325  0.00  0.00     0.128 A 
ATOM      2  C   UNL d   1     -55.012-101.056 -44.672  0.00  0.00     0.046 A 
ATOM      3  C   UNL d   1     -54.953-101.729 -44.197  0.00  0.00     0.122 A 
ATOM      4  C   UNL d   1     -54.936-101.653 -43.376  0.00  0.00     0.101 A 
ATOM      5  C   UNL d   1     -55.038-100.233 -43.505  0.00  0.00     0.025 A 
ATOM      6  C   UNL d   1     -54.978-100.905 -43.034  0.00  0.00     0.022 A 
ATOM      7  N   UNL d   1     -54.910-102.476 -44.543  0.00  0.00    -0.146 N 
ENDROOT
BRANCH   4   8
ATOM      8  N   UNL d   1     -54.877-102.325 -42.906  0.00  0.00    -0.244 NA
BRANCH   8   9
ATOM      9  C   UNL d   1     -54.961-102.260 -42.087  0.00  0.00     0.081 A 
ATOM     10  C   UNL d   1     -54.722-102.880 -41.597  0.00  0.00     0.019 A 
ATOM     11  C   UNL d   1     -54.806-102.815 -40.780  0.00  0.00     0.002 A 
ATOM     12  C   UNL d   1     -55.130-102.131 -40.451  0.00  0.00     0.000 A 
ATOM     13  C   UNL d   1     -55.369-101.512 -40.941  0.00  0.00     0.002 A 
ATOM     14  C   UNL d   1     -55.285-101.577 -41.758  0.00  0.00     0.019 A 
ENDBRANCH   8   9
ENDBRANCH   4   8
BRANCH   1  15
ATOM     15  N   UNL d   1     -55.114 -99.638 -44.801  0.00  0.00    -0.114 N 
ATOM     16  O   UNL d   1     -55.561 -98.992 -44.548  0.00  0.00    -0.532 OA
ATOM     17  O   UNL d   1     -54.726 -99.612 -45.529  0.00  0.00    -0.532 OA
ENDBRANCH   1  15
TORSDOF 3
ENDMDL
