MODEL 1
REMARK VINA RESULT:      41.8      0.000      0.000
REMARK  3 active torsions:
REMARK  status: ('A' for Active; 'I' for Inactive)
REMARK    1  A    between atoms: C_7  and  C_8 
REMARK       I    between atoms: N_10  and  C_7 
REMARK    2  A    between atoms: C_19  and  N_10 
REMARK    3  A    between atoms: C_11  and  C_19 
ROOT
ATOM      1  C   UNL d   1     -51.214  24.825  33.377  0.00  0.00     0.039 A 
ATOM      2  C   UNL d   1     -51.343  24.009  33.372  0.00  0.00     0.196 A 
ATOM      3  C   UNL d   1     -51.949  25.198  33.360  0.00  0.00     0.003 A 
ATOM      4  C   UNL d   1     -52.160  23.880  33.351  0.00  0.00     0.039 A 
ATOM      5  C   UNL d   1     -52.531  24.615  33.343  0.00  0.00     0.003 A 
ATOM      6  C   UNL d   1     -50.531  25.274  33.396  0.00  0.00     0.008 A 
ATOM      7  C   UNL d   1     -50.572  26.091  33.397  0.00  0.00     0.058 A 
ATOM      8  C   UNL d   1     -52.001  26.027  33.361  0.00  0.00     0.000 A 
ATOM      9  O   UNL d   1     -50.762  23.423  33.385  0.00  0.00    -0.287 OA
ATOM     10  C   UNL d   1     -51.304  26.473  33.380  0.00  0.00     0.005 A 
ATOM     11  C   UNL d   1     -52.606  23.191  33.338  0.00  0.00     0.003 A 
ATOM     12  C   UNL d   1     -53.355  24.661  33.323  0.00  0.00     0.000 A 
ATOM     13  C   UNL d   1     -53.427  23.234  33.317  0.00  0.00     0.000 A 
ATOM     14  C   UNL d   1     -53.804  23.969  33.309  0.00  0.00     0.000 A 
ENDROOT
BRANCH   7  15
ATOM     15  C   UNL d   1     -49.880  26.543  33.416  0.00  0.00     0.279 C 
ATOM     16  N   UNL d   1     -49.923  27.352  33.544  0.00  0.00    -0.204 NA
ATOM     17  O   UNL d   1     -49.149  26.180  33.306  0.00  0.00    -0.265 OA
BRANCH  16  18
ATOM     18  C   UNL d   1     -49.234  27.811  33.565  0.00  0.00     0.127 C 
BRANCH  18  19
ATOM     19  C   UNL d   1     -48.958  28.112  34.275  0.00  0.00     0.119 A 
ATOM     20  O   UNL d   1     -48.919  27.704  34.987  0.00  0.00    -0.304 OA
ATOM     21  C   UNL d   1     -48.609  28.211  35.559  0.00  0.00     0.123 A 
ATOM     22  C   UNL d   1     -48.457  28.938  35.193  0.00  0.00     0.029 A 
ATOM     23  C   UNL d   1     -48.673  28.876  34.398  0.00  0.00     0.028 A 
ENDBRANCH  18  19
ENDBRANCH  16  18
ENDBRANCH   7  15
TORSDOF 3
ENDMDL
