MODEL 1
REMARK VINA RESULT:      -4.7      0.000      0.000
REMARK  4 active torsions:
REMARK  status: ('A' for Active; 'I' for Inactive)
REMARK    1  A    between atoms: S_7  and  C_2 
REMARK    2  A    between atoms: C_20  and  S_7 
REMARK    3  A    between atoms: C_10  and  C_20 
REMARK       I    between atoms: N_12  and  C_10 
REMARK    4  A    between atoms: C_15  and  N_12 
ROOT
ATOM      1  C   UNL d   1      57.247  -0.095  31.083  0.00  0.00     0.286 C 
ATOM      2  N   UNL d   1      57.159  -0.538  31.775  0.00  0.00    -0.207 NA
ATOM      3  O   UNL d   1      56.944   0.667  31.041  0.00  0.00    -0.265 OA
ENDROOT
BRANCH   1   4
ATOM      4  C   UNL d   1      57.639  -0.433  30.448  0.00  0.00     0.101 C 
BRANCH   4   5
ATOM      5  S   UNL d   1      58.336  -0.094  30.175  0.00  0.00    -0.041 SA
BRANCH   5   6
ATOM      6  C   UNL d   1      58.814  -0.503  29.644  0.00  0.00     0.220 A 
ATOM      7  N   UNL d   1      59.542  -0.188  29.415  0.00  0.00    -0.148 N 
ATOM      8  C   UNL d   1      60.032  -0.593  28.880  0.00  0.00     0.305 A 
ATOM      9  N   UNL d   1      59.792   0.536  29.718  0.00  0.00    -0.037 N 
ATOM     10  C   UNL d   1      59.770  -1.322  28.581  0.00  0.00     0.185 A 
ATOM     11  O   UNL d   1      60.752  -0.281  28.654  0.00  0.00    -0.263 OA
ATOM     12  N   UNL d   1      59.043  -1.637  28.810  0.00  0.00    -0.139 NA
ATOM     13  N   UNL d   1      58.568  -1.226  29.340  0.00  0.00    -0.121 NA
ENDBRANCH   5   6
ENDBRANCH   4   5
ENDBRANCH   1   4
BRANCH   2  14
ATOM     14  C   UNL d   1      56.765  -0.209  32.425  0.00  0.00     0.087 A 
ATOM     15  C   UNL d   1      55.968  -0.387  32.554  0.00  0.00     0.045 A 
ATOM     16  C   UNL d   1      55.578  -0.062  33.196  0.00  0.00     0.121 A 
ATOM     17  O   UNL d   1      54.797  -0.131  33.471  0.00  0.00    -0.299 OA
ATOM     18  C   UNL d   1      55.976   0.442  33.714  0.00  0.00     0.119 A 
ATOM     19  C   UNL d   1      54.714   0.324  34.148  0.00  0.00     0.304 A 
ATOM     20  O   UNL d   1      55.443   0.679  34.300  0.00  0.00    -0.300 OA
ATOM     21  C   UNL d   1      56.771   0.620  33.585  0.00  0.00     0.028 A 
ATOM     22  C   UNL d   1      57.170   0.292  32.935  0.00  0.00     0.021 A 
ENDBRANCH   2  14
TORSDOF 4
ENDMDL
MODEL 2
REMARK VINA RESULT:      -3.9      1.592      5.261
REMARK  4 active torsions:
REMARK  status: ('A' for Active; 'I' for Inactive)
REMARK    1  A    between atoms: S_7  and  C_2 
REMARK    2  A    between atoms: C_20  and  S_7 
REMARK    3  A    between atoms: C_10  and  C_20 
REMARK       I    between atoms: N_12  and  C_10 
REMARK    4  A    between atoms: C_15  and  N_12 
ROOT
ATOM      1  C   UNL d   1      57.335   0.040  31.140  0.00  0.00     0.286 C 
ATOM      2  N   UNL d   1      57.723   0.646  30.734  0.00  0.00    -0.207 NA
ATOM      3  O   UNL d   1      57.542  -0.743  31.004  0.00  0.00    -0.265 OA
ENDROOT
BRANCH   1   4
ATOM      4  C   UNL d   1      56.747   0.238  31.675  0.00  0.00     0.101 C 
BRANCH   4   5
ATOM      5  S   UNL d   1      56.902   0.200  32.481  0.00  0.00    -0.041 SA
BRANCH   5   6
ATOM      6  C   UNL d   1      56.284   0.247  33.024  0.00  0.00     0.220 A 
ATOM      7  N   UNL d   1      56.439   0.438  33.811  0.00  0.00    -0.148 N 
ATOM      8  C   UNL d   1      55.823   0.489  34.366  0.00  0.00     0.305 A 
ATOM      9  N   UNL d   1      57.212   0.582  34.057  0.00  0.00    -0.037 N 
ATOM     10  C   UNL d   1      55.047   0.342  34.108  0.00  0.00     0.185 A 
ATOM     11  O   UNL d   1      55.976   0.678  35.146  0.00  0.00    -0.263 OA
ATOM     12  N   UNL d   1      54.893   0.151  33.320  0.00  0.00    -0.139 NA
ATOM     13  N   UNL d   1      55.512   0.104  32.781  0.00  0.00    -0.121 NA
ENDBRANCH   5   6
ENDBRANCH   4   5
ENDBRANCH   1   4
BRANCH   2  14
ATOM     14  C   UNL d   1      58.319   0.460  30.191  0.00  0.00     0.087 A 
ATOM     15  C   UNL d   1      59.110   0.481  30.428  0.00  0.00     0.045 A 
ATOM     16  C   UNL d   1      59.701   0.297  29.891  0.00  0.00     0.121 A 
ATOM     17  O   UNL d   1      60.528   0.269  29.956  0.00  0.00    -0.299 OA
ATOM     18  C   UNL d   1      59.509   0.091  29.116  0.00  0.00     0.119 A 
ATOM     19  C   UNL d   1      60.843   0.047  29.232  0.00  0.00     0.304 A 
ATOM     20  O   UNL d   1      60.213  -0.063  28.711  0.00  0.00    -0.300 OA
ATOM     21  C   UNL d   1      58.719   0.069  28.879  0.00  0.00     0.028 A 
ATOM     22  C   UNL d   1      58.118   0.255  29.421  0.00  0.00     0.021 A 
ENDBRANCH   2  14
TORSDOF 4
ENDMDL
MODEL 3
REMARK VINA RESULT:      -3.3      1.057      1.317
REMARK  4 active torsions:
REMARK  status: ('A' for Active; 'I' for Inactive)
REMARK    1  A    between atoms: S_7  and  C_2 
REMARK    2  A    between atoms: C_20  and  S_7 
REMARK    3  A    between atoms: C_10  and  C_20 
REMARK       I    between atoms: N_12  and  C_10 
REMARK    4  A    between atoms: C_15  and  N_12 
ROOT
ATOM      1  C   UNL d   1      57.017  -0.022  31.724  0.00  0.00     0.286 C 
ATOM      2  N   UNL d   1      56.729   0.653  32.103  0.00  0.00    -0.207 NA
ATOM      3  O   UNL d   1      56.927  -0.760  32.073  0.00  0.00    -0.265 OA
ENDROOT
BRANCH   1   4
ATOM      4  C   UNL d   1      57.390   0.064  31.000  0.00  0.00     0.101 C 
BRANCH   4   5
ATOM      5  S   UNL d   1      57.737  -0.591  30.643  0.00  0.00    -0.041 SA
BRANCH   5   6
ATOM      6  C   UNL d   1      58.117  -0.512  29.916  0.00  0.00     0.220 A 
ATOM      7  N   UNL d   1      58.483  -1.164  29.568  0.00  0.00    -0.148 N 
ATOM      8  C   UNL d   1      58.868  -1.095  28.835  0.00  0.00     0.305 A 
ATOM      9  N   UNL d   1      58.470  -1.895  29.946  0.00  0.00    -0.037 N 
ATOM     10  C   UNL d   1      58.876  -0.353  28.462  0.00  0.00     0.185 A 
ATOM     11  O   UNL d   1      59.231  -1.741  28.491  0.00  0.00    -0.263 OA
ATOM     12  N   UNL d   1      58.509   0.299  28.811  0.00  0.00    -0.139 NA
ATOM     13  N   UNL d   1      58.131   0.217  29.536  0.00  0.00    -0.121 NA
ENDBRANCH   5   6
ENDBRANCH   4   5
ENDBRANCH   1   4
BRANCH   2  14
ATOM     14  C   UNL d   1      56.349   0.581  32.836  0.00  0.00     0.087 A 
ATOM     15  C   UNL d   1      55.531   0.682  32.885  0.00  0.00     0.045 A 
ATOM     16  C   UNL d   1      55.155   0.611  33.609  0.00  0.00     0.121 A 
ATOM     17  O   UNL d   1      54.359   0.679  33.837  0.00  0.00    -0.299 OA
ATOM     18  C   UNL d   1      55.590   0.440  34.289  0.00  0.00     0.119 A 
ATOM     19  C   UNL d   1      54.303   0.552  34.645  0.00  0.00     0.304 A 
ATOM     20  O   UNL d   1      55.064   0.403  34.926  0.00  0.00    -0.300 OA
ATOM     21  C   UNL d   1      56.407   0.339  34.240  0.00  0.00     0.028 A 
ATOM     22  C   UNL d   1      56.792   0.410  33.507  0.00  0.00     0.021 A 
ENDBRANCH   2  14
TORSDOF 4
ENDMDL
MODEL 4
REMARK VINA RESULT:      -1.9      9.655     10.375
REMARK  4 active torsions:
REMARK  status: ('A' for Active; 'I' for Inactive)
REMARK    1  A    between atoms: S_7  and  C_2 
REMARK    2  A    between atoms: C_20  and  S_7 
REMARK    3  A    between atoms: C_10  and  C_20 
REMARK       I    between atoms: N_12  and  C_10 
REMARK    4  A    between atoms: C_15  and  N_12 
ROOT
ATOM      1  C   UNL d   1      59.003  -9.800  32.851  0.00  0.00     0.286 C 
ATOM      2  N   UNL d   1      58.236  -9.771  32.546  0.00  0.00    -0.207 NA
ATOM      3  O   UNL d   1      59.648  -9.818  32.342  0.00  0.00    -0.265 OA
ENDROOT
BRANCH   1   4
ATOM      4  C   UNL d   1      59.103  -9.810  33.664  0.00  0.00     0.101 C 
BRANCH   4   5
ATOM      5  S   UNL d   1      59.717  -9.381  34.002  0.00  0.00    -0.041 SA
BRANCH   5   6
ATOM      6  C   UNL d   1      59.651  -9.104  34.776  0.00  0.00     0.220 A 
ATOM      7  N   UNL d   1      60.202  -8.565  35.070  0.00  0.00    -0.148 N 
ATOM      8  C   UNL d   1      60.144  -8.280  35.848  0.00  0.00     0.305 A 
ATOM      9  N   UNL d   1      60.819  -8.302  34.592  0.00  0.00    -0.037 N 
ATOM     10  C   UNL d   1      59.518  -8.551  36.322  0.00  0.00     0.185 A 
ATOM     11  O   UNL d   1      60.689  -7.746  36.140  0.00  0.00    -0.263 OA
ATOM     12  N   UNL d   1      58.968  -9.091  36.027  0.00  0.00    -0.139 NA
ATOM     13  N   UNL d   1      59.037  -9.365  35.255  0.00  0.00    -0.121 NA
ENDBRANCH   5   6
ENDBRANCH   4   5
ENDBRANCH   1   4
BRANCH   2  14
ATOM     14  C   UNL d   1      58.121  -9.761  31.726  0.00  0.00     0.087 A 
ATOM     15  C   UNL d   1      57.355  -9.798  31.419  0.00  0.00     0.045 A 
ATOM     16  C   UNL d   1      57.240  -9.788  30.608  0.00  0.00     0.121 A 
ATOM     17  O   UNL d   1      56.556  -9.818  30.139  0.00  0.00    -0.299 OA
ATOM     18  C   UNL d   1      57.886  -9.740  30.097  0.00  0.00     0.119 A 
ATOM     19  C   UNL d   1      56.776  -9.789  29.349  0.00  0.00     0.304 A 
ATOM     20  O   UNL d   1      57.599  -9.741  29.322  0.00  0.00    -0.300 OA
ATOM     21  C   UNL d   1      58.652  -9.703  30.404  0.00  0.00     0.028 A 
ATOM     22  C   UNL d   1      58.771  -9.713  31.225  0.00  0.00     0.021 A 
ENDBRANCH   2  14
TORSDOF 4
ENDMDL
