MODEL 1
REMARK VINA RESULT:      -8.8      0.000      0.000
REMARK  3 active torsions:
REMARK  status: ('A' for Active; 'I' for Inactive)
REMARK    1  A    between atoms: N_9  and  C_3 
REMARK    2  A    between atoms: C_12  and  C_4 
REMARK    3  A    between atoms: C_17  and  N_10 
ROOT
ATOM      1  N   UNL d   1      52.295  33.739  53.443  0.00  0.00    -0.196 N 
ATOM      2  C   UNL d   1      52.971  33.363  53.715  0.00  0.00     0.167 A 
ATOM      3  C   UNL d   1      51.746  33.329  52.981  0.00  0.00     0.152 A 
ATOM      4  C   UNL d   1      53.406  33.904  54.154  0.00  0.00     0.057 A 
ATOM      5  N   UNL d   1      52.308  34.516  53.712  0.00  0.00    -0.161 NA
ATOM      6  N   UNL d   1      53.109  32.570  53.530  0.00  0.00    -0.227 NA
ATOM      7  C   UNL d   1      51.884  32.532  52.795  0.00  0.00     0.057 A 
ATOM      8  C   UNL d   1      53.000  34.611  54.153  0.00  0.00     0.124 A 
ATOM      9  C   UNL d   1      52.560  32.156  53.067  0.00  0.00     0.086 A 
ATOM     10  C   UNL d   1      52.692  31.354  52.875  0.00  0.00     0.021 C 
ENDROOT
BRANCH   3  11
ATOM     11  N   UNL d   1      51.070  33.706  52.709  0.00  0.00    -0.286 N 
ATOM     12  C   UNL d   1      51.044  34.012  51.939  0.00  0.00     0.101 A 
ATOM     13  C   UNL d   1      50.364  34.390  51.665  0.00  0.00     0.100 A 
ATOM     14  N   UNL d   1      49.706  34.465  52.160  0.00  0.00    -0.301 N 
ATOM     15  C   UNL d   1      49.729  34.161  52.925  0.00  0.00     0.100 A 
ATOM     16  C   UNL d   1      50.409  33.783  53.199  0.00  0.00     0.101 A 
BRANCH  14  17
ATOM     17  C   UNL d   1      49.019  34.847  51.883  0.00  0.00     0.064 A 
ATOM     18  C   UNL d   1      48.703  34.641  51.155  0.00  0.00     0.018 A 
ATOM     19  C   UNL d   1      48.025  35.112  51.030  0.00  0.00     0.002 A 
ATOM     20  C   UNL d   1      47.936  35.600  51.682  0.00  0.00     0.002 A 
ATOM     21  C   UNL d   1      48.543  35.442  52.211  0.00  0.00     0.018 A 
ENDBRANCH  14  17
ENDBRANCH   3  11
BRANCH   4  22
ATOM     22  C   UNL d   1      54.123  33.842  54.556  0.00  0.00     0.004 A 
ATOM     23  C   UNL d   1      54.130  33.645  55.364  0.00  0.00     0.000 A 
ATOM     24  C   UNL d   1      54.847  33.583  55.767  0.00  0.00     0.000 A 
ATOM     25  C   UNL d   1      55.559  33.716  55.370  0.00  0.00     0.000 A 
ATOM     26  C   UNL d   1      55.554  33.913  54.567  0.00  0.00     0.000 A 
ATOM     27  C   UNL d   1      54.837  33.975  54.165  0.00  0.00     0.000 A 
ENDBRANCH   4  22
TORSDOF 3
ENDMDL
MODEL 2
REMARK VINA RESULT:      -7.4      1.432      2.313
REMARK  3 active torsions:
REMARK  status: ('A' for Active; 'I' for Inactive)
REMARK    1  A    between atoms: N_9  and  C_3 
REMARK    2  A    between atoms: C_12  and  C_4 
REMARK    3  A    between atoms: C_17  and  N_10 
ROOT
ATOM      1  N   UNL d   1      51.410  33.394  52.995  0.00  0.00    -0.196 N 
ATOM      2  C   UNL d   1      52.156  33.102  53.168  0.00  0.00     0.167 A 
ATOM      3  C   UNL d   1      51.286  34.207  52.921  0.00  0.00     0.152 A 
ATOM      4  C   UNL d   1      52.108  32.283  53.207  0.00  0.00     0.057 A 
ATOM      5  N   UNL d   1      50.896  32.756  52.926  0.00  0.00    -0.161 NA
ATOM      6  N   UNL d   1      52.792  33.619  53.270  0.00  0.00    -0.227 NA
ATOM      7  C   UNL d   1      51.924  34.728  53.022  0.00  0.00     0.057 A 
ATOM      8  C   UNL d   1      51.336  32.070  53.059  0.00  0.00     0.124 A 
ATOM      9  C   UNL d   1      52.671  34.436  53.195  0.00  0.00     0.086 A 
ATOM     10  C   UNL d   1      53.308  34.967  53.296  0.00  0.00     0.021 C 
ENDROOT
BRANCH   3  11
ATOM     11  N   UNL d   1      50.539  34.499  52.747  0.00  0.00    -0.286 N 
ATOM     12  C   UNL d   1      50.245  34.459  51.973  0.00  0.00     0.101 A 
ATOM     13  C   UNL d   1      49.494  34.753  51.799  0.00  0.00     0.100 A 
ATOM     14  N   UNL d   1      49.033  35.087  52.398  0.00  0.00    -0.301 N 
ATOM     15  C   UNL d   1      49.323  35.127  53.168  0.00  0.00     0.100 A 
ATOM     16  C   UNL d   1      50.074  34.834  53.342  0.00  0.00     0.101 A 
BRANCH  14  17
ATOM     17  C   UNL d   1      48.274  35.384  52.222  0.00  0.00     0.064 A 
ATOM     18  C   UNL d   1      47.939  35.959  52.702  0.00  0.00     0.018 A 
ATOM     19  C   UNL d   1      47.187  36.144  52.391  0.00  0.00     0.002 A 
ATOM     20  C   UNL d   1      47.071  35.679  51.726  0.00  0.00     0.002 A 
ATOM     21  C   UNL d   1      47.735  35.209  51.616  0.00  0.00     0.018 A 
ENDBRANCH  14  17
ENDBRANCH   3  11
BRANCH   4  22
ATOM     22  C   UNL d   1      52.673  31.702  53.360  0.00  0.00     0.004 A 
ATOM     23  C   UNL d   1      52.791  31.085  52.815  0.00  0.00     0.000 A 
ATOM     24  C   UNL d   1      53.356  30.503  52.967  0.00  0.00     0.000 A 
ATOM     25  C   UNL d   1      53.805  30.531  53.660  0.00  0.00     0.000 A 
ATOM     26  C   UNL d   1      53.689  31.144  54.203  0.00  0.00     0.000 A 
ATOM     27  C   UNL d   1      53.124  31.725  54.051  0.00  0.00     0.000 A 
ENDBRANCH   4  22
TORSDOF 3
ENDMDL
MODEL 3
REMARK VINA RESULT:      -6.2      1.489      5.229
REMARK  3 active torsions:
REMARK  status: ('A' for Active; 'I' for Inactive)
REMARK    1  A    between atoms: N_9  and  C_3 
REMARK    2  A    between atoms: C_12  and  C_4 
REMARK    3  A    between atoms: C_17  and  N_10 
ROOT
ATOM      1  N   UNL d   1      51.480  33.305  53.152  0.00  0.00    -0.196 N 
ATOM      2  C   UNL d   1      51.187  34.055  53.002  0.00  0.00     0.167 A 
ATOM      3  C   UNL d   1      52.292  33.185  53.246  0.00  0.00     0.152 A 
ATOM      4  C   UNL d   1      50.369  34.002  52.936  0.00  0.00     0.057 A 
ATOM      5  N   UNL d   1      50.846  32.783  53.181  0.00  0.00    -0.161 NA
ATOM      6  N   UNL d   1      51.700  34.700  52.942  0.00  0.00    -0.227 NA
ATOM      7  C   UNL d   1      52.809  33.831  53.187  0.00  0.00     0.057 A 
ATOM      8  C   UNL d   1      50.160  33.222  53.046  0.00  0.00     0.124 A 
ATOM      9  C   UNL d   1      52.516  34.582  53.036  0.00  0.00     0.086 A 
ATOM     10  C   UNL d   1      53.043  35.227  52.977  0.00  0.00     0.021 C 
ENDROOT
BRANCH   3  11
ATOM     11  N   UNL d   1      52.586  32.434  53.397  0.00  0.00    -0.286 N 
ATOM     12  C   UNL d   1      52.954  32.268  54.122  0.00  0.00     0.101 A 
ATOM     13  C   UNL d   1      53.249  31.512  54.274  0.00  0.00     0.100 A 
ATOM     14  N   UNL d   1      53.178  30.920  53.701  0.00  0.00    -0.301 N 
ATOM     15  C   UNL d   1      52.813  31.082  52.981  0.00  0.00     0.100 A 
ATOM     16  C   UNL d   1      52.518  31.838  52.830  0.00  0.00     0.101 A 
BRANCH  14  17
ATOM     17  C   UNL d   1      53.477  30.156  53.855  0.00  0.00     0.064 A 
ATOM     18  C   UNL d   1      53.084  29.663  54.381  0.00  0.00     0.018 A 
ATOM     19  C   UNL d   1      53.509  28.945  54.420  0.00  0.00     0.002 A 
ATOM     20  C   UNL d   1      54.154  29.008  53.919  0.00  0.00     0.002 A 
ATOM     21  C   UNL d   1      54.140  29.751  53.568  0.00  0.00     0.018 A 
ENDBRANCH  14  17
ENDBRANCH   3  11
BRANCH   4  22
ATOM     22  C   UNL d   1      49.788  34.568  52.789  0.00  0.00     0.004 A 
ATOM     23  C   UNL d   1      49.488  34.664  52.020  0.00  0.00     0.000 A 
ATOM     24  C   UNL d   1      48.905  35.230  51.873  0.00  0.00     0.000 A 
ATOM     25  C   UNL d   1      48.619  35.702  52.488  0.00  0.00     0.000 A 
ATOM     26  C   UNL d   1      48.917  35.607  53.254  0.00  0.00     0.000 A 
ATOM     27  C   UNL d   1      49.499  35.041  53.400  0.00  0.00     0.000 A 
ENDBRANCH   4  22
TORSDOF 3
ENDMDL
