MODEL 1
REMARK VINA RESULT:      17.6      0.000      0.000
REMARK  2 active torsions:
REMARK  status: ('A' for Active; 'I' for Inactive)
REMARK    1  A    between atoms: S_8  and  C_4 
REMARK    2  A    between atoms: C_12  and  S_8 
ROOT
ATOM      1  C   UNL d   1      13.847  12.429  -2.636  0.00  0.00     0.141 A 
ATOM      2  O   UNL d   1      13.480  11.824  -3.060  0.00  0.00    -0.303 OA
ATOM      3  C   UNL d   1      13.872  13.102  -3.115  0.00  0.00     0.110 A 
ATOM      4  C   UNL d   1      14.161  12.451  -1.878  0.00  0.00     0.137 A 
ATOM      5  C   UNL d   1      13.519  12.913  -3.833  0.00  0.00     0.043 A 
ATOM      6  C   UNL d   1      13.275  12.124  -3.805  0.00  0.00     0.102 A 
ATOM      7  N   UNL d   1      14.504  13.150  -1.592  0.00  0.00    -0.215 NA
ATOM      8  N   UNL d   1      14.212  13.793  -2.827  0.00  0.00    -0.222 NA
ATOM      9  C   UNL d   1      14.527  13.816  -2.068  0.00  0.00     0.200 A 
ATOM     10  C   UNL d   1      13.389  13.363  -4.517  0.00  0.00     0.004 A 
ATOM     11  C   UNL d   1      12.900  11.779  -4.457  0.00  0.00     0.025 A 
ATOM     12  C   UNL d   1      13.013  13.018  -5.169  0.00  0.00     0.000 A 
ATOM     13  C   UNL d   1      12.771  12.232  -5.136  0.00  0.00     0.002 A 
ENDROOT
BRANCH   4  14
ATOM     14  S   UNL d   1      14.141  11.779  -1.391  0.00  0.00    -0.066 SA
BRANCH  14  15
ATOM     15  C   UNL d   1      14.249  11.863  -0.576  0.00  0.00     0.031 C 
ATOM     16  C   UNL d   1      13.598  11.975  -0.083  0.00  0.00     0.007 C 
ATOM     17  C   UNL d   1      15.006  11.835  -0.260  0.00  0.00     0.007 C 
ENDBRANCH  14  15
ENDBRANCH   4  14
TORSDOF 2
ENDMDL
