MODEL 1
REMARK VINA RESULT:      -4.5      0.000      0.000
REMARK  2 active torsions:
REMARK  status: ('A' for Active; 'I' for Inactive)
REMARK    1  A    between atoms: C_6  and  C_3 
REMARK    2  A    between atoms: C_9  and  C_6 
ROOT
ATOM      1  C   UNL d   1      57.382   0.615  30.675  0.00  0.00     0.011 C 
ENDROOT
BRANCH   1   2
ATOM      2  C   UNL d   1      58.184   0.545  30.448  0.00  0.00     0.092 A 
ATOM      3  C   UNL d   1      58.484   0.343  29.736  0.00  0.00     0.288 A 
ATOM      4  N   UNL d   1      59.283   0.349  29.780  0.00  0.00    -0.163 NA
ATOM      5  O   UNL d   1      58.008   0.153  29.043  0.00  0.00    -0.265 OA
ATOM      6  C   UNL d   1      59.464   0.568  30.571  0.00  0.00     0.313 A 
ATOM      7  S   UNL d   1      58.763   0.680  30.949  0.00  0.00    -0.021 SA
ATOM      8  O   UNL d   1      60.245   0.649  30.884  0.00  0.00    -0.258 OA
ENDBRANCH   1   2
BRANCH   1   9
ATOM      9  C   UNL d   1      57.039   0.189  31.294  0.00  0.00     0.001 A 
ATOM     10  C   UNL d   1      57.030  -0.635  31.333  0.00  0.00     0.001 A 
ATOM     11  C   UNL d   1      56.686  -1.013  31.953  0.00  0.00     0.007 A 
ATOM     12  C   UNL d   1      56.324  -0.573  32.580  0.00  0.00     0.035 A 
ATOM     13  C   UNL d   1      56.332   0.251  32.542  0.00  0.00     0.007 A 
ATOM     14 BR   UNL d   1      55.965  -0.946  33.225  0.00  0.00    -0.049 Br
ATOM     15  C   UNL d   1      56.694   0.641  31.891  0.00  0.00     0.001 A 
ENDBRANCH   1   9
TORSDOF 2
ENDMDL
MODEL 2
REMARK VINA RESULT:      -4.3      2.871      3.646
REMARK  2 active torsions:
REMARK  status: ('A' for Active; 'I' for Inactive)
REMARK    1  A    between atoms: C_6  and  C_3 
REMARK    2  A    between atoms: C_9  and  C_6 
ROOT
ATOM      1  C   UNL d   1      56.713   0.600  32.541  0.00  0.00     0.011 C 
ENDROOT
BRANCH   1   2
ATOM      2  C   UNL d   1      56.242  -0.048  32.784  0.00  0.00     0.092 A 
ATOM      3  C   UNL d   1      55.527  -0.039  33.137  0.00  0.00     0.288 A 
ATOM      4  N   UNL d   1      55.291  -0.792  33.266  0.00  0.00    -0.163 NA
ATOM      5  O   UNL d   1      55.092   0.678  33.338  0.00  0.00    -0.265 OA
ATOM      6  C   UNL d   1      55.911  -1.277  32.970  0.00  0.00     0.313 A 
ATOM      7  S   UNL d   1      56.477  -0.782  32.682  0.00  0.00    -0.021 SA
ATOM      8  O   UNL d   1      55.914  -2.121  32.983  0.00  0.00    -0.258 OA
ENDBRANCH   1   2
BRANCH   1   9
ATOM      9  C   UNL d   1      57.140   0.621  31.834  0.00  0.00     0.001 A 
ATOM     10  C   UNL d   1      56.788   0.650  31.088  0.00  0.00     0.001 A 
ATOM     11  C   UNL d   1      57.238   0.669  30.423  0.00  0.00     0.007 A 
ATOM     12  C   UNL d   1      58.084   0.659  30.473  0.00  0.00     0.035 A 
ATOM     13  C   UNL d   1      58.436   0.631  31.218  0.00  0.00     0.007 A 
ATOM     14 BR   UNL d   1      58.562   0.678  29.799  0.00  0.00    -0.049 Br
ATOM     15  C   UNL d   1      57.960   0.611  31.911  0.00  0.00     0.001 A 
ENDBRANCH   1   9
TORSDOF 2
ENDMDL
MODEL 3
REMARK VINA RESULT:      -4.0      0.738      1.128
REMARK  2 active torsions:
REMARK  status: ('A' for Active; 'I' for Inactive)
REMARK    1  A    between atoms: C_6  and  C_3 
REMARK    2  A    between atoms: C_9  and  C_6 
ROOT
ATOM      1  C   UNL d   1      57.022  -0.272  31.118  0.00  0.00     0.011 C 
ENDROOT
BRANCH   1   2
ATOM      2  C   UNL d   1      57.754   0.084  30.924  0.00  0.00     0.092 A 
ATOM      3  C   UNL d   1      57.981   0.412  30.232  0.00  0.00     0.288 A 
ATOM      4  N   UNL d   1      58.730   0.682  30.305  0.00  0.00    -0.163 NA
ATOM      5  O   UNL d   1      57.483   0.458  29.529  0.00  0.00    -0.265 OA
ATOM      6  C   UNL d   1      58.960   0.500  31.094  0.00  0.00     0.313 A 
ATOM      7  S   UNL d   1      58.333   0.133  31.440  0.00  0.00    -0.021 SA
ATOM      8  O   UNL d   1      59.712   0.680  31.432  0.00  0.00    -0.258 OA
ENDBRANCH   1   2
BRANCH   1   9
ATOM      9  C   UNL d   1      56.624  -0.149  31.831  0.00  0.00     0.001 A 
ATOM     10  C   UNL d   1      56.402   0.595  32.108  0.00  0.00     0.001 A 
ATOM     11  C   UNL d   1      56.016   0.674  32.808  0.00  0.00     0.007 A 
ATOM     12  C   UNL d   1      55.827  -0.006  33.277  0.00  0.00     0.035 A 
ATOM     13  C   UNL d   1      56.049  -0.751  33.000  0.00  0.00     0.007 A 
ATOM     14 BR   UNL d   1      55.430   0.057  33.999  0.00  0.00    -0.049 Br
ATOM     15  C   UNL d   1      56.453  -0.828  32.267  0.00  0.00     0.001 A 
ENDBRANCH   1   9
TORSDOF 2
ENDMDL
MODEL 4
REMARK VINA RESULT:      -3.9      9.169      9.960
REMARK  2 active torsions:
REMARK  status: ('A' for Active; 'I' for Inactive)
REMARK    1  A    between atoms: C_6  and  C_3 
REMARK    2  A    between atoms: C_9  and  C_6 
ROOT
ATOM      1  C   UNL d   1      60.010  -8.745  35.536  0.00  0.00     0.011 C 
ENDROOT
BRANCH   1   2
ATOM      2  C   UNL d   1      59.973  -7.945  35.783  0.00  0.00     0.092 A 
ATOM      3  C   UNL d   1      59.369  -7.560  36.134  0.00  0.00     0.288 A 
ATOM      4  N   UNL d   1      59.586  -6.802  36.267  0.00  0.00    -0.163 NA
ATOM      5  O   UNL d   1      58.610  -7.920  36.330  0.00  0.00    -0.265 OA
ATOM      6  C   UNL d   1      60.372  -6.738  35.975  0.00  0.00     0.313 A 
ATOM      7  S   UNL d   1      60.573  -7.461  35.686  0.00  0.00    -0.021 SA
ATOM      8  O   UNL d   1      60.840  -6.035  35.994  0.00  0.00    -0.258 OA
ENDBRANCH   1   2
BRANCH   1   9
ATOM      9  C   UNL d   1      60.194  -8.982  34.767  0.00  0.00     0.001 A 
ATOM     10  C   UNL d   1      60.965  -9.076  34.490  0.00  0.00     0.001 A 
ATOM     11  C   UNL d   1      61.103  -9.309  33.733  0.00  0.00     0.007 A 
ATOM     12  C   UNL d   1      60.459  -9.464  33.204  0.00  0.00     0.035 A 
ATOM     13  C   UNL d   1      59.688  -9.370  33.481  0.00  0.00     0.007 A 
ATOM     14 BR   UNL d   1      60.583  -9.704  32.423  0.00  0.00    -0.049 Br
ATOM     15  C   UNL d   1      59.549  -9.125  34.274  0.00  0.00     0.001 A 
ENDBRANCH   1   9
TORSDOF 2
ENDMDL
MODEL 5
REMARK VINA RESULT:      -3.2      1.150      1.269
REMARK  2 active torsions:
REMARK  status: ('A' for Active; 'I' for Inactive)
REMARK    1  A    between atoms: C_6  and  C_3 
REMARK    2  A    between atoms: C_9  and  C_6 
ROOT
ATOM      1  C   UNL d   1      58.123   0.493  30.601  0.00  0.00     0.011 C 
ENDROOT
BRANCH   1   2
ATOM      2  C   UNL d   1      58.334  -0.006  29.963  0.00  0.00     0.092 A 
ATOM      3  C   UNL d   1      58.131   0.056  29.194  0.00  0.00     0.288 A 
ATOM      4  N   UNL d   1      58.462  -0.548  28.788  0.00  0.00    -0.163 NA
ATOM      5  O   UNL d   1      57.633   0.682  28.871  0.00  0.00    -0.265 OA
ATOM      6  C   UNL d   1      58.889  -0.995  29.357  0.00  0.00     0.313 A 
ATOM      7  S   UNL d   1      58.785  -0.630  30.067  0.00  0.00    -0.021 SA
ATOM      8  O   UNL d   1      59.335  -1.693  29.190  0.00  0.00    -0.258 OA
ENDBRANCH   1   2
BRANCH   1   9
ATOM      9  C   UNL d   1      57.645   0.258  31.232  0.00  0.00     0.001 A 
ATOM     10  C   UNL d   1      57.083  -0.343  31.181  0.00  0.00     0.001 A 
ATOM     11  C   UNL d   1      56.637  -0.543  31.819  0.00  0.00     0.007 A 
ATOM     12  C   UNL d   1      56.734  -0.139  32.558  0.00  0.00     0.035 A 
ATOM     13  C   UNL d   1      57.296   0.462  32.609  0.00  0.00     0.007 A 
ATOM     14 BR   UNL d   1      56.283  -0.332  33.224  0.00  0.00    -0.049 Br
ATOM     15  C   UNL d   1      57.760   0.667  31.939  0.00  0.00     0.001 A 
ENDBRANCH   1   9
TORSDOF 2
ENDMDL
MODEL 6
REMARK VINA RESULT:      -2.8      2.554      3.580
REMARK  2 active torsions:
REMARK  status: ('A' for Active; 'I' for Inactive)
REMARK    1  A    between atoms: C_6  and  C_3 
REMARK    2  A    between atoms: C_9  and  C_6 
ROOT
ATOM      1  C   UNL d   1      59.113  -0.216  28.952  0.00  0.00     0.011 C 
ENDROOT
BRANCH   1   2
ATOM      2  C   UNL d   1      58.520   0.087  29.458  0.00  0.00     0.092 A 
ATOM      3  C   UNL d   1      57.856   0.485  29.265  0.00  0.00     0.288 A 
ATOM      4  N   UNL d   1      57.456   0.664  29.934  0.00  0.00    -0.163 NA
ATOM      5  O   UNL d   1      57.623   0.682  28.458  0.00  0.00    -0.265 OA
ATOM      6  C   UNL d   1      57.916   0.350  30.564  0.00  0.00     0.313 A 
ATOM      7  S   UNL d   1      58.561   0.004  30.230  0.00  0.00    -0.021 SA
ATOM      8  O   UNL d   1      57.716   0.402  31.382  0.00  0.00    -0.258 OA
ENDBRANCH   1   2
BRANCH   1   9
ATOM      9  C   UNL d   1      59.354  -1.006  28.944  0.00  0.00     0.001 A 
ATOM     10  C   UNL d   1      58.851  -1.635  28.764  0.00  0.00     0.001 A 
ATOM     11  C   UNL d   1      59.122  -2.391  28.767  0.00  0.00     0.007 A 
ATOM     12  C   UNL d   1      59.932  -2.559  28.954  0.00  0.00     0.035 A 
ATOM     13  C   UNL d   1      60.435  -1.930  29.133  0.00  0.00     0.007 A 
ATOM     14 BR   UNL d   1      60.228  -3.330  28.961  0.00  0.00    -0.049 Br
ATOM     15  C   UNL d   1      60.145  -1.141  29.129  0.00  0.00     0.001 A 
ENDBRANCH   1   9
TORSDOF 2
ENDMDL
