MODEL 1
REMARK VINA RESULT:      -2.9      0.000      0.000
REMARK  5 active torsions:
REMARK  status: ('A' for Active; 'I' for Inactive)
REMARK    1  A    between atoms: C_6  and  C_1 
REMARK    2  A    between atoms: N_7  and  C_2 
REMARK    3  A    between atoms: O_11  and  C_6 
REMARK       I    between atoms: C_8  and  N_7 
REMARK    4  A    between atoms: C_14  and  C_8 
REMARK    5  A    between atoms: C_15  and  O_11 
ROOT
ATOM      1  C   UNL d   1      58.436  -1.356  29.766  0.00  0.00     0.162 A 
ATOM      2  C   UNL d   1      58.505  -0.533  29.756  0.00  0.00     0.109 A 
ATOM      3  N   UNL d   1      57.910  -1.562  30.365  0.00  0.00    -0.239 NA
ATOM      4  C   UNL d   1      58.022  -0.233  30.349  0.00  0.00     0.037 A 
ATOM      5  C   UNL d   1      57.652  -0.864  30.728  0.00  0.00     0.083 A 
ATOM      6  C   UNL d   1      57.872   0.543  30.592  0.00  0.00     0.003 A 
ATOM      7  C   UNL d   1      57.130  -0.725  31.353  0.00  0.00     0.019 A 
ATOM      8  C   UNL d   1      57.350   0.681  31.217  0.00  0.00     0.000 A 
ATOM      9  C   UNL d   1      56.982   0.049  31.593  0.00  0.00     0.002 A 
ENDROOT
BRANCH   1  10
ATOM     10  C   UNL d   1      58.828  -1.877  29.261  0.00  0.00     0.320 C 
ATOM     11  O   UNL d   1      58.660  -1.875  28.455  0.00  0.00    -0.257 OA
BRANCH  10  12
ATOM     12  O   UNL d   1      59.391  -2.403  29.555  0.00  0.00    -0.270 OA
BRANCH  12  13
ATOM     13  C   UNL d   1      59.669  -3.009  29.071  0.00  0.00     0.126 C 
ATOM     14  C   UNL d   1      60.322  -3.445  29.304  0.00  0.00     0.029 C 
ENDBRANCH  12  13
ENDBRANCH  10  12
ENDBRANCH   1  10
BRANCH   2  15
ATOM     15  N   UNL d   1      58.978  -0.090  29.241  0.00  0.00    -0.206 NA
ATOM     16  C   UNL d   1      59.692   0.242  29.520  0.00  0.00     0.279 C 
ATOM     17  O   UNL d   1      59.918   0.125  30.307  0.00  0.00    -0.265 OA
BRANCH  16  18
ATOM     18  C   UNL d   1      60.160   0.682  29.004  0.00  0.00     0.062 C 
ATOM     19  C   UNL d   1      60.983   0.682  29.101  0.00  0.00     0.005 C 
ENDBRANCH  16  18
ENDBRANCH   2  15
TORSDOF 5
ENDMDL
