MODEL 1
REMARK VINA RESULT:      81.6      0.000      0.000
REMARK  4 active torsions:
REMARK  status: ('A' for Active; 'I' for Inactive)
REMARK       I    between atoms: N_2  and  C_1 
REMARK       I    between atoms: N_3  and  C_1 
REMARK    1  A    between atoms: C_7  and  N_3 
REMARK    2  A    between atoms: C_8  and  C_12 
REMARK    3  A    between atoms: C_17  and  C_8 
REMARK    4  A    between atoms: O_18  and  C_9 
ROOT
ATOM      1  C   UNL d   1      60.997  47.178  50.330  0.00  0.00     0.354 C 
ATOM      2  N   UNL d   1      60.493  47.807  50.502  0.00  0.00    -0.256 N 
ATOM      3  N   UNL d   1      60.729  46.405  50.416  0.00  0.00    -0.192 NA
ATOM      4  O   UNL d   1      61.768  47.323  50.071  0.00  0.00    -0.244 OA
ATOM      5  C   UNL d   1      60.765  48.586  50.415  0.00  0.00     0.085 A 
ATOM      6  C   UNL d   1      59.722  47.666  50.761  0.00  0.00     0.085 A 
ATOM      7  C   UNL d   1      60.255  49.222  50.589  0.00  0.00     0.019 A 
ATOM      8  C   UNL d   1      59.225  48.293  50.931  0.00  0.00     0.019 A 
ATOM      9  C   UNL d   1      59.494  49.071  50.845  0.00  0.00     0.003 A 
ENDROOT
BRANCH   3  10
ATOM     10  C   UNL d   1      61.235  45.768  50.243  0.00  0.00     0.086 A 
ATOM     11  C   UNL d   1      61.741  45.813  49.598  0.00  0.00     0.021 A 
ATOM     12  C   UNL d   1      62.244  45.184  49.422  0.00  0.00     0.026 A 
ATOM     13  C   UNL d   1      62.233  44.512  49.901  0.00  0.00     0.094 A 
ATOM     14  C   UNL d   1      61.719  44.469  50.555  0.00  0.00     0.026 A 
ATOM     15  C   UNL d   1      61.222  45.104  50.719  0.00  0.00     0.021 A 
BRANCH  13  16
ATOM     16  O   UNL d   1      62.737  43.873  49.733  0.00  0.00    -0.328 OA
ATOM     17  C   UNL d   1      62.648  43.159  50.137  0.00  0.00     0.181 C 
ENDBRANCH  13  16
ENDBRANCH   3  10
BRANCH   9  18
ATOM     18  C   UNL d   1      58.988  49.704  51.018  0.00  0.00     0.000 C 
BRANCH  18  19
ATOM     19  C   UNL d   1      58.211  49.704  50.754  0.00  0.00     0.000 A 
ATOM     20  C   UNL d   1      57.590  49.701  51.295  0.00  0.00     0.000 A 
ATOM     21  C   UNL d   1      56.808  49.701  51.027  0.00  0.00     0.000 A 
ATOM     22  C   UNL d   1      56.649  49.703  50.213  0.00  0.00     0.000 A 
ATOM     23  C   UNL d   1      57.274  49.706  49.671  0.00  0.00     0.000 A 
ATOM     24  C   UNL d   1      58.053  49.707  49.940  0.00  0.00     0.000 A 
ENDBRANCH  18  19
ENDBRANCH   9  18
TORSDOF 4
ENDMDL
