MODEL 1
REMARK VINA RESULT:      56.6      0.000      0.000
REMARK  3 active torsions:
REMARK  status: ('A' for Active; 'I' for Inactive)
REMARK    1  A    between atoms: C_7  and  C_1 
REMARK    2  A    between atoms: C_6  and  C_3 
REMARK    3  A    between atoms: O_15  and  C_7 
ROOT
ATOM      1  C   UNL d   1      60.650  48.750  50.964  0.00  0.00     0.167 A 
ATOM      2  C   UNL d   1      60.497  47.936  50.948  0.00  0.00     0.047 A 
ATOM      3  C   UNL d   1      61.140  47.564  50.588  0.00  0.00     0.105 A 
ATOM      4  N   UNL d   1      61.692  48.147  50.381  0.00  0.00    -0.148 NA
ATOM      5  N   UNL d   1      61.383  48.874  50.616  0.00  0.00    -0.143 NA
ENDROOT
BRANCH   3   6
ATOM      6  C   UNL d   1      61.220  46.750  50.457  0.00  0.00     0.030 A 
ATOM      7  C   UNL d   1      61.670  46.478  49.820  0.00  0.00     0.060 A 
ATOM      8  C   UNL d   1      61.752  45.672  49.686  0.00  0.00     0.023 A 
ATOM      9 CL   UNL d   1      62.036  47.023  49.319  0.00  0.00    -0.082 Cl
ATOM     10  C   UNL d   1      61.380  45.126  50.195  0.00  0.00     0.059 A 
ATOM     11  C   UNL d   1      60.930  45.407  50.832  0.00  0.00     0.011 A 
ATOM     12 CL   UNL d   1      61.462  44.319  50.061  0.00  0.00    -0.082 Cl
ATOM     13  C   UNL d   1      60.851  46.217  50.962  0.00  0.00     0.003 A 
ENDBRANCH   3   6
BRANCH   1  14
ATOM     14  C   UNL d   1      60.153  49.328  51.275  0.00  0.00     0.316 C 
ATOM     15  O   UNL d   1      60.357  49.704  51.980  0.00  0.00    -0.257 OA
BRANCH  14  16
ATOM     16  O   UNL d   1      59.455  49.532  50.883  0.00  0.00    -0.294 OA
ATOM     17  C   UNL d   1      58.774  49.707  51.308  0.00  0.00     0.185 C 
ENDBRANCH  14  16
ENDBRANCH   1  14
TORSDOF 3
ENDMDL
