MODEL 1
REMARK VINA RESULT:      -4.0      0.000      0.000
REMARK  6 active torsions:
REMARK  status: ('A' for Active; 'I' for Inactive)
REMARK    1  A    between atoms: C_6  and  C_1 
REMARK    2  A    between atoms: C_9  and  N_3 
REMARK       I    between atoms: N_7  and  C_6 
REMARK    3  A    between atoms: C_8  and  N_7 
REMARK    4  A    between atoms: C_14  and  C_9 
REMARK    5  A    between atoms: O_21  and  C_12 
REMARK    6  A    between atoms: O_22  and  C_19 
ROOT
ATOM      1  C   UNL d   1      57.377  -0.584  31.004  0.00  0.00     0.199 A 
ATOM      2  C   UNL d   1      57.807  -0.181  30.419  0.00  0.00     0.211 A 
ATOM      3  N   UNL d   1      58.183  -0.744  29.945  0.00  0.00    -0.190 N 
ATOM      4  N   UNL d   1      57.489  -1.395  30.888  0.00  0.00    -0.122 NA
ATOM      5  N   UNL d   1      57.989  -1.492  30.231  0.00  0.00    -0.058 NA
ATOM      6  N   UNL d   1      57.853   0.640  30.327  0.00  0.00    -0.125 N 
ENDROOT
BRANCH   1   7
ATOM      7  C   UNL d   1      56.921  -0.233  31.592  0.00  0.00     0.302 C 
ATOM      8  N   UNL d   1      57.051  -0.433  32.384  0.00  0.00    -0.205 NA
ATOM      9  O   UNL d   1      56.339   0.317  31.394  0.00  0.00    -0.263 OA
BRANCH   8  10
ATOM     10  C   UNL d   1      56.592  -0.079  32.980  0.00  0.00     0.108 A 
ATOM     11  C   UNL d   1      55.770  -0.087  32.927  0.00  0.00     0.033 A 
ATOM     12  C   UNL d   1      55.314   0.265  33.519  0.00  0.00     0.059 A 
ATOM     13 CL   UNL d   1      54.489   0.253  33.460  0.00  0.00    -0.082 Cl
ATOM     14  C   UNL d   1      55.682   0.626  34.166  0.00  0.00     0.013 A 
ATOM     15  C   UNL d   1      56.515   0.633  34.219  0.00  0.00     0.027 A 
ATOM     16  C   UNL d   1      56.964   0.279  33.622  0.00  0.00     0.112 A 
BRANCH  16  17
ATOM     17  O   UNL d   1      57.790   0.286  33.673  0.00  0.00    -0.327 OA
ATOM     18  C   UNL d   1      58.159   0.682  34.295  0.00  0.00     0.181 C 
ENDBRANCH  16  17
ENDBRANCH   8  10
ENDBRANCH   1   7
BRANCH   3  19
ATOM     19  C   UNL d   1      58.669  -0.594  29.297  0.00  0.00     0.104 C 
BRANCH  19  20
ATOM     20  C   UNL d   1      59.404  -0.954  29.226  0.00  0.00     0.021 A 
ATOM     21  C   UNL d   1      59.465  -1.751  29.029  0.00  0.00     0.026 A 
ATOM     22  C   UNL d   1      60.201  -2.107  28.959  0.00  0.00     0.094 A 
ATOM     23  C   UNL d   1      60.894  -1.668  29.086  0.00  0.00     0.024 A 
ATOM     24  C   UNL d   1      60.832  -0.858  29.286  0.00  0.00     0.002 A 
ATOM     25  C   UNL d   1      60.093  -0.509  29.354  0.00  0.00     0.002 A 
BRANCH  22  26
ATOM     26  O   UNL d   1      60.254  -2.906  28.761  0.00  0.00    -0.328 OA
ATOM     27  C   UNL d   1      60.975  -3.229  28.524  0.00  0.00     0.181 C 
ENDBRANCH  22  26
ENDBRANCH  19  20
ENDBRANCH   3  19
TORSDOF 6
ENDMDL
MODEL 2
REMARK VINA RESULT:      -3.7      2.048      5.621
REMARK  6 active torsions:
REMARK  status: ('A' for Active; 'I' for Inactive)
REMARK    1  A    between atoms: C_6  and  C_1 
REMARK    2  A    between atoms: C_9  and  N_3 
REMARK       I    between atoms: N_7  and  C_6 
REMARK    3  A    between atoms: C_8  and  N_7 
REMARK    4  A    between atoms: C_14  and  C_9 
REMARK    5  A    between atoms: O_21  and  C_12 
REMARK    6  A    between atoms: O_22  and  C_19 
ROOT
ATOM      1  C   UNL d   1      57.922   0.257  30.858  0.00  0.00     0.199 A 
ATOM      2  C   UNL d   1      57.948   0.288  31.688  0.00  0.00     0.211 A 
ATOM      3  N   UNL d   1      57.186   0.453  31.961  0.00  0.00    -0.190 N 
ATOM      4  N   UNL d   1      57.143   0.402  30.623  0.00  0.00    -0.122 NA
ATOM      5  N   UNL d   1      56.688   0.524  31.308  0.00  0.00    -0.058 NA
ATOM      6  N   UNL d   1      58.619   0.175  32.159  0.00  0.00    -0.125 N 
ENDROOT
BRANCH   1   7
ATOM      7  C   UNL d   1      58.562   0.106  30.364  0.00  0.00     0.302 C 
ATOM      8  N   UNL d   1      58.602  -0.612  29.955  0.00  0.00    -0.205 NA
ATOM      9  O   UNL d   1      59.161   0.667  30.276  0.00  0.00    -0.263 OA
BRANCH   8  10
ATOM     10  C   UNL d   1      59.248  -0.767  29.456  0.00  0.00     0.108 A 
ATOM     11  C   UNL d   1      59.866  -0.225  29.401  0.00  0.00     0.033 A 
ATOM     12  C   UNL d   1      60.508  -0.379  28.904  0.00  0.00     0.059 A 
ATOM     13 CL   UNL d   1      61.126   0.170  28.853  0.00  0.00    -0.082 Cl
ATOM     14  C   UNL d   1      60.531  -1.077  28.461  0.00  0.00     0.013 A 
ATOM     15  C   UNL d   1      59.905  -1.625  28.517  0.00  0.00     0.027 A 
ATOM     16  C   UNL d   1      59.266  -1.464  29.016  0.00  0.00     0.112 A 
BRANCH  16  17
ATOM     17  O   UNL d   1      58.644  -2.007  29.073  0.00  0.00    -0.327 OA
ATOM     18  C   UNL d   1      58.745  -2.776  28.795  0.00  0.00     0.181 C 
ENDBRANCH  16  17
ENDBRANCH   8  10
ENDBRANCH   1   7
BRANCH   3  19
ATOM     19  C   UNL d   1      56.954   0.535  32.748  0.00  0.00     0.104 C 
BRANCH  19  20
ATOM     20  C   UNL d   1      56.279   0.163  33.031  0.00  0.00     0.021 A 
ATOM     21  C   UNL d   1      55.617   0.601  33.252  0.00  0.00     0.026 A 
ATOM     22  C   UNL d   1      54.945   0.225  33.535  0.00  0.00     0.094 A 
ATOM     23  C   UNL d   1      54.922  -0.602  33.602  0.00  0.00     0.024 A 
ATOM     24  C   UNL d   1      55.594  -1.047  33.377  0.00  0.00     0.002 A 
ATOM     25  C   UNL d   1      56.263  -0.664  33.096  0.00  0.00     0.002 A 
BRANCH  22  26
ATOM     26  O   UNL d   1      54.286   0.671  33.754  0.00  0.00    -0.328 OA
ATOM     27  C   UNL d   1      54.027   0.673  34.537  0.00  0.00     0.181 C 
ENDBRANCH  22  26
ENDBRANCH  19  20
ENDBRANCH   3  19
TORSDOF 6
ENDMDL
MODEL 3
REMARK VINA RESULT:      -2.3      8.572     10.176
REMARK  6 active torsions:
REMARK  status: ('A' for Active; 'I' for Inactive)
REMARK    1  A    between atoms: C_6  and  C_1 
REMARK    2  A    between atoms: C_9  and  N_3 
REMARK       I    between atoms: N_7  and  C_6 
REMARK    3  A    between atoms: C_8  and  N_7 
REMARK    4  A    between atoms: C_14  and  C_9 
REMARK    5  A    between atoms: O_21  and  C_12 
REMARK    6  A    between atoms: O_22  and  C_19 
ROOT
ATOM      1  C   UNL d   1      58.845  -9.792  32.484  0.00  0.00     0.199 A 
ATOM      2  C   UNL d   1      58.541  -9.781  33.258  0.00  0.00     0.211 A 
ATOM      3  N   UNL d   1      59.180  -9.781  33.782  0.00  0.00    -0.190 N 
ATOM      4  N   UNL d   1      59.670  -9.799  32.536  0.00  0.00    -0.122 NA
ATOM      5  N   UNL d   1      59.875  -9.793  33.341  0.00  0.00    -0.058 NA
ATOM      6  N   UNL d   1      57.740  -9.770  33.466  0.00  0.00    -0.125 N 
ENDROOT
BRANCH   1   7
ATOM      7  C   UNL d   1      58.398  -9.795  31.794  0.00  0.00     0.302 C 
ATOM      8  N   UNL d   1      58.780  -9.808  31.060  0.00  0.00    -0.205 NA
ATOM      9  O   UNL d   1      57.574  -9.786  31.832  0.00  0.00    -0.263 OA
BRANCH   8  10
ATOM     10  C   UNL d   1      58.331  -9.811  30.361  0.00  0.00     0.108 A 
ATOM     11  C   UNL d   1      57.508  -9.812  30.399  0.00  0.00     0.033 A 
ATOM     12  C   UNL d   1      57.061  -9.816  29.705  0.00  0.00     0.059 A 
ATOM     13 CL   UNL d   1      56.235  -9.817  29.750  0.00  0.00    -0.082 Cl
ATOM     14  C   UNL d   1      57.439  -9.818  28.969  0.00  0.00     0.013 A 
ATOM     15  C   UNL d   1      58.272  -9.817  28.930  0.00  0.00     0.027 A 
ATOM     16  C   UNL d   1      58.712  -9.814  29.631  0.00  0.00     0.112 A 
BRANCH  16  17
ATOM     17  O   UNL d   1      59.539  -9.812  29.594  0.00  0.00    -0.327 OA
ATOM     18  C   UNL d   1      59.924  -9.356  29.025  0.00  0.00     0.181 C 
ENDBRANCH  16  17
ENDBRANCH   8  10
ENDBRANCH   1   7
BRANCH   3  19
ATOM     19  C   UNL d   1      59.137  -9.771  34.605  0.00  0.00     0.104 C 
BRANCH  19  20
ATOM     20  C   UNL d   1      59.649  -9.307  35.050  0.00  0.00     0.021 A 
ATOM     21  C   UNL d   1      59.468  -8.521  35.216  0.00  0.00     0.026 A 
ATOM     22  C   UNL d   1      59.981  -8.061  35.661  0.00  0.00     0.094 A 
ATOM     23  C   UNL d   1      60.690  -8.382  35.950  0.00  0.00     0.024 A 
ATOM     24  C   UNL d   1      60.873  -9.180  35.782  0.00  0.00     0.002 A 
ATOM     25  C   UNL d   1      60.356  -9.634  35.337  0.00  0.00     0.002 A 
BRANCH  22  26
ATOM     26  O   UNL d   1      59.793  -7.274  35.822  0.00  0.00    -0.328 OA
ATOM     27  C   UNL d   1      60.392  -6.717  35.931  0.00  0.00     0.181 C 
ENDBRANCH  22  26
ENDBRANCH  19  20
ENDBRANCH   3  19
TORSDOF 6
ENDMDL
