MODEL 1
REMARK VINA RESULT:       9.2      0.000      0.000
REMARK  1 active torsions:
REMARK  status: ('A' for Active; 'I' for Inactive)
REMARK    1  A    between atoms: C_10  and  C_7 
ROOT
ATOM      1  N   UNL d   1      24.059  12.734  -1.302  0.00  0.00    -0.259 N 
ATOM      2  C   UNL d   1      24.515  12.030  -1.249  0.00  0.00     0.202 A 
ATOM      3  C   UNL d   1      23.829  12.917  -0.551  0.00  0.00     0.227 A 
ATOM      4  C   UNL d   1      24.034  12.938  -2.056  0.00  0.00     0.091 A 
ATOM      5  S   UNL d   1      24.757  11.823  -1.981  0.00  0.00    -0.047 SA
ATOM      6  N   UNL d   1      24.545  11.810  -0.464  0.00  0.00    -0.121 NA
ATOM      7  C   UNL d   1      24.455  12.394  -2.484  0.00  0.00     0.050 A 
ATOM      8  N   UNL d   1      24.108  12.377  -0.029  0.00  0.00    -0.116 NA
ATOM      9  S   UNL d   1      23.345  13.609  -0.359  0.00  0.00    -0.036 SA
ENDROOT
BRANCH   7  10
ATOM     10  C   UNL d   1      24.530  12.458  -3.284  0.00  0.00     0.007 A 
ATOM     11  C   UNL d   1      24.568  13.216  -3.613  0.00  0.00     0.001 A 
ATOM     12  C   UNL d   1      24.644  13.321  -4.428  0.00  0.00     0.000 A 
ATOM     13  C   UNL d   1      24.681  12.624  -4.904  0.00  0.00     0.000 A 
ATOM     14  C   UNL d   1      24.644  11.869  -4.584  0.00  0.00     0.000 A 
ATOM     15  C   UNL d   1      24.763  12.640  -5.786  0.00  0.00     0.000 C 
ATOM     16  C   UNL d   1      24.567  11.780  -3.767  0.00  0.00     0.001 A 
ENDBRANCH   7  10
TORSDOF 1
ENDMDL
