MODEL 1
REMARK VINA RESULT:      49.3      0.000      0.000
REMARK  6 active torsions:
REMARK  status: ('A' for Active; 'I' for Inactive)
REMARK    1  A    between atoms: C_2  and  S_1 
REMARK    2  A    between atoms: N_5  and  S_1 
REMARK    3  A    between atoms: C_9  and  N_5 
REMARK    4  A    between atoms: C_11  and  C_9 
REMARK       I    between atoms: N_17  and  C_11 
REMARK    5  A    between atoms: C_16  and  C_21 
REMARK    6  A    between atoms: C_21  and  N_17 
ROOT
ATOM      1  C   UNL d   1     -49.025  27.673  34.496  0.00  0.00     0.299 C 
ATOM      2  N   UNL d   1     -49.650  27.563  33.977  0.00  0.00    -0.203 NA
ATOM      3  O   UNL d   1     -48.401  27.106  34.529  0.00  0.00    -0.263 OA
ENDROOT
BRANCH   1   4
ATOM      4  C   UNL d   1     -49.005  28.334  34.986  0.00  0.00     0.174 C 
BRANCH   4   5
ATOM      5  N   UNL d   1     -48.286  28.565  35.344  0.00  0.00    -0.151 NA
BRANCH   5   6
ATOM      6  S   UNL d   1     -48.013  29.347  35.257  0.00  0.00     0.291 S 
ATOM      7  O   UNL d   1     -48.593  29.488  34.672  0.00  0.00    -0.198 OA
ATOM      8  O   UNL d   1     -47.442  29.215  35.832  0.00  0.00    -0.198 OA
BRANCH   6   9
ATOM      9  C   UNL d   1     -47.749  30.127  35.164  0.00  0.00     0.135 A 
ATOM     10  S   UNL d   1     -48.211  30.736  34.914  0.00  0.00    -0.067 SA
ATOM     11  C   UNL d   1     -47.735  31.428  34.895  0.00  0.00     0.065 A 
ATOM     12 BR   UNL d   1     -47.987  32.196  34.667  0.00  0.00    -0.042 Br
ATOM     13  C   UNL d   1     -46.990  31.225  35.134  0.00  0.00     0.015 A 
ATOM     14  C   UNL d   1     -46.989  30.415  35.304  0.00  0.00     0.021 A 
ENDBRANCH   6   9
ENDBRANCH   5   6
ENDBRANCH   4   5
ENDBRANCH   1   4
BRANCH   2  15
ATOM     15  C   UNL d   1     -49.670  26.892  33.479  0.00  0.00     0.129 C 
BRANCH  15  16
ATOM     16  C   UNL d   1     -50.366  26.434  33.436  0.00  0.00     0.144 A 
ATOM     17  O   UNL d   1     -50.339  25.623  33.437  0.00  0.00    -0.301 OA
ATOM     18  C   UNL d   1     -51.029  25.191  33.394  0.00  0.00     0.123 A 
ATOM     19  C   UNL d   1     -51.001  24.366  33.396  0.00  0.00     0.027 A 
ATOM     20  C   UNL d   1     -51.758  25.571  33.350  0.00  0.00     0.123 A 
ATOM     21  C   UNL d   1     -51.698  23.923  33.352  0.00  0.00     0.002 A 
ATOM     22  C   UNL d   1     -52.425  24.306  33.308  0.00  0.00     0.002 A 
ATOM     23  C   UNL d   1     -52.450  25.138  33.307  0.00  0.00     0.027 A 
ATOM     24  O   UNL d   1     -51.790  26.389  33.348  0.00  0.00    -0.301 OA
ATOM     25  C   UNL d   1     -51.093  26.817  33.391  0.00  0.00     0.149 A 
ENDBRANCH  15  16
ENDBRANCH   2  15
TORSDOF 6
ENDMDL
MODEL 2
REMARK VINA RESULT:      50.1      1.098      1.738
REMARK  6 active torsions:
REMARK  status: ('A' for Active; 'I' for Inactive)
REMARK    1  A    between atoms: C_2  and  S_1 
REMARK    2  A    between atoms: N_5  and  S_1 
REMARK    3  A    between atoms: C_9  and  N_5 
REMARK    4  A    between atoms: C_11  and  C_9 
REMARK       I    between atoms: N_17  and  C_11 
REMARK    5  A    between atoms: C_16  and  C_21 
REMARK    6  A    between atoms: C_21  and  N_17 
ROOT
ATOM      1  C   UNL d   1     -49.919  27.083  33.840  0.00  0.00     0.299 C 
ATOM      2  N   UNL d   1     -50.218  26.465  33.391  0.00  0.00    -0.203 NA
ATOM      3  O   UNL d   1     -50.448  27.623  34.216  0.00  0.00    -0.263 OA
ENDROOT
BRANCH   1   4
ATOM      4  C   UNL d   1     -49.106  27.178  33.924  0.00  0.00     0.174 C 
BRANCH   4   5
ATOM      5  N   UNL d   1     -48.769  27.213  34.688  0.00  0.00    -0.151 NA
BRANCH   5   6
ATOM      6  S   UNL d   1     -48.491  27.940  34.985  0.00  0.00     0.291 S 
ATOM      7  O   UNL d   1     -47.814  27.885  34.497  0.00  0.00    -0.198 OA
ATOM      8  O   UNL d   1     -49.153  28.000  35.466  0.00  0.00    -0.198 OA
BRANCH   6   9
ATOM      9  C   UNL d   1     -48.206  28.662  35.274  0.00  0.00     0.135 A 
ATOM     10  S   UNL d   1     -48.030  29.298  34.813  0.00  0.00    -0.067 SA
ATOM     11  C   UNL d   1     -47.760  29.913  35.318  0.00  0.00     0.065 A 
ATOM     12 BR   UNL d   1     -47.515  30.680  35.077  0.00  0.00    -0.042 Br
ATOM     13  C   UNL d   1     -47.778  29.639  36.078  0.00  0.00     0.015 A 
ATOM     14  C   UNL d   1     -48.054  28.859  36.060  0.00  0.00     0.021 A 
ENDBRANCH   6   9
ENDBRANCH   5   6
ENDBRANCH   4   5
ENDBRANCH   1   4
BRANCH   2  15
ATOM     15  C   UNL d   1     -51.044  26.368  33.306  0.00  0.00     0.129 C 
BRANCH  15  16
ATOM     16  C   UNL d   1     -51.369  25.600  33.306  0.00  0.00     0.144 A 
ATOM     17  O   UNL d   1     -52.172  25.482  33.306  0.00  0.00    -0.301 OA
ATOM     18  C   UNL d   1     -52.473  24.724  33.307  0.00  0.00     0.123 A 
ATOM     19  C   UNL d   1     -53.290  24.604  33.306  0.00  0.00     0.027 A 
ATOM     20  C   UNL d   1     -51.969  24.074  33.308  0.00  0.00     0.123 A 
ATOM     21  C   UNL d   1     -53.601  23.838  33.307  0.00  0.00     0.002 A 
ATOM     22  C   UNL d   1     -53.094  23.190  33.308  0.00  0.00     0.002 A 
ATOM     23  C   UNL d   1     -52.271  23.314  33.309  0.00  0.00     0.027 A 
ATOM     24  O   UNL d   1     -51.158  24.188  33.308  0.00  0.00    -0.301 OA
ATOM     25  C   UNL d   1     -50.862  24.952  33.308  0.00  0.00     0.149 A 
ENDBRANCH  15  16
ENDBRANCH   2  15
TORSDOF 6
ENDMDL
MODEL 3
REMARK VINA RESULT:      50.3      2.220      6.069
REMARK  6 active torsions:
REMARK  status: ('A' for Active; 'I' for Inactive)
REMARK    1  A    between atoms: C_2  and  S_1 
REMARK    2  A    between atoms: N_5  and  S_1 
REMARK    3  A    between atoms: C_9  and  N_5 
REMARK    4  A    between atoms: C_11  and  C_9 
REMARK       I    between atoms: N_17  and  C_11 
REMARK    5  A    between atoms: C_16  and  C_21 
REMARK    6  A    between atoms: C_21  and  N_17 
ROOT
ATOM      1  C   UNL d   1     -48.718  28.115  35.018  0.00  0.00     0.299 C 
ATOM      2  N   UNL d   1     -48.578  28.922  35.037  0.00  0.00    -0.203 NA
ATOM      3  O   UNL d   1     -48.175  27.585  35.388  0.00  0.00    -0.263 OA
ENDROOT
BRANCH   1   4
ATOM      4  C   UNL d   1     -49.387  27.819  34.641  0.00  0.00     0.174 C 
BRANCH   4   5
ATOM      5  N   UNL d   1     -49.304  27.346  33.957  0.00  0.00    -0.151 NA
BRANCH   5   6
ATOM      6  S   UNL d   1     -49.859  26.748  33.797  0.00  0.00     0.291 S 
ATOM      7  O   UNL d   1     -49.306  26.359  33.306  0.00  0.00    -0.198 OA
ATOM      8  O   UNL d   1     -50.409  27.124  34.278  0.00  0.00    -0.198 OA
BRANCH   6   9
ATOM      9  C   UNL d   1     -50.406  26.146  33.631  0.00  0.00     0.135 A 
ATOM     10  S   UNL d   1     -51.203  26.249  33.615  0.00  0.00    -0.067 SA
ATOM     11  C   UNL d   1     -51.554  25.509  33.427  0.00  0.00     0.065 A 
ATOM     12 BR   UNL d   1     -52.376  25.355  33.350  0.00  0.00    -0.042 Br
ATOM     13  C   UNL d   1     -50.960  24.968  33.333  0.00  0.00     0.015 A 
ATOM     14  C   UNL d   1     -50.240  25.357  33.459  0.00  0.00     0.021 A 
ENDBRANCH   6   9
ENDBRANCH   5   6
ENDBRANCH   4   5
ENDBRANCH   1   4
BRANCH   2  15
ATOM     15  C   UNL d   1     -47.899  29.223  35.420  0.00  0.00     0.129 C 
BRANCH  15  16
ATOM     16  C   UNL d   1     -47.689  30.023  35.315  0.00  0.00     0.144 A 
ATOM     17  O   UNL d   1     -48.077  30.494  34.780  0.00  0.00    -0.301 OA
ATOM     18  C   UNL d   1     -47.859  31.275  34.689  0.00  0.00     0.123 A 
ATOM     19  C   UNL d   1     -48.254  31.754  34.146  0.00  0.00     0.027 A 
ATOM     20  C   UNL d   1     -47.246  31.592  35.137  0.00  0.00     0.123 A 
ATOM     21  C   UNL d   1     -48.038  32.546  34.050  0.00  0.00     0.002 A 
ATOM     22  C   UNL d   1     -47.424  32.860  34.499  0.00  0.00     0.002 A 
ATOM     23  C   UNL d   1     -47.027  32.375  35.047  0.00  0.00     0.027 A 
ATOM     24  O   UNL d   1     -46.851  31.121  35.678  0.00  0.00    -0.301 OA
ATOM     25  C   UNL d   1     -47.075  30.337  35.764  0.00  0.00     0.149 A 
ENDBRANCH  15  16
ENDBRANCH   2  15
TORSDOF 6
ENDMDL
MODEL 4
REMARK VINA RESULT:      51.9      2.719      6.124
REMARK  6 active torsions:
REMARK  status: ('A' for Active; 'I' for Inactive)
REMARK    1  A    between atoms: C_2  and  S_1 
REMARK    2  A    between atoms: N_5  and  S_1 
REMARK    3  A    between atoms: C_9  and  N_5 
REMARK    4  A    between atoms: C_11  and  C_9 
REMARK       I    between atoms: N_17  and  C_11 
REMARK    5  A    between atoms: C_16  and  C_21 
REMARK    6  A    between atoms: C_21  and  N_17 
ROOT
ATOM      1  C   UNL d   1     -49.944  26.847  34.503  0.00  0.00     0.299 C 
ATOM      2  N   UNL d   1     -49.528  27.554  34.479  0.00  0.00    -0.203 NA
ATOM      3  O   UNL d   1     -49.997  26.415  35.225  0.00  0.00    -0.263 OA
ENDROOT
BRANCH   1   4
ATOM      4  C   UNL d   1     -50.309  26.559  33.824  0.00  0.00     0.174 C 
BRANCH   4   5
ATOM      5  N   UNL d   1     -50.066  25.828  33.499  0.00  0.00    -0.151 NA
BRANCH   5   6
ATOM      6  S   UNL d   1     -50.603  25.194  33.457  0.00  0.00     0.291 S 
ATOM      7  O   UNL d   1     -51.228  25.728  33.306  0.00  0.00    -0.198 OA
ATOM      8  O   UNL d   1     -49.994  24.664  33.606  0.00  0.00    -0.198 OA
BRANCH   6   9
ATOM      9  C   UNL d   1     -51.146  24.570  33.414  0.00  0.00     0.135 A 
ATOM     10  S   UNL d   1     -51.945  24.658  33.461  0.00  0.00    -0.067 SA
ATOM     11  C   UNL d   1     -52.291  23.895  33.394  0.00  0.00     0.065 A 
ATOM     12 BR   UNL d   1     -53.113  23.722  33.413  0.00  0.00    -0.042 Br
ATOM     13  C   UNL d   1     -51.695  23.357  33.306  0.00  0.00     0.015 A 
ATOM     14  C   UNL d   1     -50.977  23.768  33.318  0.00  0.00     0.021 A 
ENDBRANCH   6   9
ENDBRANCH   5   6
ENDBRANCH   4   5
ENDBRANCH   1   4
BRANCH   2  15
ATOM     15  C   UNL d   1     -49.157  27.847  35.168  0.00  0.00     0.129 C 
BRANCH  15  16
ATOM     16  C   UNL d   1     -48.746  28.572  35.136  0.00  0.00     0.144 A 
ATOM     17  O   UNL d   1     -48.235  28.794  35.726  0.00  0.00    -0.301 OA
ATOM     18  C   UNL d   1     -47.841  29.506  35.679  0.00  0.00     0.123 A 
ATOM     19  C   UNL d   1     -47.321  29.731  36.278  0.00  0.00     0.027 A 
ATOM     20  C   UNL d   1     -47.957  30.006  35.036  0.00  0.00     0.123 A 
ATOM     21  C   UNL d   1     -46.919  30.452  36.236  0.00  0.00     0.002 A 
ATOM     22  C   UNL d   1     -47.038  30.950  35.592  0.00  0.00     0.002 A 
ATOM     23  C   UNL d   1     -47.563  30.721  34.988  0.00  0.00     0.027 A 
ATOM     24  O   UNL d   1     -48.473  29.787  34.438  0.00  0.00    -0.301 OA
ATOM     25  C   UNL d   1     -48.865  29.070  34.491  0.00  0.00     0.149 A 
ENDBRANCH  15  16
ENDBRANCH   2  15
TORSDOF 6
ENDMDL
