MODEL 1
REMARK VINA RESULT:      64.7      0.000      0.000
REMARK  8 active torsions:
REMARK  status: ('A' for Active; 'I' for Inactive)
REMARK    1  A    between atoms: C_14  and  N_1 
REMARK    2  A    between atoms: N_9  and  C_2 
REMARK    3  A    between atoms: C_6  and  C_5 
REMARK    4  A    between atoms: C_7  and  C_6 
REMARK       I    between atoms: N_8  and  C_7 
REMARK    5  A    between atoms: C_10  and  N_8 
REMARK    6  A    between atoms: C_16  and  N_9 
REMARK    7  A    between atoms: O_15  and  C_13 
REMARK    8  A    between atoms: C_19  and  O_15 
ROOT
ATOM      1  C   UNL d   1      59.140  49.286  51.631  0.00  0.00     0.074 C 
ENDROOT
BRANCH   1   2
ATOM      2  C   UNL d   1      58.377  49.402  51.335  0.00  0.00     0.093 A 
ATOM      3  C   UNL d   1      57.683  49.451  51.779  0.00  0.00     0.272 A 
ATOM      4  N   UNL d   1      57.049  49.570  51.263  0.00  0.00    -0.252 N 
ATOM      5  O   UNL d   1      57.633  49.391  52.603  0.00  0.00    -0.266 OA
ATOM      6  C   UNL d   1      57.352  49.595  50.494  0.00  0.00     0.182 A 
ATOM      7  S   UNL d   1      58.167  49.493  50.533  0.00  0.00    -0.045 SA
BRANCH   4   8
ATOM      8  C   UNL d   1      56.261  49.647  51.484  0.00  0.00     0.085 C 
ATOM      9  C   UNL d   1      56.055  49.695  52.279  0.00  0.00     0.021 C 
ENDBRANCH   4   8
BRANCH   6  10
ATOM     10  N   UNL d   1      56.908  49.704  49.811  0.00  0.00    -0.221 NA
BRANCH  10  11
ATOM     11  C   UNL d   1      56.402  49.115  49.541  0.00  0.00     0.101 C 
ATOM     12  C   UNL d   1      56.555  48.717  48.834  0.00  0.00     0.022 C 
ENDBRANCH  10  11
ENDBRANCH   6  10
ENDBRANCH   1   2
BRANCH   1  13
ATOM     13  C   UNL d   1      59.762  49.131  51.112  0.00  0.00     0.280 C 
ATOM     14  N   UNL d   1      60.439  48.755  51.377  0.00  0.00    -0.206 NA
ATOM     15  O   UNL d   1      59.694  49.359  50.324  0.00  0.00    -0.265 OA
BRANCH  14  16
ATOM     16  C   UNL d   1      61.060  48.601  50.855  0.00  0.00     0.107 A 
ATOM     17  C   UNL d   1      61.306  47.827  50.719  0.00  0.00     0.118 A 
ATOM     18  C   UNL d   1      61.926  47.673  50.197  0.00  0.00     0.026 A 
ATOM     19  C   UNL d   1      62.302  48.308  49.810  0.00  0.00     0.002 A 
ATOM     20  C   UNL d   1      62.058  49.077  49.944  0.00  0.00     0.002 A 
ATOM     21  C   UNL d   1      61.438  49.235  50.465  0.00  0.00     0.021 A 
BRANCH  17  22
ATOM     22  O   UNL d   1      60.926  47.205  51.110  0.00  0.00    -0.304 OA
BRANCH  22  23
ATOM     23  C   UNL d   1      61.373  46.631  51.492  0.00  0.00     0.123 C 
ATOM     24  C   UNL d   1      61.064  45.876  51.614  0.00  0.00     0.029 C 
ENDBRANCH  22  23
ENDBRANCH  17  22
ENDBRANCH  14  16
ENDBRANCH   1  13
TORSDOF 8
ENDMDL
MODEL 2
REMARK VINA RESULT:      65.1      1.606      2.728
REMARK  8 active torsions:
REMARK  status: ('A' for Active; 'I' for Inactive)
REMARK    1  A    between atoms: C_14  and  N_1 
REMARK    2  A    between atoms: N_9  and  C_2 
REMARK    3  A    between atoms: C_6  and  C_5 
REMARK    4  A    between atoms: C_7  and  C_6 
REMARK       I    between atoms: N_8  and  C_7 
REMARK    5  A    between atoms: C_10  and  N_8 
REMARK    6  A    between atoms: C_16  and  N_9 
REMARK    7  A    between atoms: O_15  and  C_13 
REMARK    8  A    between atoms: C_19  and  O_15 
ROOT
ATOM      1  C   UNL d   1      61.652  48.608  50.348  0.00  0.00     0.074 C 
ENDROOT
BRANCH   1   2
ATOM      2  C   UNL d   1      60.962  48.936  50.665  0.00  0.00     0.093 A 
ATOM      3  C   UNL d   1      60.834  49.129  51.456  0.00  0.00     0.272 A 
ATOM      4  N   UNL d   1      60.072  49.441  51.530  0.00  0.00    -0.252 N 
ATOM      5  O   UNL d   1      61.377  49.029  52.072  0.00  0.00    -0.266 OA
ATOM      6  C   UNL d   1      59.726  49.439  50.779  0.00  0.00     0.182 A 
ATOM      7  S   UNL d   1      60.269  49.130  50.244  0.00  0.00    -0.045 SA
BRANCH   4   8
ATOM      8  C   UNL d   1      59.728  49.702  52.229  0.00  0.00     0.085 C 
ATOM      9  C   UNL d   1      60.135  49.640  52.941  0.00  0.00     0.021 C 
ENDBRANCH   4   8
BRANCH   6  10
ATOM     10  N   UNL d   1      58.968  49.703  50.603  0.00  0.00    -0.221 NA
BRANCH  10  11
ATOM     11  C   UNL d   1      58.408  49.192  50.287  0.00  0.00     0.101 C 
ATOM     12  C   UNL d   1      57.609  49.402  50.262  0.00  0.00     0.022 C 
ENDBRANCH  10  11
ENDBRANCH   6  10
ENDBRANCH   1   2
BRANCH   1  13
ATOM     13  C   UNL d   1      61.619  47.882  49.958  0.00  0.00     0.280 C 
ATOM     14  N   UNL d   1      61.739  47.185  50.369  0.00  0.00    -0.206 NA
ATOM     15  O   UNL d   1      61.464  47.866  49.150  0.00  0.00    -0.265 OA
BRANCH  14  16
ATOM     16  C   UNL d   1      61.706  46.460  49.977  0.00  0.00     0.107 A 
ATOM     17  C   UNL d   1      61.329  45.815  50.326  0.00  0.00     0.118 A 
ATOM     18  C   UNL d   1      61.296  45.090  49.933  0.00  0.00     0.026 A 
ATOM     19  C   UNL d   1      61.646  45.016  49.181  0.00  0.00     0.002 A 
ATOM     20  C   UNL d   1      62.021  45.655  48.834  0.00  0.00     0.002 A 
ATOM     21  C   UNL d   1      62.056  46.382  49.223  0.00  0.00     0.021 A 
BRANCH  17  22
ATOM     22  O   UNL d   1      60.985  45.902  51.072  0.00  0.00    -0.304 OA
BRANCH  22  23
ATOM     23  C   UNL d   1      60.761  45.234  51.496  0.00  0.00     0.123 C 
ATOM     24  C   UNL d   1      59.961  45.049  51.589  0.00  0.00     0.029 C 
ENDBRANCH  22  23
ENDBRANCH  17  22
ENDBRANCH  14  16
ENDBRANCH   1  13
TORSDOF 8
ENDMDL
