MODEL 1
REMARK VINA RESULT:      55.8      0.000      0.000
REMARK  6 active torsions:
REMARK  status: ('A' for Active; 'I' for Inactive)
REMARK    1  A    between atoms: N_3  and  C_1 
REMARK    2  A    between atoms: C_16  and  N_2 
REMARK       I    between atoms: C_7  and  N_3 
REMARK    3  A    between atoms: C_14  and  C_7 
REMARK    4  A    between atoms: C_10  and  S_11 
REMARK    5  A    between atoms: S_11  and  C_14 
REMARK    6  A    between atoms: O_18  and  C_15 
ROOT
ATOM      1  C   UNL d   1      60.071  49.066  50.712  0.00  0.00     0.182 A 
ATOM      2  N   UNL d   1      60.831  49.108  51.036  0.00  0.00    -0.285 N 
ATOM      3  S   UNL d   1      60.027  48.372  50.258  0.00  0.00    -0.048 SA
ATOM      4  C   UNL d   1      60.763  47.989  50.306  0.00  0.00     0.050 A 
ATOM      5  C   UNL d   1      61.259  48.443  50.785  0.00  0.00     0.072 A 
ATOM      6  C   UNL d   1      61.035  47.282  49.968  0.00  0.00     0.032 A 
ATOM      7  C   UNL d   1      62.028  48.191  50.928  0.00  0.00     0.020 A 
ATOM      8  C   UNL d   1      61.808  47.044  50.121  0.00  0.00     0.095 A 
ATOM      9  C   UNL d   1      62.303  47.498  50.601  0.00  0.00     0.026 A 
ENDROOT
BRANCH   1  10
ATOM     10  N   UNL d   1      59.463  49.616  50.820  0.00  0.00    -0.183 NA
ATOM     11  C   UNL d   1      58.819  49.306  50.397  0.00  0.00     0.288 C 
ATOM     12  O   UNL d   1      58.897  48.586  49.992  0.00  0.00    -0.265 OA
BRANCH  11  13
ATOM     13  C   UNL d   1      58.104  49.708  50.376  0.00  0.00     0.101 C 
BRANCH  13  14
ATOM     14  S   UNL d   1      57.455  49.435  50.816  0.00  0.00    -0.040 SA
BRANCH  14  15
ATOM     15  C   UNL d   1      56.691  49.444  50.483  0.00  0.00     0.226 C 
ATOM     16  O   UNL d   1      56.606  49.345  49.669  0.00  0.00    -0.279 OA
ATOM     17  C   UNL d   1      56.039  49.551  50.964  0.00  0.00     0.053 C 
ENDBRANCH  14  15
ENDBRANCH  13  14
ENDBRANCH  11  13
ENDBRANCH   1  10
BRANCH   2  18
ATOM     18  C   UNL d   1      61.107  49.708  51.521  0.00  0.00     0.082 C 
ATOM     19  C   UNL d   1      61.015  49.664  52.340  0.00  0.00     0.021 C 
ENDBRANCH   2  18
BRANCH   8  20
ATOM     20  O   UNL d   1      62.092  46.339  49.789  0.00  0.00    -0.328 OA
ATOM     21  C   UNL d   1      61.682  45.978  49.180  0.00  0.00     0.181 C 
ENDBRANCH   8  20
TORSDOF 6
ENDMDL
