MODEL 1
REMARK VINA RESULT:      -3.1      0.000      0.000
REMARK  8 active torsions:
REMARK  status: ('A' for Active; 'I' for Inactive)
REMARK    1  A    between atoms: C_4  and  C_1 
REMARK    2  A    between atoms: N_6  and  C_3 
REMARK    3  A    between atoms: O_18  and  C_4 
REMARK       I    between atoms: C_7  and  N_6 
REMARK    4  A    between atoms: C_16  and  C_7 
REMARK    5  A    between atoms: C_10  and  C_8 
REMARK    6  A    between atoms: C_9  and  S_11 
REMARK    7  A    between atoms: S_11  and  C_16 
REMARK    8  A    between atoms: C_24  and  O_18 
ROOT
ATOM      1  N   UNL d   1      31.833  17.636 -23.907  0.00  0.00    -0.207 NA
ATOM      2  C   UNL d   1      32.546  18.045 -23.830  0.00  0.00     0.286 C 
ATOM      3  O   UNL d   1      33.240  17.721 -24.139  0.00  0.00    -0.265 OA
ENDROOT
BRANCH   2   4
ATOM      4  C   UNL d   1      32.565  18.773 -23.448  0.00  0.00     0.099 C 
BRANCH   4   5
ATOM      5  S   UNL d   1      33.090  18.891 -22.828  0.00  0.00    -0.061 SA
BRANCH   5   6
ATOM      6  C   UNL d   1      33.061  19.585 -22.384  0.00  0.00     0.133 A 
ATOM      7  N   UNL d   1      32.906  20.305 -22.743  0.00  0.00    -0.141 NA
ATOM      8  N   UNL d   1      32.877  20.999 -22.299  0.00  0.00    -0.148 NA
ATOM      9  C   UNL d   1      33.004  20.974 -21.480  0.00  0.00     0.104 A 
ATOM     10  C   UNL d   1      33.161  20.248 -21.114  0.00  0.00     0.023 A 
ATOM     11  C   UNL d   1      33.189  19.558 -21.560  0.00  0.00     0.029 A 
BRANCH   9  12
ATOM     12  C   UNL d   1      32.975  21.668 -21.035  0.00  0.00     0.039 A 
ATOM     13  C   UNL d   1      32.687  22.351 -21.372  0.00  0.00     0.101 A 
ATOM     14  N   UNL d   1      32.656  23.042 -20.934  0.00  0.00    -0.242 NA
ATOM     15  C   UNL d   1      32.919  23.043 -20.145  0.00  0.00     0.099 A 
ATOM     16  C   UNL d   1      33.208  22.354 -19.811  0.00  0.00     0.021 A 
ATOM     17  C   UNL d   1      33.241  21.655 -20.248  0.00  0.00     0.005 A 
ENDBRANCH   9  12
ENDBRANCH   5   6
ENDBRANCH   4   5
ENDBRANCH   2   4
BRANCH   1  18
ATOM     18  C   UNL d   1      31.814  16.912 -24.287  0.00  0.00     0.090 A 
ATOM     19  C   UNL d   1      31.108  16.632 -24.608  0.00  0.00     0.081 A 
ATOM     20  C   UNL d   1      31.089  15.904 -24.990  0.00  0.00     0.007 A 
ATOM     21  C   UNL d   1      31.772  15.453 -25.053  0.00  0.00     0.000 A 
ATOM     22  C   UNL d   1      32.491  15.727 -24.731  0.00  0.00     0.002 A 
ATOM     23  C   UNL d   1      32.502  16.459 -24.349  0.00  0.00     0.019 A 
BRANCH  19  24
ATOM     24  C   UNL d   1      30.430  17.087 -24.542  0.00  0.00     0.302 C 
ATOM     25  O   UNL d   1      30.346  17.763 -25.001  0.00  0.00    -0.259 OA
BRANCH  24  26
ATOM     26  O   UNL d   1      29.833  16.871 -24.019  0.00  0.00    -0.271 OA
BRANCH  26  27
ATOM     27  C   UNL d   1      29.044  17.009 -24.217  0.00  0.00     0.126 C 
ATOM     28  C   UNL d   1      28.505  17.215 -23.625  0.00  0.00     0.029 C 
ENDBRANCH  26  27
ENDBRANCH  24  26
ENDBRANCH  19  24
ENDBRANCH   1  18
TORSDOF 8
ENDMDL
MODEL 2
REMARK VINA RESULT:      -2.1      1.952      6.024
REMARK  8 active torsions:
REMARK  status: ('A' for Active; 'I' for Inactive)
REMARK    1  A    between atoms: C_4  and  C_1 
REMARK    2  A    between atoms: N_6  and  C_3 
REMARK    3  A    between atoms: O_18  and  C_4 
REMARK       I    between atoms: C_7  and  N_6 
REMARK    4  A    between atoms: C_16  and  C_7 
REMARK    5  A    between atoms: C_10  and  C_8 
REMARK    6  A    between atoms: C_9  and  S_11 
REMARK    7  A    between atoms: S_11  and  C_16 
REMARK    8  A    between atoms: C_24  and  O_18 
ROOT
ATOM      1  N   UNL d   1      33.007  21.238 -22.156  0.00  0.00    -0.207 NA
ATOM      2  C   UNL d   1      33.151  20.844 -22.866  0.00  0.00     0.286 C 
ATOM      3  O   UNL d   1      33.241  21.276 -23.564  0.00  0.00    -0.265 OA
ENDROOT
BRANCH   2   4
ATOM      4  C   UNL d   1      33.204  20.024 -22.880  0.00  0.00     0.099 C 
BRANCH   4   5
ATOM      5  S   UNL d   1      33.106  19.623 -23.590  0.00  0.00    -0.061 SA
BRANCH   5   6
ATOM      6  C   UNL d   1      32.663  18.928 -23.619  0.00  0.00     0.133 A 
ATOM      7  N   UNL d   1      32.464  18.531 -22.931  0.00  0.00    -0.141 NA
ATOM      8  N   UNL d   1      32.020  17.836 -22.960  0.00  0.00    -0.148 NA
ATOM      9  C   UNL d   1      31.771  17.533 -23.691  0.00  0.00     0.104 A 
ATOM     10  C   UNL d   1      31.970  17.932 -24.387  0.00  0.00     0.023 A 
ATOM     11  C   UNL d   1      32.413  18.625 -24.354  0.00  0.00     0.029 A 
BRANCH   9  12
ATOM     12  C   UNL d   1      31.327  16.838 -23.720  0.00  0.00     0.039 A 
ATOM     13  C   UNL d   1      31.619  16.159 -23.379  0.00  0.00     0.101 A 
ATOM     14  N   UNL d   1      31.182  15.467 -23.405  0.00  0.00    -0.242 NA
ATOM     15  C   UNL d   1      30.440  15.461 -23.783  0.00  0.00     0.099 A 
ATOM     16  C   UNL d   1      30.152  16.146 -24.124  0.00  0.00     0.021 A 
ATOM     17  C   UNL d   1      30.589  16.846 -24.100  0.00  0.00     0.005 A 
ENDBRANCH   9  12
ENDBRANCH   5   6
ENDBRANCH   4   5
ENDBRANCH   2   4
BRANCH   1  18
ATOM     18  C   UNL d   1      32.955  22.054 -22.142  0.00  0.00     0.090 A 
ATOM     19  C   UNL d   1      32.687  22.441 -21.464  0.00  0.00     0.081 A 
ATOM     20  C   UNL d   1      32.635  23.261 -21.451  0.00  0.00     0.007 A 
ATOM     21  C   UNL d   1      32.848  23.700 -22.112  0.00  0.00     0.000 A 
ATOM     22  C   UNL d   1      33.119  23.318 -22.802  0.00  0.00     0.002 A 
ATOM     23  C   UNL d   1      33.169  22.494 -22.807  0.00  0.00     0.019 A 
BRANCH  19  24
ATOM     24  C   UNL d   1      32.476  21.998 -20.808  0.00  0.00     0.302 C 
ATOM     25  O   UNL d   1      31.761  21.595 -20.801  0.00  0.00    -0.259 OA
BRANCH  24  26
ATOM     26  O   UNL d   1      32.976  21.955 -20.157  0.00  0.00    -0.271 OA
BRANCH  26  27
ATOM     27  C   UNL d   1      32.663  21.806 -19.408  0.00  0.00     0.126 C 
ATOM     28  C   UNL d   1      33.103  22.003 -18.736  0.00  0.00     0.029 C 
ENDBRANCH  26  27
ENDBRANCH  24  26
ENDBRANCH  19  24
ENDBRANCH   1  18
TORSDOF 8
ENDMDL
