MODEL 1
REMARK VINA RESULT:      82.7      0.000      0.000
REMARK  4 active torsions:
REMARK  status: ('A' for Active; 'I' for Inactive)
REMARK    1  A    between atoms: C_2  and  C_1 
REMARK    2  A    between atoms: C_15  and  C_8 
REMARK    3  A    between atoms: C_9  and  C_15 
REMARK    4  A    between atoms: C_18  and  C_10 
ROOT
ATOM      1  C   UNL d   1     -55.822-101.031 -44.136  0.00  0.00     0.094 A 
ATOM      2  N   UNL d   1     -55.682-101.356 -43.391  0.00  0.00    -0.238 NA
ATOM      3  C   UNL d   1     -55.066-101.901 -43.462  0.00  0.00     0.113 A 
ATOM      4  S   UNL d   1     -54.824-101.916 -44.245  0.00  0.00    -0.066 SA
ATOM      5  C   UNL d   1     -55.290-101.379 -44.665  0.00  0.00     0.056 A 
ENDROOT
BRANCH   3   6
ATOM      6  C   UNL d   1     -54.750-102.353 -42.846  0.00  0.00     0.051 C 
BRANCH   6   7
ATOM      7  C   UNL d   1     -55.176-102.440 -42.143  0.00  0.00     0.113 A 
ATOM      8  N   UNL d   1     -54.870-102.410 -41.379  0.00  0.00    -0.238 NA
ATOM      9  C   UNL d   1     -55.491-102.525 -40.849  0.00  0.00     0.088 A 
ATOM     10  C   UNL d   1     -56.183-102.626 -41.288  0.00  0.00     0.056 A 
ATOM     11  S   UNL d   1     -55.989-102.574 -42.085  0.00  0.00    -0.066 SA
BRANCH   9  12
ATOM     12  C   UNL d   1     -55.427-102.535 -40.024  0.00  0.00     0.018 A 
ATOM     13  C   UNL d   1     -54.775-102.870 -39.667  0.00  0.00     0.002 A 
ATOM     14  C   UNL d   1     -54.714-102.879 -38.845  0.00  0.00     0.007 A 
ATOM     15  C   UNL d   1     -55.314-102.549 -38.383  0.00  0.00     0.035 A 
ATOM     16  C   UNL d   1     -55.965-102.215 -38.740  0.00  0.00     0.007 A 
ATOM     17 BR   UNL d   1     -55.252-102.559 -37.561  0.00  0.00    -0.049 Br
ATOM     18  C   UNL d   1     -56.030-102.204 -39.565  0.00  0.00     0.002 A 
ENDBRANCH   9  12
ENDBRANCH   6   7
ENDBRANCH   3   6
BRANCH   1  19
ATOM     19  C   UNL d   1     -56.390-100.462 -44.320  0.00  0.00     0.082 A 
ATOM     20  C   UNL d   1     -56.196 -99.830 -44.815  0.00  0.00     0.302 A 
ATOM     21  O   UNL d   1     -56.764 -99.262 -45.000  0.00  0.00    -0.273 OA
ATOM     22  O   UNL d   1     -55.435 -99.768 -45.125  0.00  0.00    -0.259 OA
ATOM     23  C   UNL d   1     -57.527 -99.324 -44.690  0.00  0.00     0.103 A 
ATOM     24  C   UNL d   1     -57.720 -99.956 -44.194  0.00  0.00     0.023 A 
ATOM     25  C   UNL d   1     -58.094 -98.755 -44.874  0.00  0.00     0.025 A 
ATOM     26  C   UNL d   1     -57.152-100.525 -44.010  0.00  0.00     0.009 A 
ATOM     27  C   UNL d   1     -58.482-100.018 -43.885  0.00  0.00     0.002 A 
ATOM     28  C   UNL d   1     -59.046 -99.451 -44.069  0.00  0.00     0.000 A 
ATOM     29  C   UNL d   1     -58.852 -98.819 -44.564  0.00  0.00     0.002 A 
ENDBRANCH   1  19
TORSDOF 4
ENDMDL
