MODEL 1
REMARK VINA RESULT:      64.3      0.000      0.000
REMARK  10 active torsions:
REMARK  status: ('A' for Active; 'I' for Inactive)
REMARK    1  A    between atoms: N_2  and  S_1 
REMARK    2  A    between atoms: C_12  and  S_1 
REMARK    3  A    between atoms: C_4  and  N_2 
REMARK    4  A    between atoms: O_22  and  C_6 
REMARK    5  A    between atoms: C_7  and  N_15 
REMARK    6  A    between atoms: N_8  and  C_7 
REMARK       I    between atoms: C_10  and  N_8 
REMARK    7  A    between atoms: O_23  and  C_9 
REMARK    8  A    between atoms: C_20  and  C_10 
REMARK    9  A    between atoms: N_15  and  C_21 
REMARK   10  A    between atoms: C_26  and  C_20 
ROOT
ATOM      1  C   UNL d   1     -50.121  26.944  34.091  0.00  0.00     0.105 A 
ATOM      2  C   UNL d   1     -50.283  27.388  34.749  0.00  0.00     0.015 A 
ATOM      3  C   UNL d   1     -49.364  26.923  33.790  0.00  0.00     0.015 A 
ATOM      4  C   UNL d   1     -48.922  27.797  34.811  0.00  0.00     0.084 A 
ATOM      5  C   UNL d   1     -49.704  27.822  35.127  0.00  0.00     0.020 A 
ATOM      6  C   UNL d   1     -48.773  27.349  34.152  0.00  0.00     0.020 A 
ENDROOT
BRANCH   1   7
ATOM      7  S   UNL d   1     -50.729  26.496  33.706  0.00  0.00     0.287 S 
ATOM      8  O   UNL d   1     -50.138  26.005  33.373  0.00  0.00    -0.198 OA
ATOM      9  O   UNL d   1     -51.307  26.987  34.039  0.00  0.00    -0.198 OA
BRANCH   7  10
ATOM     10  N   UNL d   1     -51.317  26.045  33.319  0.00  0.00    -0.139 NA
BRANCH  10  11
ATOM     11  C   UNL d   1     -51.308  25.208  33.354  0.00  0.00     0.182 A 
ATOM     12  N   UNL d   1     -51.992  24.806  33.371  0.00  0.00    -0.185 NA
ATOM     13  C   UNL d   1     -52.013  23.976  33.406  0.00  0.00     0.274 A 
ATOM     14  N   UNL d   1     -51.310  23.567  33.423  0.00  0.00    -0.181 NA
ATOM     15  C   UNL d   1     -50.599  23.947  33.406  0.00  0.00     0.185 A 
ATOM     16  C   UNL d   1     -50.595  24.821  33.370  0.00  0.00     0.084 A 
BRANCH  13  17
ATOM     17  O   UNL d   1     -52.730  23.552  33.425  0.00  0.00    -0.297 OA
ATOM     18  C   UNL d   1     -53.414  23.878  33.763  0.00  0.00     0.185 C 
ENDBRANCH  13  17
BRANCH  15  19
ATOM     19  O   UNL d   1     -49.897  23.502  33.424  0.00  0.00    -0.312 OA
ATOM     20  C   UNL d   1     -49.174  23.888  33.317  0.00  0.00     0.183 C 
ENDBRANCH  15  19
ENDBRANCH  10  11
ENDBRANCH   7  10
ENDBRANCH   1   7
BRANCH   4  21
ATOM     21  N   UNL d   1     -48.301  28.228  35.169  0.00  0.00    -0.217 NA
BRANCH  21  22
ATOM     22  C   UNL d   1     -48.451  28.611  35.883  0.00  0.00     0.223 C 
ATOM     23  S   UNL d   1     -48.918  28.258  36.471  0.00  0.00    -0.037 SA
BRANCH  22  24
ATOM     24  N   UNL d   1     -48.131  29.360  36.014  0.00  0.00    -0.179 NA
ATOM     25  C   UNL d   1     -47.694  29.743  35.420  0.00  0.00     0.281 C 
ATOM     26  O   UNL d   1     -47.581  29.368  34.690  0.00  0.00    -0.265 OA
BRANCH  25  27
ATOM     27  C   UNL d   1     -47.375  30.492  35.553  0.00  0.00     0.063 C 
BRANCH  27  28
ATOM     28  C   UNL d   1     -47.524  31.117  35.034  0.00  0.00     0.005 C 
ATOM     29  C   UNL d   1     -46.897  31.555  34.673  0.00  0.00     0.000 C 
ATOM     30  C   UNL d   1     -48.303  31.317  34.865  0.00  0.00     0.000 C 
ENDBRANCH  27  28
ENDBRANCH  25  27
ENDBRANCH  22  24
ENDBRANCH  21  22
ENDBRANCH   4  21
TORSDOF 10
ENDMDL
MODEL 2
REMARK VINA RESULT:      66.5      1.347      2.090
REMARK  10 active torsions:
REMARK  status: ('A' for Active; 'I' for Inactive)
REMARK    1  A    between atoms: N_2  and  S_1 
REMARK    2  A    between atoms: C_12  and  S_1 
REMARK    3  A    between atoms: C_4  and  N_2 
REMARK    4  A    between atoms: O_22  and  C_6 
REMARK    5  A    between atoms: C_7  and  N_15 
REMARK    6  A    between atoms: N_8  and  C_7 
REMARK       I    between atoms: C_10  and  N_8 
REMARK    7  A    between atoms: O_23  and  C_9 
REMARK    8  A    between atoms: C_20  and  C_10 
REMARK    9  A    between atoms: N_15  and  C_21 
REMARK   10  A    between atoms: C_26  and  C_20 
ROOT
ATOM      1  C   UNL d   1     -48.960  27.749  34.469  0.00  0.00     0.105 A 
ATOM      2  C   UNL d   1     -49.369  28.447  34.499  0.00  0.00     0.015 A 
ATOM      3  C   UNL d   1     -48.295  27.646  34.930  0.00  0.00     0.015 A 
ATOM      4  C   UNL d   1     -48.446  28.951  35.457  0.00  0.00     0.084 A 
ATOM      5  C   UNL d   1     -49.135  29.062  34.982  0.00  0.00     0.020 A 
ATOM      6  C   UNL d   1     -48.045  28.246  35.418  0.00  0.00     0.020 A 
ENDROOT
BRANCH   1   7
ATOM      7  S   UNL d   1     -49.211  27.116  33.964  0.00  0.00     0.287 S 
ATOM      8  O   UNL d   1     -49.129  27.626  33.305  0.00  0.00    -0.198 OA
ATOM      9  O   UNL d   1     -49.289  26.618  34.622  0.00  0.00    -0.198 OA
BRANCH   7  10
ATOM     10  N   UNL d   1     -49.457  26.502  33.453  0.00  0.00    -0.139 NA
BRANCH  10  11
ATOM     11  C   UNL d   1     -50.206  26.138  33.548  0.00  0.00     0.182 A 
ATOM     12  N   UNL d   1     -50.260  25.347  33.580  0.00  0.00    -0.185 NA
ATOM     13  C   UNL d   1     -50.990  24.960  33.674  0.00  0.00     0.274 A 
ATOM     14  N   UNL d   1     -51.666  25.409  33.734  0.00  0.00    -0.181 NA
ATOM     15  C   UNL d   1     -51.643  26.215  33.704  0.00  0.00     0.185 A 
ATOM     16  C   UNL d   1     -50.867  26.606  33.605  0.00  0.00     0.084 A 
BRANCH  13  17
ATOM     17  O   UNL d   1     -51.049  24.130  33.709  0.00  0.00    -0.297 OA
ATOM     18  C   UNL d   1     -51.651  23.724  33.307  0.00  0.00     0.185 C 
ENDBRANCH  13  17
BRANCH  15  19
ATOM     19  O   UNL d   1     -52.351  26.646  33.767  0.00  0.00    -0.312 OA
ATOM     20  C   UNL d   1     -53.000  26.423  33.306  0.00  0.00     0.183 C 
ENDBRANCH  15  19
ENDBRANCH  10  11
ENDBRANCH   7  10
ENDBRANCH   1   7
BRANCH   4  21
ATOM     21  N   UNL d   1     -48.173  29.556  35.965  0.00  0.00    -0.217 NA
BRANCH  21  22
ATOM     22  C   UNL d   1     -47.637  30.106  35.665  0.00  0.00     0.223 C 
ATOM     23  S   UNL d   1     -46.847  30.119  35.916  0.00  0.00    -0.037 SA
BRANCH  22  24
ATOM     24  N   UNL d   1     -47.895  30.654  35.104  0.00  0.00    -0.179 NA
ATOM     25  C   UNL d   1     -47.740  31.465  35.203  0.00  0.00     0.281 C 
ATOM     26  O   UNL d   1     -47.324  31.723  35.871  0.00  0.00    -0.265 OA
BRANCH  25  27
ATOM     27  C   UNL d   1     -47.998  32.010  34.640  0.00  0.00     0.063 C 
BRANCH  27  28
ATOM     28  C   UNL d   1     -47.461  32.480  34.225  0.00  0.00     0.005 C 
ATOM     29  C   UNL d   1     -46.817  32.868  34.613  0.00  0.00     0.000 C 
ATOM     30  C   UNL d   1     -47.554  32.571  33.413  0.00  0.00     0.000 C 
ENDBRANCH  27  28
ENDBRANCH  25  27
ENDBRANCH  22  24
ENDBRANCH  21  22
ENDBRANCH   4  21
TORSDOF 10
ENDMDL
