MODEL 1
REMARK VINA RESULT:      54.2      0.000      0.000
REMARK  7 active torsions:
REMARK  status: ('A' for Active; 'I' for Inactive)
REMARK    1  A    between atoms: C_13  and  C_4 
REMARK    2  A    between atoms: N_16  and  C_6 
REMARK    3  A    between atoms: C_17  and  C_9 
REMARK    4  A    between atoms: N_11  and  C_19 
REMARK    5  A    between atoms: C_21  and  N_16 
REMARK    6  A    between atoms: C_19  and  C_20 
REMARK    7  A    between atoms: C_20  and  C_21 
ROOT
ATOM      1  C   UNL d   1     -51.025  25.571  33.342  0.00  0.00     0.168 A 
ATOM      2  N   UNL d   1     -50.642  26.306  33.343  0.00  0.00    -0.184 N 
ATOM      3  N   UNL d   1     -51.901  26.962  33.327  0.00  0.00    -0.162 NA
ATOM      4  C   UNL d   1     -51.830  25.538  33.334  0.00  0.00     0.055 A 
ATOM      5  N   UNL d   1     -50.579  24.886  33.350  0.00  0.00    -0.227 NA
ATOM      6  C   UNL d   1     -49.827  26.328  33.352  0.00  0.00     0.218 A 
ATOM      7  C   UNL d   1     -52.284  26.227  33.326  0.00  0.00     0.104 A 
ATOM      8  C   UNL d   1     -49.376  25.616  33.360  0.00  0.00     0.071 A 
ATOM      9  C   UNL d   1     -49.770  24.916  33.359  0.00  0.00     0.087 A 
ATOM     10  C   UNL d   1     -53.086  26.193  33.318  0.00  0.00     0.023 C 
ENDROOT
BRANCH   6  11
ATOM     11  N   UNL d   1     -49.430  27.080  33.353  0.00  0.00    -0.380 NA
BRANCH  11  12
ATOM     12  C   UNL d   1     -49.084  27.854  33.306  0.00  0.00     0.164 C 
BRANCH  12  13
ATOM     13  C   UNL d   1     -48.566  28.110  33.916  0.00  0.00     0.054 C 
BRANCH  13  14
ATOM     14  C   UNL d   1     -48.795  28.751  34.416  0.00  0.00     0.084 C 
BRANCH  14  15
ATOM     15  N   UNL d   1     -48.329  28.941  35.104  0.00  0.00    -0.285 N 
ATOM     16  C   UNL d   1     -48.622  29.102  35.877  0.00  0.00     0.183 A 
ATOM     17  N   UNL d   1     -47.959  29.263  36.386  0.00  0.00    -0.222 NA
ATOM     18  C   UNL d   1     -47.255  29.200  35.918  0.00  0.00     0.120 A 
ATOM     19  C   UNL d   1     -47.481  29.002  35.130  0.00  0.00     0.102 A 
ENDBRANCH  14  15
ENDBRANCH  13  14
ENDBRANCH  12  13
ENDBRANCH  11  12
ENDBRANCH   6  11
BRANCH   9  20
ATOM     20  C   UNL d   1     -49.306  24.192  33.367  0.00  0.00     0.018 C 
ATOM     21  C   UNL d   1     -49.711  23.432  33.428  0.00  0.00     0.002 C 
ATOM     22  C   UNL d   1     -48.451  24.226  33.314  0.00  0.00     0.002 C 
ENDBRANCH   9  20
BRANCH   4  23
ATOM     23  C   UNL d   1     -52.217  24.796  33.333  0.00  0.00     0.004 A 
ATOM     24  C   UNL d   1     -51.778  24.109  33.358  0.00  0.00     0.000 A 
ATOM     25  C   UNL d   1     -52.159  23.377  33.357  0.00  0.00     0.000 A 
ATOM     26  C   UNL d   1     -52.972  23.349  33.331  0.00  0.00     0.000 A 
ATOM     27  C   UNL d   1     -53.412  24.045  33.306  0.00  0.00     0.000 A 
ATOM     28  C   UNL d   1     -53.028  24.761  33.307  0.00  0.00     0.000 A 
ENDBRANCH   4  23
TORSDOF 7
ENDMDL
