MODEL 1
REMARK VINA RESULT:      -7.8      0.000      0.000
REMARK  4 active torsions:
REMARK  status: ('A' for Active; 'I' for Inactive)
REMARK    1  A    between atoms: C_2  and  C_1 
REMARK       I    between atoms: N_3  and  C_1 
REMARK    2  A    between atoms: C_14  and  N_3 
REMARK    3  A    between atoms: C_6  and  S_7 
REMARK    4  A    between atoms: S_7  and  C_15 
ROOT
ATOM      1  C   UNL d   1     -48.072  14.825  22.378  0.00  0.00     0.279 C 
ATOM      2  N   UNL d   1     -47.273  14.764  22.566  0.00  0.00    -0.208 NA
ATOM      3  O   UNL d   1     -48.404  15.567  22.206  0.00  0.00    -0.265 OA
ENDROOT
BRANCH   1   4
ATOM      4  C   UNL d   1     -48.547  14.148  22.360  0.00  0.00     0.059 A 
ATOM      5  C   UNL d   1     -49.008  13.950  23.023  0.00  0.00     0.025 A 
ATOM      6  C   UNL d   1     -49.484  13.268  22.999  0.00  0.00     0.099 A 
ATOM      7  N   UNL d   1     -49.945  13.073  23.664  0.00  0.00    -0.241 NA
ATOM      8  C   UNL d   1     -49.502  12.793  22.327  0.00  0.00     0.099 A 
ATOM      9  C   UNL d   1     -50.420  12.394  23.643  0.00  0.00     0.120 A 
ATOM     10  C   UNL d   1     -50.435  11.914  22.959  0.00  0.00     0.120 A 
ATOM     11  N   UNL d   1     -49.974  12.119  22.307  0.00  0.00    -0.241 NA
ATOM     12  C   UNL d   1     -49.043  12.991  21.670  0.00  0.00     0.021 A 
ATOM     13  C   UNL d   1     -48.565  13.668  21.682  0.00  0.00     0.006 A 
ENDBRANCH   1   4
BRANCH   2  14
ATOM     14  C   UNL d   1     -46.946  14.027  22.736  0.00  0.00     0.085 A 
ATOM     15  C   UNL d   1     -46.949  13.750  23.511  0.00  0.00     0.020 A 
ATOM     16  C   UNL d   1     -46.624  13.015  23.684  0.00  0.00     0.008 A 
ATOM     17  C   UNL d   1     -46.294  12.558  23.081  0.00  0.00     0.034 A 
ATOM     18  C   UNL d   1     -46.294  12.842  22.309  0.00  0.00     0.008 A 
ATOM     19  C   UNL d   1     -46.620  13.576  22.137  0.00  0.00     0.020 A 
BRANCH  17  20
ATOM     20  S   UNL d   1     -45.969  11.824  23.254  0.00  0.00    -0.028 SA
BRANCH  20  21
ATOM     21  C   UNL d   1     -45.644  11.090  23.428  0.00  0.00     0.309 C 
ATOM     22  F   UNL d   1     -44.835  10.968  23.330  0.00  0.00    -0.165 F 
ATOM     23  F   UNL d   1     -46.125  10.482  23.698  0.00  0.00    -0.165 F 
ENDBRANCH  20  21
ENDBRANCH  17  20
ENDBRANCH   2  14
TORSDOF 4
ENDMDL
MODEL 2
REMARK VINA RESULT:      -6.0      8.232      9.598
REMARK  4 active torsions:
REMARK  status: ('A' for Active; 'I' for Inactive)
REMARK    1  A    between atoms: C_2  and  C_1 
REMARK       I    between atoms: N_3  and  C_1 
REMARK    2  A    between atoms: C_14  and  N_3 
REMARK    3  A    between atoms: C_6  and  S_7 
REMARK    4  A    between atoms: S_7  and  C_15 
ROOT
ATOM      1  C   UNL d   1     -40.753  15.627  18.072  0.00  0.00     0.279 C 
ATOM      2  N   UNL d   1     -41.060  15.763  18.823  0.00  0.00    -0.208 NA
ATOM      3  O   UNL d   1     -41.150  15.916  17.402  0.00  0.00    -0.265 OA
ENDROOT
BRANCH   1   4
ATOM      4  C   UNL d   1     -40.049  15.201  17.980  0.00  0.00     0.059 A 
ATOM      5  C   UNL d   1     -40.078  14.383  17.840  0.00  0.00     0.025 A 
ATOM      6  C   UNL d   1     -39.367  13.961  17.749  0.00  0.00     0.099 A 
ATOM      7  N   UNL d   1     -39.399  13.141  17.608  0.00  0.00    -0.241 NA
ATOM      8  C   UNL d   1     -38.641  14.346  17.797  0.00  0.00     0.099 A 
ATOM      9  C   UNL d   1     -38.692  12.717  17.517  0.00  0.00     0.120 A 
ATOM     10  C   UNL d   1     -37.957  13.112  17.567  0.00  0.00     0.120 A 
ATOM     11  N   UNL d   1     -37.940  13.925  17.706  0.00  0.00    -0.241 NA
ATOM     12  C   UNL d   1     -38.615  15.159  17.937  0.00  0.00     0.021 A 
ATOM     13  C   UNL d   1     -39.317  15.590  18.029  0.00  0.00     0.006 A 
ENDBRANCH   1   4
BRANCH   2  14
ATOM     14  C   UNL d   1     -40.664  15.475  19.487  0.00  0.00     0.085 A 
ATOM     15  C   UNL d   1     -40.875  14.744  19.800  0.00  0.00     0.020 A 
ATOM     16  C   UNL d   1     -40.482  14.454  20.462  0.00  0.00     0.008 A 
ATOM     17  C   UNL d   1     -39.879  14.897  20.809  0.00  0.00     0.034 A 
ATOM     18  C   UNL d   1     -39.674  15.627  20.491  0.00  0.00     0.008 A 
ATOM     19  C   UNL d   1     -40.067  15.916  19.830  0.00  0.00     0.020 A 
BRANCH  17  20
ATOM     20  S   UNL d   1     -39.487  14.607  21.471  0.00  0.00    -0.028 SA
BRANCH  20  21
ATOM     21  C   UNL d   1     -39.095  14.317  22.132  0.00  0.00     0.309 C 
ATOM     22  F   UNL d   1     -39.163  14.710  22.853  0.00  0.00    -0.165 F 
ATOM     23  F   UNL d   1     -38.637  13.638  22.072  0.00  0.00    -0.165 F 
ENDBRANCH  20  21
ENDBRANCH  17  20
ENDBRANCH   2  14
TORSDOF 4
ENDMDL
MODEL 3
REMARK VINA RESULT:      -5.3      2.000      3.530
REMARK  4 active torsions:
REMARK  status: ('A' for Active; 'I' for Inactive)
REMARK    1  A    between atoms: C_2  and  C_1 
REMARK       I    between atoms: N_3  and  C_1 
REMARK    2  A    between atoms: C_14  and  N_3 
REMARK    3  A    between atoms: C_6  and  S_7 
REMARK    4  A    between atoms: S_7  and  C_15 
ROOT
ATOM      1  C   UNL d   1     -47.149  15.124  22.508  0.00  0.00     0.279 C 
ATOM      2  N   UNL d   1     -47.959  15.180  22.377  0.00  0.00    -0.208 NA
ATOM      3  O   UNL d   1     -46.665  15.793  22.419  0.00  0.00    -0.265 OA
ENDROOT
BRANCH   1   4
ATOM      4  C   UNL d   1     -46.813  14.402  22.730  0.00  0.00     0.059 A 
ATOM      5  C   UNL d   1     -46.316  13.998  22.201  0.00  0.00     0.025 A 
ATOM      6  C   UNL d   1     -45.980  13.272  22.430  0.00  0.00     0.099 A 
ATOM      7  N   UNL d   1     -45.482  12.870  21.897  0.00  0.00    -0.241 NA
ATOM      8  C   UNL d   1     -46.137  12.953  23.172  0.00  0.00     0.099 A 
ATOM      9  C   UNL d   1     -45.147  12.146  22.122  0.00  0.00     0.120 A 
ATOM     10  C   UNL d   1     -45.309  11.826  22.877  0.00  0.00     0.120 A 
ATOM     11  N   UNL d   1     -45.804  12.234  23.395  0.00  0.00    -0.241 NA
ATOM     12  C   UNL d   1     -46.631  13.356  23.697  0.00  0.00     0.021 A 
ATOM     13  C   UNL d   1     -46.971  14.080  23.480  0.00  0.00     0.006 A 
ENDBRANCH   1   4
BRANCH   2  14
ATOM     14  C   UNL d   1     -48.437  14.514  22.467  0.00  0.00     0.085 A 
ATOM     15  C   UNL d   1     -48.782  14.357  23.197  0.00  0.00     0.020 A 
ATOM     16  C   UNL d   1     -49.259  13.694  23.289  0.00  0.00     0.008 A 
ATOM     17  C   UNL d   1     -49.391  13.189  22.650  0.00  0.00     0.034 A 
ATOM     18  C   UNL d   1     -49.042  13.353  21.923  0.00  0.00     0.008 A 
ATOM     19  C   UNL d   1     -48.566  14.016  21.832  0.00  0.00     0.020 A 
BRANCH  17  20
ATOM     20  S   UNL d   1     -49.868  12.526  22.743  0.00  0.00    -0.028 SA
BRANCH  20  21
ATOM     21  C   UNL d   1     -50.344  11.863  22.835  0.00  0.00     0.309 C 
ATOM     22  F   UNL d   1     -51.061  11.816  22.433  0.00  0.00    -0.165 F 
ATOM     23  F   UNL d   1     -50.103  11.251  23.327  0.00  0.00    -0.165 F 
ENDBRANCH  20  21
ENDBRANCH  17  20
ENDBRANCH   2  14
TORSDOF 4
ENDMDL
MODEL 4
REMARK VINA RESULT:      -5.2      2.369      2.877
REMARK  4 active torsions:
REMARK  status: ('A' for Active; 'I' for Inactive)
REMARK    1  A    between atoms: C_2  and  C_1 
REMARK       I    between atoms: N_3  and  C_1 
REMARK    2  A    between atoms: C_14  and  N_3 
REMARK    3  A    between atoms: C_6  and  S_7 
REMARK    4  A    between atoms: S_7  and  C_15 
ROOT
ATOM      1  C   UNL d   1     -47.826  10.998  23.057  0.00  0.00     0.279 C 
ATOM      2  N   UNL d   1     -47.107  11.385  23.154  0.00  0.00    -0.208 NA
ATOM      3  O   UNL d   1     -47.881  10.181  23.201  0.00  0.00    -0.265 OA
ENDROOT
BRANCH   1   4
ATOM      4  C   UNL d   1     -48.496  11.418  22.815  0.00  0.00     0.059 A 
ATOM      5  C   UNL d   1     -49.052  11.667  23.379  0.00  0.00     0.025 A 
ATOM      6  C   UNL d   1     -49.724  12.090  23.130  0.00  0.00     0.099 A 
ATOM      7  N   UNL d   1     -50.280  12.338  23.698  0.00  0.00    -0.241 NA
ATOM      8  C   UNL d   1     -49.840  12.262  22.333  0.00  0.00     0.099 A 
ATOM      9  C   UNL d   1     -50.950  12.760  23.452  0.00  0.00     0.120 A 
ATOM     10  C   UNL d   1     -51.064  12.932  22.642  0.00  0.00     0.120 A 
ATOM     11  N   UNL d   1     -50.506  12.680  22.090  0.00  0.00    -0.241 NA
ATOM     12  C   UNL d   1     -49.286  12.013  21.773  0.00  0.00     0.021 A 
ATOM     13  C   UNL d   1     -48.613  11.591  22.011  0.00  0.00     0.006 A 
ENDBRANCH   1   4
BRANCH   2  14
ATOM     14  C   UNL d   1     -47.054  12.196  23.010  0.00  0.00     0.085 A 
ATOM     15  C   UNL d   1     -46.871  12.463  22.254  0.00  0.00     0.020 A 
ATOM     16  C   UNL d   1     -46.818  13.270  22.107  0.00  0.00     0.008 A 
ATOM     17  C   UNL d   1     -46.947  13.809  22.719  0.00  0.00     0.034 A 
ATOM     18  C   UNL d   1     -47.130  13.534  23.472  0.00  0.00     0.008 A 
ATOM     19  C   UNL d   1     -47.183  12.728  23.618  0.00  0.00     0.020 A 
BRANCH  17  20
ATOM     20  S   UNL d   1     -46.894  14.616  22.572  0.00  0.00    -0.028 SA
BRANCH  20  21
ATOM     21  C   UNL d   1     -46.840  15.422  22.427  0.00  0.00     0.309 C 
ATOM     22  F   UNL d   1     -47.522  15.885  22.429  0.00  0.00    -0.165 F 
ATOM     23  F   UNL d   1     -46.108  15.764  22.279  0.00  0.00    -0.165 F 
ENDBRANCH  20  21
ENDBRANCH  17  20
ENDBRANCH   2  14
TORSDOF 4
ENDMDL
MODEL 5
REMARK VINA RESULT:      -4.9      8.410      9.941
REMARK  4 active torsions:
REMARK  status: ('A' for Active; 'I' for Inactive)
REMARK    1  A    between atoms: C_2  and  C_1 
REMARK       I    between atoms: N_3  and  C_1 
REMARK    2  A    between atoms: C_14  and  N_3 
REMARK    3  A    between atoms: C_6  and  S_7 
REMARK    4  A    between atoms: S_7  and  C_15 
ROOT
ATOM      1  C   UNL d   1     -38.236  13.444  20.380  0.00  0.00     0.279 C 
ATOM      2  N   UNL d   1     -38.007  13.286  19.605  0.00  0.00    -0.208 NA
ATOM      3  O   UNL d   1     -37.940  12.982  21.003  0.00  0.00    -0.265 OA
ENDROOT
BRANCH   1   4
ATOM      4  C   UNL d   1     -38.760  14.063  20.541  0.00  0.00     0.059 A 
ATOM      5  C   UNL d   1     -39.575  13.911  20.588  0.00  0.00     0.025 A 
ATOM      6  C   UNL d   1     -40.098  14.538  20.751  0.00  0.00     0.099 A 
ATOM      7  N   UNL d   1     -40.915  14.382  20.797  0.00  0.00    -0.241 NA
ATOM      8  C   UNL d   1     -39.814  15.302  20.863  0.00  0.00     0.099 A 
ATOM      9  C   UNL d   1     -41.438  15.004  20.959  0.00  0.00     0.120 A 
ATOM     10  C   UNL d   1     -41.145  15.779  21.073  0.00  0.00     0.120 A 
ATOM     11  N   UNL d   1     -40.334  15.919  21.024  0.00  0.00    -0.241 NA
ATOM     12  C   UNL d   1     -39.003  15.451  20.816  0.00  0.00     0.021 A 
ATOM     13  C   UNL d   1     -38.474  14.835  20.655  0.00  0.00     0.006 A 
ENDBRANCH   1   4
BRANCH   2  14
ATOM     14  C   UNL d   1     -38.302  13.746  18.988  0.00  0.00     0.085 A 
ATOM     15  C   UNL d   1     -38.956  13.485  18.562  0.00  0.00     0.020 A 
ATOM     16  C   UNL d   1     -39.252  13.941  17.946  0.00  0.00     0.008 A 
ATOM     17  C   UNL d   1     -38.893  14.660  17.757  0.00  0.00     0.034 A 
ATOM     18  C   UNL d   1     -38.240  14.915  18.187  0.00  0.00     0.008 A 
ATOM     19  C   UNL d   1     -37.945  14.458  18.802  0.00  0.00     0.020 A 
BRANCH  17  20
ATOM     20  S   UNL d   1     -39.189  15.117  17.141  0.00  0.00    -0.028 SA
BRANCH  20  21
ATOM     21  C   UNL d   1     -39.485  15.574  16.526  0.00  0.00     0.309 C 
ATOM     22  F   UNL d   1     -39.032  15.687  15.847  0.00  0.00    -0.165 F 
ATOM     23  F   UNL d   1     -40.229  15.915  16.590  0.00  0.00    -0.165 F 
ENDBRANCH  20  21
ENDBRANCH  17  20
ENDBRANCH   2  14
TORSDOF 4
ENDMDL
