MODEL 1
REMARK VINA RESULT:      -3.9      0.000      0.000
REMARK  3 active torsions:
REMARK  status: ('A' for Active; 'I' for Inactive)
REMARK    1  A    between atoms: N_6  and  S_1 
REMARK    2  A    between atoms: C_11  and  S_1 
REMARK    3  A    between atoms: C_2  and  N_6 
ROOT
ATOM      1  C   UNL d   1     -41.771-122.857 -50.746  0.00  0.00     0.106 A 
ATOM      2  C   UNL d   1     -42.422-123.278 -49.582  0.00  0.00     0.110 A 
ATOM      3  C   UNL d   1     -41.774-123.315 -50.084  0.00  0.00     0.090 A 
ATOM      4  C   UNL d   1     -43.050-122.801 -49.731  0.00  0.00     0.217 A 
ATOM      5  C   UNL d   1     -42.415-122.364 -50.905  0.00  0.00     0.035 A 
ATOM      6  C   UNL d   1     -43.051-122.342 -50.393  0.00  0.00     0.099 A 
ATOM      7  O   UNL d   1     -43.708-122.773 -49.210  0.00  0.00    -0.285 OA
ATOM      8 CL   UNL d   1     -42.445-123.772 -48.850  0.00  0.00    -0.078 Cl
ATOM      9 CL   UNL d   1     -41.123-123.817 -49.917  0.00  0.00    -0.080 Cl
ATOM     10 CL   UNL d   1     -43.712-121.824 -50.574  0.00  0.00    -0.079 Cl
ENDROOT
BRANCH   1  11
ATOM     11  N   UNL d   1     -41.123-122.893 -51.249  0.00  0.00    -0.158 NA
BRANCH  11  12
ATOM     12  S   UNL d   1     -41.245-122.957 -52.073  0.00  0.00     0.285 S 
ATOM     13  O   UNL d   1     -41.360-123.774 -51.989  0.00  0.00    -0.198 OA
ATOM     14  O   UNL d   1     -41.126-122.112 -52.156  0.00  0.00    -0.198 OA
BRANCH  12  15
ATOM     15  C   UNL d   1     -41.368-123.000 -52.921  0.00  0.00     0.105 A 
ATOM     16  C   UNL d   1     -41.499-123.729 -53.311  0.00  0.00     0.013 A 
ATOM     17  C   UNL d   1     -41.617-123.757 -54.134  0.00  0.00     0.001 A 
ATOM     18  C   UNL d   1     -41.601-123.052 -54.561  0.00  0.00     0.000 A 
ATOM     19  C   UNL d   1     -41.476-122.342 -54.203  0.00  0.00     0.001 A 
ATOM     20  C   UNL d   1     -41.353-122.295 -53.348  0.00  0.00     0.013 A 
ENDBRANCH  12  15
ENDBRANCH  11  12
ENDBRANCH   1  11
TORSDOF 3
ENDMDL
MODEL 2
REMARK VINA RESULT:      -3.5      1.502      1.917
REMARK  3 active torsions:
REMARK  status: ('A' for Active; 'I' for Inactive)
REMARK    1  A    between atoms: N_6  and  S_1 
REMARK    2  A    between atoms: C_11  and  S_1 
REMARK    3  A    between atoms: C_2  and  N_6 
ROOT
ATOM      1  C   UNL d   1     -41.318-122.593 -52.085  0.00  0.00     0.106 A 
ATOM      2  C   UNL d   1     -41.794-122.590 -50.769  0.00  0.00     0.110 A 
ATOM      3  C   UNL d   1     -41.639-122.995 -51.466  0.00  0.00     0.090 A 
ATOM      4  C   UNL d   1     -41.635-121.808 -50.687  0.00  0.00     0.217 A 
ATOM      5  C   UNL d   1     -41.152-121.787 -52.006  0.00  0.00     0.035 A 
ATOM      6  C   UNL d   1     -41.313-121.401 -51.304  0.00  0.00     0.099 A 
ATOM      7  O   UNL d   1     -41.798-121.404 -49.969  0.00  0.00    -0.285 OA
ATOM      8 CL   UNL d   1     -42.146-123.014 -50.079  0.00  0.00    -0.078 Cl
ATOM      9 CL   UNL d   1     -41.810-123.814 -51.540  0.00  0.00    -0.080 Cl
ATOM     10 CL   UNL d   1     -41.135-120.563 -51.239  0.00  0.00    -0.079 Cl
ENDROOT
BRANCH   1  11
ATOM     11  N   UNL d   1     -41.163-122.997 -52.782  0.00  0.00    -0.158 NA
BRANCH  11  12
ATOM     12  S   UNL d   1     -41.465-122.703 -53.504  0.00  0.00     0.285 S 
ATOM     13  O   UNL d   1     -41.123-121.965 -53.343  0.00  0.00    -0.198 OA
ATOM     14  O   UNL d   1     -41.818-123.468 -53.666  0.00  0.00    -0.198 OA
BRANCH  12  15
ATOM     15  C   UNL d   1     -41.785-122.422 -54.248  0.00  0.00     0.105 A 
ATOM     16  C   UNL d   1     -42.554-122.097 -54.303  0.00  0.00     0.013 A 
ATOM     17  C   UNL d   1     -42.852-121.828 -55.032  0.00  0.00     0.001 A 
ATOM     18  C   UNL d   1     -42.374-121.886 -55.702  0.00  0.00     0.000 A 
ATOM     19  C   UNL d   1     -41.632-122.195 -55.667  0.00  0.00     0.001 A 
ATOM     20  C   UNL d   1     -41.307-122.480 -54.918  0.00  0.00     0.013 A 
ENDBRANCH  12  15
ENDBRANCH  11  12
ENDBRANCH   1  11
TORSDOF 3
ENDMDL
MODEL 3
REMARK VINA RESULT:      -3.2      2.085      3.859
REMARK  3 active torsions:
REMARK  status: ('A' for Active; 'I' for Inactive)
REMARK    1  A    between atoms: N_6  and  S_1 
REMARK    2  A    between atoms: C_11  and  S_1 
REMARK    3  A    between atoms: C_2  and  N_6 
ROOT
ATOM      1  C   UNL d   1     -41.504-122.662 -53.518  0.00  0.00     0.106 A 
ATOM      2  C   UNL d   1     -41.920-122.697 -54.853  0.00  0.00     0.110 A 
ATOM      3  C   UNL d   1     -41.539-123.054 -54.220  0.00  0.00     0.090 A 
ATOM      4  C   UNL d   1     -42.259-121.972 -54.793  0.00  0.00     0.217 A 
ATOM      5  C   UNL d   1     -41.851-121.915 -53.450  0.00  0.00     0.035 A 
ATOM      6  C   UNL d   1     -42.226-121.576 -54.091  0.00  0.00     0.099 A 
ATOM      7  O   UNL d   1     -42.647-121.617 -55.447  0.00  0.00    -0.285 OA
ATOM      8 CL   UNL d   1     -41.969-123.110 -55.632  0.00  0.00    -0.078 Cl
ATOM      9 CL   UNL d   1     -41.189-123.813 -54.296  0.00  0.00    -0.080 Cl
ATOM     10 CL   UNL d   1     -42.581-120.799 -54.003  0.00  0.00    -0.079 Cl
ENDROOT
BRANCH   1  11
ATOM     11  N   UNL d   1     -41.123-123.018 -52.884  0.00  0.00    -0.158 NA
BRANCH  11  12
ATOM     12  S   UNL d   1     -41.443-122.943 -52.116  0.00  0.00     0.285 S 
ATOM     13  O   UNL d   1     -41.732-123.719 -52.164  0.00  0.00    -0.198 OA
ATOM     14  O   UNL d   1     -41.143-122.141 -52.071  0.00  0.00    -0.198 OA
BRANCH  12  15
ATOM     15  C   UNL d   1     -41.764-122.844 -51.327  0.00  0.00     0.105 A 
ATOM     16  C   UNL d   1     -42.115-123.480 -50.911  0.00  0.00     0.013 A 
ATOM     17  C   UNL d   1     -42.422-123.371 -50.146  0.00  0.00     0.001 A 
ATOM     18  C   UNL d   1     -42.376-122.622 -49.803  0.00  0.00     0.000 A 
ATOM     19  C   UNL d   1     -42.043-121.999 -50.188  0.00  0.00     0.001 A 
ATOM     20  C   UNL d   1     -41.718-122.095 -50.984  0.00  0.00     0.013 A 
ENDBRANCH  12  15
ENDBRANCH  11  12
ENDBRANCH   1  11
TORSDOF 3
ENDMDL
MODEL 4
REMARK VINA RESULT:      -2.5      1.915      4.013
REMARK  3 active torsions:
REMARK  status: ('A' for Active; 'I' for Inactive)
REMARK    1  A    between atoms: N_6  and  S_1 
REMARK    2  A    between atoms: C_11  and  S_1 
REMARK    3  A    between atoms: C_2  and  N_6 
ROOT
ATOM      1  C   UNL d   1     -41.842-121.903 -53.030  0.00  0.00     0.106 A 
ATOM      2  C   UNL d   1     -42.183-121.933 -54.387  0.00  0.00     0.110 A 
ATOM      3  C   UNL d   1     -42.176-121.540 -53.666  0.00  0.00     0.090 A 
ATOM      4  C   UNL d   1     -41.868-122.666 -54.475  0.00  0.00     0.217 A 
ATOM      5  C   UNL d   1     -41.516-122.658 -53.115  0.00  0.00     0.035 A 
ATOM      6  C   UNL d   1     -41.533-123.033 -53.841  0.00  0.00     0.099 A 
ATOM      7  O   UNL d   1     -41.881-123.058 -55.217  0.00  0.00    -0.285 OA
ATOM      8 CL   UNL d   1     -42.545-121.552 -55.097  0.00  0.00    -0.078 Cl
ATOM      9 CL   UNL d   1     -42.509-120.774 -53.586  0.00  0.00    -0.080 Cl
ATOM     10 CL   UNL d   1     -41.189-123.817 -53.911  0.00  0.00    -0.079 Cl
ENDROOT
BRANCH   1  11
ATOM     11  N   UNL d   1     -41.835-121.511 -52.309  0.00  0.00    -0.158 NA
BRANCH  11  12
ATOM     12  S   UNL d   1     -41.891-121.951 -51.601  0.00  0.00     0.285 S 
ATOM     13  O   UNL d   1     -41.123-122.238 -51.722  0.00  0.00    -0.198 OA
ATOM     14  O   UNL d   1     -42.685-121.652 -51.479  0.00  0.00    -0.198 OA
BRANCH  12  15
ATOM     15  C   UNL d   1     -41.970-122.395 -50.871  0.00  0.00     0.105 A 
ATOM     16  C   UNL d   1     -41.334-122.835 -50.552  0.00  0.00     0.013 A 
ATOM     17  C   UNL d   1     -41.424-123.262 -49.843  0.00  0.00     0.001 A 
ATOM     18  C   UNL d   1     -42.153-123.243 -49.459  0.00  0.00     0.000 A 
ATOM     19  C   UNL d   1     -42.776-122.825 -49.751  0.00  0.00     0.001 A 
ATOM     20  C   UNL d   1     -42.699-122.376 -50.487  0.00  0.00     0.013 A 
ENDBRANCH  12  15
ENDBRANCH  11  12
ENDBRANCH   1  11
TORSDOF 3
ENDMDL
MODEL 5
REMARK VINA RESULT:      -1.8      1.654      2.421
REMARK  3 active torsions:
REMARK  status: ('A' for Active; 'I' for Inactive)
REMARK    1  A    between atoms: N_6  and  S_1 
REMARK    2  A    between atoms: C_11  and  S_1 
REMARK    3  A    between atoms: C_2  and  N_6 
ROOT
ATOM      1  C   UNL d   1     -42.763-123.352 -49.311  0.00  0.00     0.106 A 
ATOM      2  C   UNL d   1     -43.195-123.529 -47.992  0.00  0.00     0.110 A 
ATOM      3  C   UNL d   1     -43.346-123.565 -48.798  0.00  0.00     0.090 A 
ATOM      4  C   UNL d   1     -42.486-123.289 -47.702  0.00  0.00     0.217 A 
ATOM      5  C   UNL d   1     -42.031-123.104 -49.018  0.00  0.00     0.035 A 
ATOM      6  C   UNL d   1     -41.900-123.075 -48.213  0.00  0.00     0.099 A 
ATOM      7  O   UNL d   1     -42.343-123.256 -46.875  0.00  0.00    -0.285 OA
ATOM      8 CL   UNL d   1     -43.820-123.758 -47.412  0.00  0.00    -0.078 Cl
ATOM      9 CL   UNL d   1     -44.092-123.817 -49.089  0.00  0.00    -0.080 Cl
ATOM     10 CL   UNL d   1     -41.133-122.815 -47.926  0.00  0.00    -0.079 Cl
ENDROOT
BRANCH   1  11
ATOM     11  N   UNL d   1     -42.914-123.388 -50.118  0.00  0.00    -0.158 NA
BRANCH  11  12
ATOM     12  S   UNL d   1     -42.474-122.905 -50.639  0.00  0.00     0.285 S 
ATOM     13  O   UNL d   1     -42.939-122.253 -50.421  0.00  0.00    -0.198 OA
ATOM     14  O   UNL d   1     -41.997-123.581 -50.862  0.00  0.00    -0.198 OA
BRANCH  12  15
ATOM     15  C   UNL d   1     -42.011-122.427 -51.181  0.00  0.00     0.105 A 
ATOM     16  C   UNL d   1     -41.641-122.758 -51.854  0.00  0.00     0.013 A 
ATOM     17  C   UNL d   1     -41.194-122.282 -52.371  0.00  0.00     0.001 A 
ATOM     18  C   UNL d   1     -41.123-121.477 -52.208  0.00  0.00     0.000 A 
ATOM     19  C   UNL d   1     -41.472-121.142 -51.565  0.00  0.00     0.001 A 
ATOM     20  C   UNL d   1     -41.940-121.622 -51.017  0.00  0.00     0.013 A 
ENDBRANCH  12  15
ENDBRANCH  11  12
ENDBRANCH   1  11
TORSDOF 3
ENDMDL
