MODEL 1
REMARK VINA RESULT:      -6.0      0.000      0.000
REMARK  3 active torsions:
REMARK  status: ('A' for Active; 'I' for Inactive)
REMARK    1  A    between atoms: N_2  and  S_1 
REMARK    2  A    between atoms: C_8  and  S_1 
REMARK    3  A    between atoms: C_3  and  N_2 
ROOT
ATOM      1  C   UNL d   1      56.690  -0.016  32.075  0.00  0.00     0.094 A 
ATOM      2  C   UNL d   1      56.145  -0.005  32.713  0.00  0.00     0.021 A 
ATOM      3  C   UNL d   1      55.882  -0.711  32.942  0.00  0.00     0.040 A 
ATOM      4  C   UNL d   1      56.079  -1.430  32.634  0.00  0.00     0.196 A 
ATOM      5  C   UNL d   1      56.929  -0.706  31.722  0.00  0.00     0.023 A 
ATOM      6  C   UNL d   1      56.627  -1.440  31.994  0.00  0.00     0.044 A 
ATOM      7  O   UNL d   1      55.755  -2.187  32.928  0.00  0.00    -0.287 OA
ATOM      8  C   UNL d   1      55.934   0.670  33.033  0.00  0.00     0.002 A 
ATOM      9  C   UNL d   1      55.336  -0.773  33.572  0.00  0.00     0.003 A 
ATOM     10  C   UNL d   1      55.089  -0.052  33.938  0.00  0.00     0.000 A 
ATOM     11  C   UNL d   1      55.398   0.681  33.658  0.00  0.00     0.000 A 
ENDROOT
BRANCH   1  12
ATOM     12  N   UNL d   1      56.976   0.655  31.815  0.00  0.00    -0.158 NA
BRANCH  12  13
ATOM     13  S   UNL d   1      57.522   0.656  31.181  0.00  0.00     0.285 S 
ATOM     14  O   UNL d   1      58.165   0.634  31.750  0.00  0.00    -0.198 OA
ATOM     15  O   UNL d   1      56.910   0.676  30.684  0.00  0.00    -0.198 OA
BRANCH  13  16
ATOM     16  C   UNL d   1      58.080   0.657  30.548  0.00  0.00     0.105 A 
ATOM     17  C   UNL d   1      58.894   0.659  30.733  0.00  0.00     0.013 A 
ATOM     18  C   UNL d   1      59.441   0.660  30.150  0.00  0.00     0.001 A 
ATOM     19  C   UNL d   1      59.216   0.658  29.393  0.00  0.00     0.000 A 
ATOM     20  C   UNL d   1      58.394   0.656  29.200  0.00  0.00     0.001 A 
ATOM     21  C   UNL d   1      57.839   0.655  29.812  0.00  0.00     0.013 A 
ENDBRANCH  13  16
ENDBRANCH  12  13
ENDBRANCH   1  12
TORSDOF 3
ENDMDL
MODEL 2
REMARK VINA RESULT:      -5.1      1.066      4.226
REMARK  3 active torsions:
REMARK  status: ('A' for Active; 'I' for Inactive)
REMARK    1  A    between atoms: N_2  and  S_1 
REMARK    2  A    between atoms: C_8  and  S_1 
REMARK    3  A    between atoms: C_3  and  N_2 
ROOT
ATOM      1  C   UNL d   1      58.208   0.166  30.449  0.00  0.00     0.094 A 
ATOM      2  C   UNL d   1      58.671  -0.001  29.769  0.00  0.00     0.021 A 
ATOM      3  C   UNL d   1      59.435   0.179  29.830  0.00  0.00     0.040 A 
ATOM      4  C   UNL d   1      59.812   0.501  30.466  0.00  0.00     0.196 A 
ATOM      5  C   UNL d   1      58.528   0.491  31.121  0.00  0.00     0.023 A 
ATOM      6  C   UNL d   1      59.347   0.669  31.149  0.00  0.00     0.044 A 
ATOM      7  O   UNL d   1      60.668   0.682  30.481  0.00  0.00    -0.287 OA
ATOM      8  C   UNL d   1      58.339  -0.311  29.140  0.00  0.00     0.002 A 
ATOM      9  C   UNL d   1      59.954   0.038  29.190  0.00  0.00     0.003 A 
ATOM     10  C   UNL d   1      59.618  -0.300  28.491  0.00  0.00     0.000 A 
ATOM     11  C   UNL d   1      58.794  -0.476  28.472  0.00  0.00     0.000 A 
ENDROOT
BRANCH   1  12
ATOM     12  N   UNL d   1      57.451   0.007  30.436  0.00  0.00    -0.158 NA
BRANCH  12  13
ATOM     13  S   UNL d   1      57.037  -0.106  31.155  0.00  0.00     0.285 S 
ATOM     14  O   UNL d   1      57.176  -0.951  31.087  0.00  0.00    -0.198 OA
ATOM     15  O   UNL d   1      56.927   0.674  31.187  0.00  0.00    -0.198 OA
BRANCH  13  16
ATOM     16  C   UNL d   1      56.621  -0.228  31.878  0.00  0.00     0.105 A 
ATOM     17  C   UNL d   1      56.275   0.431  32.256  0.00  0.00     0.013 A 
ATOM     18  C   UNL d   1      55.876   0.340  32.943  0.00  0.00     0.001 A 
ATOM     19  C   UNL d   1      55.806  -0.375  33.270  0.00  0.00     0.000 A 
ATOM     20  C   UNL d   1      56.154  -1.046  32.893  0.00  0.00     0.001 A 
ATOM     21  C   UNL d   1      56.564  -0.937  32.184  0.00  0.00     0.013 A 
ENDBRANCH  13  16
ENDBRANCH  12  13
ENDBRANCH   1  12
TORSDOF 3
ENDMDL
MODEL 3
REMARK VINA RESULT:      -4.2      1.414      4.075
REMARK  3 active torsions:
REMARK  status: ('A' for Active; 'I' for Inactive)
REMARK    1  A    between atoms: N_2  and  S_1 
REMARK    2  A    between atoms: C_8  and  S_1 
REMARK    3  A    between atoms: C_3  and  N_2 
ROOT
ATOM      1  C   UNL d   1      58.279  -0.255  30.287  0.00  0.00     0.094 A 
ATOM      2  C   UNL d   1      58.943  -0.129  29.789  0.00  0.00     0.021 A 
ATOM      3  C   UNL d   1      59.150  -0.744  29.343  0.00  0.00     0.040 A 
ATOM      4  C   UNL d   1      58.799  -1.469  29.316  0.00  0.00     0.196 A 
ATOM      5  C   UNL d   1      57.881  -0.962  30.306  0.00  0.00     0.023 A 
ATOM      6  C   UNL d   1      58.132  -1.596  29.816  0.00  0.00     0.044 A 
ATOM      7  O   UNL d   1      59.071  -2.120  28.800  0.00  0.00    -0.287 OA
ATOM      8  C   UNL d   1      59.305   0.558  29.790  0.00  0.00     0.002 A 
ATOM      9  C   UNL d   1      59.803  -0.687  28.824  0.00  0.00     0.003 A 
ATOM     10  C   UNL d   1      60.216   0.051  28.806  0.00  0.00     0.000 A 
ATOM     11  C   UNL d   1      59.957   0.682  29.301  0.00  0.00     0.000 A 
ENDROOT
BRANCH   1  12
ATOM     12  N   UNL d   1      58.038   0.322  30.743  0.00  0.00    -0.158 NA
BRANCH  12  13
ATOM     13  S   UNL d   1      57.439   0.180  31.311  0.00  0.00     0.285 S 
ATOM     14  O   UNL d   1      58.047  -0.024  31.882  0.00  0.00    -0.198 OA
ATOM     15  O   UNL d   1      56.906   0.373  30.763  0.00  0.00    -0.198 OA
BRANCH  13  16
ATOM     16  C   UNL d   1      56.843   0.035  31.889  0.00  0.00     0.105 A 
ATOM     17  C   UNL d   1      56.359   0.671  32.131  0.00  0.00     0.013 A 
ATOM     18  C   UNL d   1      55.786   0.558  32.678  0.00  0.00     0.001 A 
ATOM     19  C   UNL d   1      55.674  -0.157  32.994  0.00  0.00     0.000 A 
ATOM     20  C   UNL d   1      56.160  -0.804  32.753  0.00  0.00     0.001 A 
ATOM     21  C   UNL d   1      56.747  -0.673  32.187  0.00  0.00     0.013 A 
ENDBRANCH  13  16
ENDBRANCH  12  13
ENDBRANCH   1  12
TORSDOF 3
ENDMDL
