MODEL 1
REMARK VINA RESULT:      81.4      0.000      0.000
REMARK  5 active torsions:
REMARK  status: ('A' for Active; 'I' for Inactive)
REMARK    1  A    between atoms: C_11  and  C_3 
REMARK    2  A    between atoms: C_12  and  N_5 
REMARK    3  A    between atoms: C_10  and  C_14 
REMARK    4  A    between atoms: O_24  and  C_11 
REMARK    5  A    between atoms: C_25  and  O_24 
ROOT
ATOM      1  C   UNL d   1      60.837  48.625  51.475  0.00  0.00     0.086 A 
ATOM      2  C   UNL d   1      60.200  49.004  51.120  0.00  0.00     0.038 A 
ATOM      3  C   UNL d   1      59.863  48.693  50.434  0.00  0.00     0.165 A 
ATOM      4  C   UNL d   1      61.141  47.929  51.144  0.00  0.00     0.282 A 
ATOM      5  N   UNL d   1      60.807  47.618  50.461  0.00  0.00    -0.194 N 
ATOM      6  N   UNL d   1      60.168  47.997  50.104  0.00  0.00    -0.157 NA
ATOM      7  C   UNL d   1      61.049  49.064  52.142  0.00  0.00     0.137 A 
ATOM      8  C   UNL d   1      60.023  49.673  51.570  0.00  0.00     0.039 A 
ATOM      9  S   UNL d   1      60.543  49.708  52.195  0.00  0.00    -0.066 SA
ATOM     10  O   UNL d   1      61.786  47.543  51.501  0.00  0.00    -0.265 OA
ATOM     11  N   UNL d   1      61.663  48.898  52.680  0.00  0.00    -0.141 N 
ENDROOT
BRANCH   5  12
ATOM     12  C   UNL d   1      61.110  46.927  50.133  0.00  0.00     0.086 A 
ATOM     13  C   UNL d   1      61.546  46.958  49.437  0.00  0.00     0.019 A 
ATOM     14  C   UNL d   1      61.852  46.260  49.106  0.00  0.00     0.005 A 
ATOM     15  C   UNL d   1      61.719  45.537  49.472  0.00  0.00     0.072 A 
ATOM     16  C   UNL d   1      61.281  45.504  50.171  0.00  0.00     0.005 A 
ATOM     17  C   UNL d   1      60.975  46.202  50.503  0.00  0.00     0.019 A 
BRANCH  15  18
ATOM     18  C   UNL d   1      62.021  44.846  49.144  0.00  0.00     0.419 C 
ATOM     19  F   UNL d   1      62.302  44.215  48.844  0.00  0.00    -0.166 F 
ATOM     20  F   UNL d   1      62.838  44.616  49.028  0.00  0.00    -0.166 F 
ATOM     21  F   UNL d   1      61.605  44.170  48.830  0.00  0.00    -0.166 F 
ENDBRANCH  15  18
ENDBRANCH   5  12
BRANCH   3  22
ATOM     22  C   UNL d   1      59.219  49.079  50.077  0.00  0.00     0.320 C 
ATOM     23  O   UNL d   1      59.251  49.274  49.280  0.00  0.00    -0.257 OA
BRANCH  22  24
ATOM     24  O   UNL d   1      58.546  49.266  50.523  0.00  0.00    -0.270 OA
BRANCH  24  25
ATOM     25  C   UNL d   1      57.827  49.396  50.147  0.00  0.00     0.126 C 
ATOM     26  C   UNL d   1      57.185  49.708  50.574  0.00  0.00     0.029 C 
ENDBRANCH  24  25
ENDBRANCH  22  24
ENDBRANCH   3  22
TORSDOF 5
ENDMDL
