MODEL 1
REMARK VINA RESULT:      57.8      0.000      0.000
REMARK  4 active torsions:
REMARK  status: ('A' for Active; 'I' for Inactive)
REMARK    1  A    between atoms: N_7  and  S_1 
REMARK    2  A    between atoms: C_8  and  S_1 
REMARK    3  A    between atoms: C_17  and  N_2 
REMARK    4  A    between atoms: C_14  and  N_7 
ROOT
ATOM      1  N   UNL d   1      56.742  49.491  51.067  0.00  0.00    -0.273 N 
ATOM      2  C   UNL d   1      56.650  49.575  49.982  0.00  0.00     0.265 A 
ATOM      3  C   UNL d   1      57.530  49.495  51.184  0.00  0.00     0.067 A 
ATOM      4  C   UNL d   1      57.899  49.561  50.432  0.00  0.00     0.021 A 
ATOM      5  C   UNL d   1      57.437  49.607  49.750  0.00  0.00     0.058 A 
ATOM      6  C   UNL d   1      59.197  49.533  51.066  0.00  0.00     0.105 A 
ATOM      7  C   UNL d   1      58.727  49.579  50.380  0.00  0.00     0.014 A 
ATOM      8  C   UNL d   1      58.011  49.452  51.838  0.00  0.00     0.018 A 
ATOM      9  C   UNL d   1      58.860  49.470  51.797  0.00  0.00     0.014 A 
ATOM     10  O   UNL d   1      56.034  49.606  49.450  0.00  0.00    -0.267 OA
ATOM     11  C   UNL d   1      57.791  49.670  49.027  0.00  0.00     0.005 A 
ATOM     12  C   UNL d   1      59.081  49.642  49.658  0.00  0.00     0.001 A 
ATOM     13  C   UNL d   1      58.615  49.688  48.974  0.00  0.00     0.000 A 
ENDROOT
BRANCH   6  14
ATOM     14  S   UNL d   1      60.005  49.549  51.043  0.00  0.00     0.287 S 
ATOM     15  O   UNL d   1      60.047  49.702  51.826  0.00  0.00    -0.198 OA
ATOM     16  O   UNL d   1      59.975  49.390  50.229  0.00  0.00    -0.198 OA
BRANCH  14  17
ATOM     17  N   UNL d   1      60.838  49.558  50.984  0.00  0.00    -0.139 NA
BRANCH  17  18
ATOM     18  C   UNL d   1      61.301  49.465  51.657  0.00  0.00     0.175 A 
ATOM     19  N   UNL d   1      62.066  49.131  51.604  0.00  0.00    -0.225 NA
ATOM     20  C   UNL d   1      62.523  49.043  52.297  0.00  0.00     0.101 A 
ATOM     21  C   UNL d   1      62.217  49.285  53.024  0.00  0.00     0.021 A 
ATOM     22  C   UNL d   1      61.470  49.612  53.084  0.00  0.00     0.005 A 
ATOM     23  C   UNL d   1      61.009  49.702  52.392  0.00  0.00     0.040 A 
ENDBRANCH  17  18
ENDBRANCH  14  17
ENDBRANCH   6  14
BRANCH   1  24
ATOM     24  C   UNL d   1      56.238  49.432  51.711  0.00  0.00     0.083 C 
ATOM     25  C   UNL d   1      56.564  49.357  52.481  0.00  0.00     0.021 C 
ENDBRANCH   1  24
TORSDOF 4
ENDMDL
