MODEL 1
REMARK VINA RESULT:      80.9      0.000      0.000
REMARK  5 active torsions:
REMARK  status: ('A' for Active; 'I' for Inactive)
REMARK    1  A    between atoms: N_2  and  S_1 
REMARK    2  A    between atoms: C_5  and  S_1 
REMARK    3  A    between atoms: S_8  and  C_3 
REMARK    4  A    between atoms: C_13  and  S_8 
REMARK    5  A    between atoms: C_15  and  C_13 
ROOT
ATOM      1  N   UNL d   1      61.052  47.689  50.934  0.00  0.00    -0.208 N 
ATOM      2  C   UNL d   1      60.677  48.408  51.120  0.00  0.00     0.189 A 
ATOM      3  N   UNL d   1      60.355  48.342  51.879  0.00  0.00    -0.219 NA
ATOM      4  C   UNL d   1      60.959  47.178  51.583  0.00  0.00     0.114 A 
ATOM      5  C   UNL d   1      60.530  47.582  52.161  0.00  0.00     0.121 A 
ENDROOT
BRANCH   1   6
ATOM      6  S   UNL d   1      61.447  47.517  50.226  0.00  0.00     0.273 S 
ATOM      7  O   UNL d   1      61.870  47.598  49.519  0.00  0.00    -0.200 OA
ATOM      8  O   UNL d   1      61.586  48.322  50.150  0.00  0.00    -0.200 OA
BRANCH   6   9
ATOM      9  C   UNL d   1      61.317  46.703  50.285  0.00  0.00     0.104 A 
ATOM     10  C   UNL d   1      61.261  46.254  49.602  0.00  0.00     0.015 A 
ATOM     11  C   UNL d   1      61.132  45.444  49.662  0.00  0.00     0.030 A 
ATOM     12  C   UNL d   1      61.059  45.091  50.406  0.00  0.00     0.140 A 
ATOM     13  C   UNL d   1      61.115  45.544  51.090  0.00  0.00     0.030 A 
ATOM     14  F   UNL d   1      60.929  44.277  50.466  0.00  0.00    -0.204 F 
ATOM     15  C   UNL d   1      61.245  46.359  51.027  0.00  0.00     0.015 A 
ENDBRANCH   6   9
ENDBRANCH   1   6
BRANCH   2  16
ATOM     16  S   UNL d   1      60.634  49.078  50.627  0.00  0.00    -0.049 SA
BRANCH  16  17
ATOM     17  C   UNL d   1      60.141  49.707  50.832  0.00  0.00     0.038 C 
BRANCH  17  18
ATOM     18  C   UNL d   1      59.346  49.704  50.588  0.00  0.00     0.007 A 
ATOM     19  C   UNL d   1      58.734  49.699  51.150  0.00  0.00     0.001 A 
ATOM     20  C   UNL d   1      57.948  49.696  50.915  0.00  0.00     0.000 A 
ATOM     21  C   UNL d   1      57.766  49.699  50.111  0.00  0.00     0.000 A 
ATOM     22  C   UNL d   1      58.374  49.704  49.548  0.00  0.00     0.000 A 
ATOM     23  C   UNL d   1      56.979  49.696  49.866  0.00  0.00     0.000 C 
ATOM     24  C   UNL d   1      59.161  49.707  49.788  0.00  0.00     0.001 A 
ENDBRANCH  17  18
ENDBRANCH  16  17
ENDBRANCH   2  16
TORSDOF 5
ENDMDL
