MODEL 1
REMARK VINA RESULT:      27.5      0.000      0.000
REMARK  4 active torsions:
REMARK  status: ('A' for Active; 'I' for Inactive)
REMARK    1  A    between atoms: S_7  and  C_3 
REMARK    2  A    between atoms: C_12  and  S_7 
REMARK    3  A    between atoms: C_9  and  C_12 
REMARK    4  A    between atoms: C_11  and  C_9 
ROOT
ATOM      1  S   UNL d   1      13.894  12.785  -2.000  0.00  0.00    -0.043 SA
ENDROOT
BRANCH   1   2
ATOM      2  C   UNL d   1      13.701  12.649  -2.789  0.00  0.00     0.220 A 
ATOM      3  N   UNL d   1      13.351  13.245  -3.238  0.00  0.00    -0.149 N 
ATOM      4  C   UNL d   1      13.153  13.119  -4.033  0.00  0.00     0.303 A 
ATOM      5  N   UNL d   1      13.192  13.979  -2.897  0.00  0.00    -0.037 N 
ATOM      6  C   UNL d   1      13.316  12.376  -4.366  0.00  0.00     0.161 A 
ATOM      7  O   UNL d   1      12.805  13.710  -4.477  0.00  0.00    -0.263 OA
ATOM      8  C   UNL d   1      13.123  12.241  -5.155  0.00  0.00     0.028 C 
ATOM      9  N   UNL d   1      13.667  11.780  -3.918  0.00  0.00    -0.141 NA
ATOM     10  N   UNL d   1      13.858  11.919  -3.131  0.00  0.00    -0.121 NA
ENDBRANCH   1   2
BRANCH   1  11
ATOM     11  C   UNL d   1      14.092  12.157  -1.510  0.00  0.00     0.080 C 
BRANCH  11  12
ATOM     12  C   UNL d   1      14.300  12.301  -0.731  0.00  0.00     0.202 C 
ATOM     13  O   UNL d   1      14.091  11.782  -0.130  0.00  0.00    -0.286 OA
BRANCH  12  14
ATOM     14  C   UNL d   1      14.733  12.991  -0.550  0.00  0.00     0.040 A 
ATOM     15  C   UNL d   1      15.555  12.993  -0.657  0.00  0.00     0.004 A 
ATOM     16  C   UNL d   1      15.990  13.671  -0.480  0.00  0.00     0.011 A 
ATOM     17  C   UNL d   1      15.598  14.350  -0.194  0.00  0.00     0.058 A 
ATOM     18  C   UNL d   1      14.785  14.342  -0.090  0.00  0.00     0.011 A 
ATOM     19 CL   UNL d   1      16.028  15.021  -0.019  0.00  0.00    -0.082 Cl
ATOM     20  C   UNL d   1      14.347  13.665  -0.267  0.00  0.00     0.004 A 
ENDBRANCH  12  14
ENDBRANCH  11  12
ENDBRANCH   1  11
TORSDOF 4
ENDMDL
MODEL 2
REMARK VINA RESULT:      27.7      2.067      4.037
REMARK  4 active torsions:
REMARK  status: ('A' for Active; 'I' for Inactive)
REMARK    1  A    between atoms: S_7  and  C_3 
REMARK    2  A    between atoms: C_12  and  S_7 
REMARK    3  A    between atoms: C_9  and  C_12 
REMARK    4  A    between atoms: C_11  and  C_9 
ROOT
ATOM      1  S   UNL d   1      13.625  12.197  -2.796  0.00  0.00    -0.043 SA
ENDROOT
BRANCH   1   2
ATOM      2  C   UNL d   1      14.160  12.099  -2.177  0.00  0.00     0.220 A 
ATOM      3  N   UNL d   1      13.885  11.988  -1.407  0.00  0.00    -0.149 N 
ATOM      4  C   UNL d   1      14.414  11.888  -0.777  0.00  0.00     0.303 A 
ATOM      5  N   UNL d   1      13.075  11.977  -1.256  0.00  0.00    -0.037 N 
ATOM      6  C   UNL d   1      15.228  11.901  -0.940  0.00  0.00     0.161 A 
ATOM      7  O   UNL d   1      14.142  11.779  -0.015  0.00  0.00    -0.263 OA
ATOM      8  C   UNL d   1      15.762  11.803  -0.321  0.00  0.00     0.028 C 
ATOM      9  N   UNL d   1      15.503  12.011  -1.710  0.00  0.00    -0.141 NA
ATOM     10  N   UNL d   1      14.967  12.109  -2.325  0.00  0.00    -0.121 NA
ENDBRANCH   1   2
BRANCH   1  11
ATOM     11  C   UNL d   1      13.843  12.622  -3.463  0.00  0.00     0.080 C 
BRANCH  11  12
ATOM     12  C   UNL d   1      13.294  12.748  -4.059  0.00  0.00     0.202 C 
ATOM     13  O   UNL d   1      12.813  12.141  -4.331  0.00  0.00    -0.286 OA
BRANCH  12  14
ATOM     14  C   UNL d   1      13.227  13.510  -4.392  0.00  0.00     0.040 A 
ATOM     15  C   UNL d   1      13.565  13.658  -5.136  0.00  0.00     0.004 A 
ATOM     16  C   UNL d   1      13.502  14.408  -5.472  0.00  0.00     0.011 A 
ATOM     17  C   UNL d   1      13.100  15.013  -5.061  0.00  0.00     0.058 A 
ATOM     18  C   UNL d   1      12.769  14.860  -4.327  0.00  0.00     0.011 A 
ATOM     19 CL   UNL d   1      13.039  15.755  -5.393  0.00  0.00    -0.082 Cl
ATOM     20  C   UNL d   1      12.829  14.111  -3.987  0.00  0.00     0.004 A 
ENDBRANCH  12  14
ENDBRANCH  11  12
ENDBRANCH   1  11
TORSDOF 4
ENDMDL
MODEL 3
REMARK VINA RESULT:      28.1      2.420      4.082
REMARK  4 active torsions:
REMARK  status: ('A' for Active; 'I' for Inactive)
REMARK    1  A    between atoms: S_7  and  C_3 
REMARK    2  A    between atoms: C_12  and  S_7 
REMARK    3  A    between atoms: C_9  and  C_12 
REMARK    4  A    between atoms: C_11  and  C_9 
ROOT
ATOM      1  S   UNL d   1      14.486  13.374  -0.608  0.00  0.00    -0.043 SA
ENDROOT
BRANCH   1   2
ATOM      2  C   UNL d   1      14.749  14.155  -0.605  0.00  0.00     0.220 A 
ATOM      3  N   UNL d   1      15.502  14.335  -0.320  0.00  0.00    -0.149 N 
ATOM      4  C   UNL d   1      15.777  15.117  -0.312  0.00  0.00     0.303 A 
ATOM      5  N   UNL d   1      15.992  13.736  -0.038  0.00  0.00    -0.037 N 
ATOM      6  C   UNL d   1      15.276  15.714  -0.598  0.00  0.00     0.161 A 
ATOM      7  O   UNL d   1      16.522  15.296  -0.030  0.00  0.00    -0.263 OA
ATOM      8  C   UNL d   1      15.540  16.494  -0.594  0.00  0.00     0.028 C 
ATOM      9  N   UNL d   1      14.523  15.534  -0.883  0.00  0.00    -0.141 NA
ATOM     10  N   UNL d   1      14.264  14.754  -0.885  0.00  0.00    -0.121 NA
ENDBRANCH   1   2
BRANCH   1  11
ATOM     11  C   UNL d   1      14.610  12.902  -1.268  0.00  0.00     0.080 C 
BRANCH  11  12
ATOM     12  C   UNL d   1      14.096  12.282  -1.424  0.00  0.00     0.202 C 
ATOM     13  O   UNL d   1      13.840  11.780  -0.827  0.00  0.00    -0.286 OA
BRANCH  12  14
ATOM     14  C   UNL d   1      13.831  12.164  -2.205  0.00  0.00     0.040 A 
ATOM     15  C   UNL d   1      14.362  12.270  -2.834  0.00  0.00     0.004 A 
ATOM     16  C   UNL d   1      14.107  12.154  -3.610  0.00  0.00     0.011 A 
ATOM     17  C   UNL d   1      13.316  11.932  -3.756  0.00  0.00     0.058 A 
ATOM     18  C   UNL d   1      12.796  11.829  -3.131  0.00  0.00     0.011 A 
ATOM     19 CL   UNL d   1      13.064  11.818  -4.523  0.00  0.00    -0.082 Cl
ATOM     20  C   UNL d   1      13.048  11.943  -2.353  0.00  0.00     0.004 A 
ENDBRANCH  12  14
ENDBRANCH  11  12
ENDBRANCH   1  11
TORSDOF 4
ENDMDL
