MODEL 1
REMARK VINA RESULT:      12.9      0.000      0.000
REMARK  1 active torsions:
REMARK  status: ('A' for Active; 'I' for Inactive)
REMARK    1  A    between atoms: C_2  and  C_1 
REMARK       I    between atoms: N_3  and  C_2 
ROOT
ATOM      1  C   UNL d   1      46.324 -18.496  43.581  0.00  0.00     0.109 A 
ATOM      2  C   UNL d   1      46.269 -18.759  44.339  0.00  0.00     0.026 A 
ATOM      3  C   UNL d   1      46.436 -19.067  43.038  0.00  0.00    -0.014 A 
ATOM      4  C   UNL d   1      46.445 -18.809  42.721  0.00  0.00    -0.014 A 
ATOM      5  C   UNL d   1      46.354 -19.644  44.350  0.00  0.00     0.045 A 
ATOM      6  C   UNL d   1      46.516 -19.545  42.724  0.00  0.00    -0.007 A 
ATOM      7  C   UNL d   1      46.526 -20.017  43.067  0.00  0.00    -0.007 A 
ATOM      8  C   UNL d   1      46.647 -20.329  42.208  0.00  0.00    -0.001 A 
ATOM      9  C   UNL d   1      46.473 -20.269  43.794  0.00  0.00    -0.022 A 
ATOM     10  C   UNL d   1      46.452 -19.944  43.692  0.00  0.00    -0.022 A 
ENDROOT
BRANCH   1  11
ATOM     11  C   UNL d   1      46.234 -17.456  43.472  0.00  0.00     0.248 C 
ATOM     12  N   UNL d   1      45.828 -16.842  44.209  0.00  0.00    -0.275 N 
ATOM     13  C   UNL d   1      45.503 -16.696  44.905  0.00  0.00     0.083 A 
ATOM     14  C   UNL d   1      45.902 -16.165  43.839  0.00  0.00     0.083 A 
ATOM     15  C   UNL d   1      45.378 -15.919  44.954  0.00  0.00     0.021 A 
ATOM     16  C   UNL d   1      45.625 -15.591  44.297  0.00  0.00     0.021 A 
ATOM     17  O   UNL d   1      46.523 -17.167  42.731  0.00  0.00    -0.271 OA
ENDBRANCH   1  11
TORSDOF 1
ENDMDL
MODEL 2
REMARK VINA RESULT:      13.8      7.626      8.188
REMARK  1 active torsions:
REMARK  status: ('A' for Active; 'I' for Inactive)
REMARK    1  A    between atoms: C_2  and  C_1 
REMARK       I    between atoms: N_3  and  C_2 
ROOT
ATOM      1  C   UNL d   1      45.071 -15.309  36.779  0.00  0.00     0.109 A 
ATOM      2  C   UNL d   1      45.701 -15.596  36.367  0.00  0.00     0.026 A 
ATOM      3  C   UNL d   1      45.217 -14.642  37.187  0.00  0.00    -0.014 A 
ATOM      4  C   UNL d   1      44.838 -14.613  37.337  0.00  0.00    -0.014 A 
ATOM      5  C   UNL d   1      46.401 -15.063  36.492  0.00  0.00     0.045 A 
ATOM      6  C   UNL d   1      45.418 -14.166  37.445  0.00  0.00    -0.007 A 
ATOM      7  C   UNL d   1      45.979 -14.080  37.311  0.00  0.00    -0.007 A 
ATOM      8  C   UNL d   1      45.745 -13.384  37.869  0.00  0.00    -0.001 A 
ATOM      9  C   UNL d   1      46.582 -14.354  36.917  0.00  0.00    -0.022 A 
ATOM     10  C   UNL d   1      46.270 -14.492  36.929  0.00  0.00    -0.022 A 
ENDROOT
BRANCH   1  11
ATOM     11  C   UNL d   1      44.195 -15.879  36.689  0.00  0.00     0.248 C 
ATOM     12  N   UNL d   1      43.258 -15.455  36.526  0.00  0.00    -0.275 N 
ATOM     13  C   UNL d   1      42.762 -14.861  36.416  0.00  0.00     0.083 A 
ATOM     14  C   UNL d   1      42.845 -16.110  36.508  0.00  0.00     0.083 A 
ATOM     15  C   UNL d   1      42.039 -15.163  36.331  0.00  0.00     0.021 A 
ATOM     16  C   UNL d   1      42.089 -15.934  36.387  0.00  0.00     0.021 A 
ATOM     17  O   UNL d   1      44.325 -16.712  36.761  0.00  0.00    -0.271 OA
ENDBRANCH   1  11
TORSDOF 1
ENDMDL
