MODEL 1
REMARK VINA RESULT:      -9.6      0.000      0.000
REMARK  5 active torsions:
REMARK  status: ('A' for Active; 'I' for Inactive)
REMARK    1  A    between atoms: N_2  and  S_1 
REMARK    2  A    between atoms: C_7  and  S_1 
REMARK    3  A    between atoms: C_3  and  N_2 
REMARK    4  A    between atoms: C_14  and  C_4 
REMARK    5  A    between atoms: O_19  and  C_16 
ROOT
ATOM      1  N   UNL d   1      53.369  32.511  53.600  0.00  0.00    -0.158 NA
ENDROOT
BRANCH   1   2
ATOM      2  S   UNL d   1      53.282  31.602  53.373  0.00  0.00     0.285 S 
ATOM      3  O   UNL d   1      53.176  31.618  52.447  0.00  0.00    -0.198 OA
ATOM      4  O   UNL d   1      53.391  31.604  54.313  0.00  0.00    -0.198 OA
BRANCH   2   5
ATOM      5  C   UNL d   1      53.255  30.892  53.549  0.00  0.00     0.105 A 
ATOM      6  C   UNL d   1      52.796  30.442  53.181  0.00  0.00     0.015 A 
ATOM      7  C   UNL d   1      52.769  29.726  53.359  0.00  0.00     0.025 A 
ATOM      8  C   UNL d   1      53.196  29.451  53.903  0.00  0.00     0.094 A 
ATOM      9  C   UNL d   1      53.654  29.900  54.271  0.00  0.00     0.025 A 
ATOM     10  C   UNL d   1      53.685  30.630  54.093  0.00  0.00     0.015 A 
BRANCH   8  11
ATOM     11  O   UNL d   1      53.160  28.738  54.070  0.00  0.00    -0.328 OA
ATOM     12  C   UNL d   1      53.409  28.427  54.680  0.00  0.00     0.181 C 
ENDBRANCH   8  11
ENDBRANCH   2   5
ENDBRANCH   1   2
BRANCH   1  13
ATOM     13  C   UNL d   1      52.995  33.259  53.551  0.00  0.00     0.094 A 
ATOM     14  C   UNL d   1      52.272  33.325  53.165  0.00  0.00     0.023 A 
ATOM     15  C   UNL d   1      51.900  34.072  53.116  0.00  0.00     0.041 A 
ATOM     16  C   UNL d   1      52.257  34.736  53.455  0.00  0.00     0.196 A 
ATOM     17  C   UNL d   1      52.986  34.657  53.841  0.00  0.00     0.044 A 
ATOM     18  O   UNL d   1      51.890  35.471  53.407  0.00  0.00    -0.287 OA
ATOM     19  C   UNL d   1      53.354  33.922  53.890  0.00  0.00     0.022 A 
ATOM     20  C   UNL d   1      54.082  33.844  54.276  0.00  0.00     0.002 C 
BRANCH  15  21
ATOM     21  C   UNL d   1      51.171  34.151  52.730  0.00  0.00     0.003 C 
ATOM     22  C   UNL d   1      50.462  34.088  53.156  0.00  0.00     0.000 C 
ATOM     23  C   UNL d   1      51.150  34.295  51.901  0.00  0.00     0.000 C 
ENDBRANCH  15  21
ENDBRANCH   1  13
TORSDOF 5
ENDMDL
MODEL 2
REMARK VINA RESULT:      -9.2      1.910      4.404
REMARK  5 active torsions:
REMARK  status: ('A' for Active; 'I' for Inactive)
REMARK    1  A    between atoms: N_2  and  S_1 
REMARK    2  A    between atoms: C_7  and  S_1 
REMARK    3  A    between atoms: C_3  and  N_2 
REMARK    4  A    between atoms: C_14  and  C_4 
REMARK    5  A    between atoms: O_19  and  C_16 
ROOT
ATOM      1  N   UNL d   1      52.179  34.301  53.459  0.00  0.00    -0.158 NA
ENDROOT
BRANCH   1   2
ATOM      2  S   UNL d   1      51.327  34.108  53.111  0.00  0.00     0.285 S 
ATOM      3  O   UNL d   1      51.009  33.435  53.672  0.00  0.00    -0.198 OA
ATOM      4  O   UNL d   1      51.663  34.792  52.551  0.00  0.00    -0.198 OA
BRANCH   2   5
ATOM      5  C   UNL d   1      50.786  34.214  52.627  0.00  0.00     0.105 A 
ATOM      6  C   UNL d   1      50.908  34.082  51.910  0.00  0.00     0.015 A 
ATOM      7  C   UNL d   1      50.363  34.189  51.423  0.00  0.00     0.025 A 
ATOM      8  C   UNL d   1      49.694  34.428  51.645  0.00  0.00     0.094 A 
ATOM      9  C   UNL d   1      49.572  34.560  52.362  0.00  0.00     0.025 A 
ATOM     10  C   UNL d   1      50.125  34.452  52.861  0.00  0.00     0.015 A 
BRANCH   8  11
ATOM     11  O   UNL d   1      49.161  34.531  51.151  0.00  0.00    -0.328 OA
ATOM     12  C   UNL d   1      48.512  34.834  51.279  0.00  0.00     0.181 C 
ENDBRANCH   8  11
ENDBRANCH   2   5
ENDBRANCH   1   2
BRANCH   1  13
ATOM     13  C   UNL d   1      52.836  33.971  53.859  0.00  0.00     0.094 A 
ATOM     14  C   UNL d   1      53.059  33.196  53.699  0.00  0.00     0.023 A 
ATOM     15  C   UNL d   1      53.716  32.866  54.098  0.00  0.00     0.041 A 
ATOM     16  C   UNL d   1      54.135  33.318  54.648  0.00  0.00     0.196 A 
ATOM     17  C   UNL d   1      53.901  34.099  54.802  0.00  0.00     0.044 A 
ATOM     18  O   UNL d   1      54.781  32.994  55.042  0.00  0.00    -0.287 OA
ATOM     19  C   UNL d   1      53.254  34.424  54.409  0.00  0.00     0.022 A 
ATOM     20  C   UNL d   1      53.022  35.204  54.563  0.00  0.00     0.002 C 
BRANCH  15  21
ATOM     21  C   UNL d   1      53.949  32.086  53.945  0.00  0.00     0.003 C 
ATOM     22  C   UNL d   1      54.439  31.916  53.297  0.00  0.00     0.000 C 
ATOM     23  C   UNL d   1      53.689  31.465  54.448  0.00  0.00     0.000 C 
ENDBRANCH  15  21
ENDBRANCH   1  13
TORSDOF 5
ENDMDL
MODEL 3
REMARK VINA RESULT:      -8.7      1.843      4.534
REMARK  5 active torsions:
REMARK  status: ('A' for Active; 'I' for Inactive)
REMARK    1  A    between atoms: N_2  and  S_1 
REMARK    2  A    between atoms: C_7  and  S_1 
REMARK    3  A    between atoms: C_3  and  N_2 
REMARK    4  A    between atoms: C_14  and  C_4 
REMARK    5  A    between atoms: O_19  and  C_16 
ROOT
ATOM      1  N   UNL d   1      51.816  33.055  53.110  0.00  0.00    -0.158 NA
ENDROOT
BRANCH   1   2
ATOM      2  S   UNL d   1      51.308  33.793  52.826  0.00  0.00     0.285 S 
ATOM      3  O   UNL d   1      51.920  34.308  52.347  0.00  0.00    -0.198 OA
ATOM      4  O   UNL d   1      50.699  33.260  53.314  0.00  0.00    -0.198 OA
BRANCH   2   5
ATOM      5  C   UNL d   1      50.681  34.171  52.787  0.00  0.00     0.105 A 
ATOM      6  C   UNL d   1      50.292  34.169  52.157  0.00  0.00     0.015 A 
ATOM      7  C   UNL d   1      49.661  34.549  52.118  0.00  0.00     0.025 A 
ATOM      8  C   UNL d   1      49.410  34.934  52.704  0.00  0.00     0.094 A 
ATOM      9  C   UNL d   1      49.798  34.937  53.333  0.00  0.00     0.025 A 
ATOM     10  C   UNL d   1      50.442  34.550  53.377  0.00  0.00     0.015 A 
BRANCH   8  11
ATOM     11  O   UNL d   1      48.781  35.308  52.653  0.00  0.00    -0.328 OA
ATOM     12  C   UNL d   1      48.499  35.744  53.163  0.00  0.00     0.181 C 
ENDBRANCH   8  11
ENDBRANCH   2   5
ENDBRANCH   1   2
BRANCH   1  13
ATOM     13  C   UNL d   1      52.569  32.821  53.389  0.00  0.00     0.094 A 
ATOM     14  C   UNL d   1      52.996  33.326  53.878  0.00  0.00     0.023 A 
ATOM     15  C   UNL d   1      53.748  33.091  54.157  0.00  0.00     0.041 A 
ATOM     16  C   UNL d   1      54.058  32.357  53.941  0.00  0.00     0.196 A 
ATOM     17  C   UNL d   1      53.621  31.855  53.448  0.00  0.00     0.044 A 
ATOM     18  O   UNL d   1      54.799  32.126  54.215  0.00  0.00    -0.287 OA
ATOM     19  C   UNL d   1      52.879  32.085  53.173  0.00  0.00     0.022 A 
ATOM     20  C   UNL d   1      52.442  31.583  52.680  0.00  0.00     0.002 C 
BRANCH  15  21
ATOM     21  C   UNL d   1      54.186  33.593  54.650  0.00  0.00     0.003 C 
ATOM     22  C   UNL d   1      54.005  33.648  55.458  0.00  0.00     0.000 C 
ATOM     23  C   UNL d   1      54.816  34.049  54.329  0.00  0.00     0.000 C 
ENDBRANCH  15  21
ENDBRANCH   1  13
TORSDOF 5
ENDMDL
MODEL 4
REMARK VINA RESULT:      -7.1      1.346      4.624
REMARK  5 active torsions:
REMARK  status: ('A' for Active; 'I' for Inactive)
REMARK    1  A    between atoms: N_2  and  S_1 
REMARK    2  A    between atoms: C_7  and  S_1 
REMARK    3  A    between atoms: C_3  and  N_2 
REMARK    4  A    between atoms: C_14  and  C_4 
REMARK    5  A    between atoms: O_19  and  C_16 
ROOT
ATOM      1  N   UNL d   1      53.197  31.743  53.455  0.00  0.00    -0.158 NA
ENDROOT
BRANCH   1   2
ATOM      2  S   UNL d   1      53.605  32.488  53.859  0.00  0.00     0.285 S 
ATOM      3  O   UNL d   1      54.505  32.249  53.899  0.00  0.00    -0.198 OA
ATOM      4  O   UNL d   1      52.689  32.716  53.811  0.00  0.00    -0.198 OA
BRANCH   2   5
ATOM      5  C   UNL d   1      53.580  33.157  54.157  0.00  0.00     0.105 A 
ATOM      6  C   UNL d   1      53.989  33.305  54.755  0.00  0.00     0.015 A 
ATOM      7  C   UNL d   1      53.963  33.979  55.056  0.00  0.00     0.025 A 
ATOM      8  C   UNL d   1      53.531  34.511  54.765  0.00  0.00     0.094 A 
ATOM      9  C   UNL d   1      53.122  34.363  54.168  0.00  0.00     0.025 A 
ATOM     10  C   UNL d   1      53.145  33.677  53.858  0.00  0.00     0.015 A 
BRANCH   8  11
ATOM     11  O   UNL d   1      53.514  35.176  55.073  0.00  0.00    -0.328 OA
ATOM     12  C   UNL d   1      53.184  35.766  54.801  0.00  0.00     0.181 C 
ENDBRANCH   8  11
ENDBRANCH   2   5
ENDBRANCH   1   2
BRANCH   1  13
ATOM     13  C   UNL d   1      53.131  30.909  53.486  0.00  0.00     0.094 A 
ATOM     14  C   UNL d   1      53.273  30.518  54.196  0.00  0.00     0.023 A 
ATOM     15  C   UNL d   1      53.206  29.686  54.226  0.00  0.00     0.041 A 
ATOM     16  C   UNL d   1      52.999  29.262  53.548  0.00  0.00     0.196 A 
ATOM     17  C   UNL d   1      52.857  29.666  52.839  0.00  0.00     0.044 A 
ATOM     18  O   UNL d   1      52.933  28.442  53.579  0.00  0.00    -0.287 OA
ATOM     19  C   UNL d   1      52.923  30.486  52.807  0.00  0.00     0.022 A 
ATOM     20  C   UNL d   1      52.782  30.889  52.098  0.00  0.00     0.002 C 
BRANCH  15  21
ATOM     21  C   UNL d   1      53.347  29.282  54.936  0.00  0.00     0.003 C 
ATOM     22  C   UNL d   1      53.797  28.584  54.939  0.00  0.00     0.000 C 
ATOM     23  C   UNL d   1      53.034  29.580  55.657  0.00  0.00     0.000 C 
ENDBRANCH  15  21
ENDBRANCH   1  13
TORSDOF 5
ENDMDL
