MODEL 1
REMARK VINA RESULT:      39.3      0.000      0.000
REMARK  6 active torsions:
REMARK  status: ('A' for Active; 'I' for Inactive)
REMARK    1  A    between atoms: C_9  and  N_1 
REMARK    2  A    between atoms: S_10  and  C_6 
REMARK    3  A    between atoms: C_16  and  S_10 
REMARK    4  A    between atoms: C_12  and  C_16 
REMARK    5  A    between atoms: O_20  and  C_12 
REMARK    6  A    between atoms: C_22  and  O_20 
ROOT
ATOM      1  N   UNL d   1      14.458  14.528  -1.632  0.00  0.00    -0.212 N 
ATOM      2  C   UNL d   1      14.709  13.765  -1.461  0.00  0.00     0.169 A 
ATOM      3  N   UNL d   1      13.838  14.491  -2.151  0.00  0.00    -0.162 NA
ATOM      4  C   UNL d   1      14.230  13.244  -1.886  0.00  0.00     0.081 A 
ATOM      5  C   UNL d   1      13.690  13.692  -2.315  0.00  0.00     0.126 A 
ATOM      6  C   UNL d   1      14.350  12.433  -1.828  0.00  0.00     0.117 A 
ATOM      7  N   UNL d   1      15.307  13.474  -0.977  0.00  0.00    -0.205 NA
ATOM      8  N   UNL d   1      14.949  12.139  -1.343  0.00  0.00    -0.217 NA
ATOM      9  C   UNL d   1      15.428  12.659  -0.917  0.00  0.00     0.201 A 
ENDROOT
BRANCH   1  10
ATOM     10  C   UNL d   1      14.838  15.178  -1.282  0.00  0.00     0.085 A 
ATOM     11  C   UNL d   1      14.905  15.881  -1.694  0.00  0.00     0.020 A 
ATOM     12  C   UNL d   1      15.277  16.522  -1.356  0.00  0.00     0.013 A 
ATOM     13  C   UNL d   1      15.593  16.467  -0.585  0.00  0.00     0.058 A 
ATOM     14  C   UNL d   1      15.521  15.752  -0.175  0.00  0.00     0.013 A 
ATOM     15 CL   UNL d   1      15.973  17.118  -0.236  0.00  0.00    -0.082 Cl
ATOM     16  C   UNL d   1      15.146  15.113  -0.522  0.00  0.00     0.020 A 
ENDBRANCH   1  10
BRANCH   6  17
ATOM     17  S   UNL d   1      13.872  11.913  -2.253  0.00  0.00    -0.062 SA
BRANCH  17  18
ATOM     18  C   UNL d   1      13.427  12.187  -2.880  0.00  0.00     0.105 C 
BRANCH  18  19
ATOM     19  C   UNL d   1      13.625  11.972  -3.651  0.00  0.00     0.307 C 
ATOM     20  O   UNL d   1      14.405  11.779  -3.839  0.00  0.00    -0.258 OA
BRANCH  19  21
ATOM     21  O   UNL d   1      13.042  11.949  -4.236  0.00  0.00    -0.271 OA
BRANCH  21  22
ATOM     22  C   UNL d   1      13.250  11.792  -5.019  0.00  0.00     0.126 C 
ATOM     23  C   UNL d   1      13.273  12.406  -5.571  0.00  0.00     0.029 C 
ENDBRANCH  21  22
ENDBRANCH  19  21
ENDBRANCH  18  19
ENDBRANCH  17  18
ENDBRANCH   6  17
TORSDOF 6
ENDMDL
MODEL 2
REMARK VINA RESULT:      40.8      2.998      3.952
REMARK  6 active torsions:
REMARK  status: ('A' for Active; 'I' for Inactive)
REMARK    1  A    between atoms: C_9  and  N_1 
REMARK    2  A    between atoms: S_10  and  C_6 
REMARK    3  A    between atoms: C_16  and  S_10 
REMARK    4  A    between atoms: C_12  and  C_16 
REMARK    5  A    between atoms: O_20  and  C_12 
REMARK    6  A    between atoms: C_22  and  O_20 
ROOT
ATOM      1  N   UNL d   1      13.890  13.302  -2.908  0.00  0.00    -0.212 N 
ATOM      2  C   UNL d   1      14.060  14.100  -3.009  0.00  0.00     0.169 A 
ATOM      3  N   UNL d   1      13.526  13.025  -3.576  0.00  0.00    -0.162 NA
ATOM      4  C   UNL d   1      13.793  14.319  -3.758  0.00  0.00     0.081 A 
ATOM      5  C   UNL d   1      13.462  13.654  -4.112  0.00  0.00     0.126 A 
ATOM      6  C   UNL d   1      13.887  15.092  -4.019  0.00  0.00     0.117 A 
ATOM      7  N   UNL d   1      14.421  14.654  -2.520  0.00  0.00    -0.205 NA
ATOM      8  N   UNL d   1      14.249  15.651  -3.531  0.00  0.00    -0.217 NA
ATOM      9  C   UNL d   1      14.515  15.432  -2.781  0.00  0.00     0.201 A 
ENDROOT
BRANCH   1  10
ATOM     10  C   UNL d   1      14.095  12.920  -2.200  0.00  0.00     0.085 A 
ATOM     11  C   UNL d   1      13.815  12.166  -2.049  0.00  0.00     0.020 A 
ATOM     12  C   UNL d   1      14.013  11.786  -1.356  0.00  0.00     0.013 A 
ATOM     13  C   UNL d   1      14.504  12.163  -0.794  0.00  0.00     0.058 A 
ATOM     14  C   UNL d   1      14.782  12.925  -0.956  0.00  0.00     0.013 A 
ATOM     15 CL   UNL d   1      14.708  11.779  -0.086  0.00  0.00    -0.082 Cl
ATOM     16  C   UNL d   1      14.578  13.299  -1.654  0.00  0.00     0.020 A 
ENDBRANCH   1  10
BRANCH   6  17
ATOM     17  S   UNL d   1      13.620  15.311  -4.768  0.00  0.00    -0.062 SA
BRANCH  17  18
ATOM     18  C   UNL d   1      13.641  16.094  -4.996  0.00  0.00     0.105 C 
BRANCH  18  19
ATOM     19  C   UNL d   1      13.528  16.297  -5.788  0.00  0.00     0.307 C 
ATOM     20  O   UNL d   1      13.832  15.815  -6.385  0.00  0.00    -0.258 OA
BRANCH  19  21
ATOM     21  O   UNL d   1      13.109  16.981  -5.983  0.00  0.00    -0.271 OA
BRANCH  21  22
ATOM     22  C   UNL d   1      13.516  17.683  -6.137  0.00  0.00     0.126 C 
ATOM     23  C   UNL d   1      13.101  18.357  -6.373  0.00  0.00     0.029 C 
ENDBRANCH  21  22
ENDBRANCH  19  21
ENDBRANCH  18  19
ENDBRANCH  17  18
ENDBRANCH   6  17
TORSDOF 6
ENDMDL
