MODEL 1
REMARK VINA RESULT:      11.4      0.000      0.000
REMARK  6 active torsions:
REMARK  status: ('A' for Active; 'I' for Inactive)
REMARK    1  A    between atoms: C_7  and  C_3 
REMARK    2  A    between atoms: C_6  and  O_14 
REMARK    3  A    between atoms: S_8  and  C_7 
REMARK    4  A    between atoms: C_17  and  S_8 
REMARK    5  A    between atoms: O_14  and  C_18 
REMARK    6  A    between atoms: C_18  and  C_17 
ROOT
ATOM      1  S   UNL d   1     -41.423-123.631 -50.946  0.00  0.00    -0.081 SA
ENDROOT
BRANCH   1   2
ATOM      2  C   UNL d   1     -41.130-123.634 -50.177  0.00  0.00     0.074 C 
BRANCH   2   3
ATOM      3  C   UNL d   1     -41.609-123.388 -49.555  0.00  0.00     0.169 A 
ATOM      4  N   UNL d   1     -42.274-123.017 -49.208  0.00  0.00    -0.225 NA
ATOM      5  C   UNL d   1     -42.211-123.100 -48.376  0.00  0.00     0.101 A 
ATOM      6  C   UNL d   1     -41.509-123.521 -48.221  0.00  0.00     0.101 A 
ATOM      7  C   UNL d   1     -42.686-122.856 -47.740  0.00  0.00     0.021 A 
ATOM      8  N   UNL d   1     -41.132-123.702 -48.943  0.00  0.00    -0.225 NA
ATOM      9  C   UNL d   1     -41.296-123.689 -47.433  0.00  0.00     0.021 A 
ATOM     10  C   UNL d   1     -41.773-123.443 -46.819  0.00  0.00     0.002 A 
ATOM     11  C   UNL d   1     -42.468-123.027 -46.972  0.00  0.00     0.002 A 
ENDBRANCH   2   3
ENDBRANCH   1   2
BRANCH   1  12
ATOM     12  C   UNL d   1     -41.123-123.098 -51.497  0.00  0.00     0.062 C 
BRANCH  12  13
ATOM     13  C   UNL d   1     -41.599-122.832 -52.114  0.00  0.00     0.130 C 
BRANCH  13  14
ATOM     14  O   UNL d   1     -42.302-122.435 -51.940  0.00  0.00    -0.305 OA
BRANCH  14  15
ATOM     15  C   UNL d   1     -42.046-121.805 -52.407  0.00  0.00     0.100 A 
ATOM     16  C   UNL d   1     -41.541-121.938 -53.035  0.00  0.00     0.025 A 
ATOM     17  C   UNL d   1     -41.283-121.310 -53.504  0.00  0.00     0.002 A 
ATOM     18  C   UNL d   1     -41.535-120.547 -53.338  0.00  0.00     0.000 A 
ATOM     19  C   UNL d   1     -42.047-120.414 -52.701  0.00  0.00     0.002 A 
ATOM     20  C   UNL d   1     -41.280-119.916 -53.804  0.00  0.00     0.000 C 
ATOM     21  C   UNL d   1     -42.300-121.048 -52.237  0.00  0.00     0.025 A 
ENDBRANCH  14  15
ENDBRANCH  13  14
ENDBRANCH  12  13
ENDBRANCH   1  12
TORSDOF 6
ENDMDL
