MODEL 1
REMARK VINA RESULT:      44.5      0.000      0.000
REMARK  3 active torsions:
REMARK  status: ('A' for Active; 'I' for Inactive)
REMARK    1  A    between atoms: S_6  and  C_1 
REMARK    2  A    between atoms: C_9  and  S_6 
REMARK    3  A    between atoms: C_7  and  C_9 
REMARK       I    between atoms: N_8  and  C_7 
ROOT
ATOM      1  C   UNL d   1      58.363  49.693  50.635  0.00  0.00     0.049 A 
ATOM      2  N   UNL d   1      57.206  49.671  51.306  0.00  0.00    -0.245 NA
ATOM      3  C   UNL d   1      58.029  49.686  51.388  0.00  0.00     0.087 A 
ATOM      4  C   UNL d   1      57.756  49.684  50.080  0.00  0.00     0.025 A 
ATOM      5  C   UNL d   1      57.040  49.670  50.488  0.00  0.00     0.082 A 
ATOM      6  C   UNL d   1      58.450  49.692  52.097  0.00  0.00     0.021 C 
ATOM      7  C   UNL d   1      57.756  49.686  49.258  0.00  0.00     0.002 A 
ATOM      8  C   UNL d   1      56.324  49.659  50.075  0.00  0.00     0.019 A 
ATOM      9  C   UNL d   1      57.049  49.674  48.835  0.00  0.00     0.000 A 
ATOM     10  C   UNL d   1      56.327  49.660  49.256  0.00  0.00     0.002 A 
ENDROOT
BRANCH   1  11
ATOM     11  S   UNL d   1      59.177  49.708  50.460  0.00  0.00    -0.080 SA
BRANCH  11  12
ATOM     12  C   UNL d   1      59.678  49.150  50.812  0.00  0.00     0.097 C 
BRANCH  12  13
ATOM     13  C   UNL d   1      60.445  49.051  50.513  0.00  0.00     0.272 C 
ATOM     14  N   UNL d   1      60.818  48.310  50.595  0.00  0.00    -0.267 N 
ATOM     15  C   UNL d   1      61.583  48.208  50.299  0.00  0.00     0.110 A 
ATOM     16  C   UNL d   1      60.428  47.681  50.970  0.00  0.00     0.110 A 
ATOM     17  C   UNL d   1      61.955  47.472  50.379  0.00  0.00     0.142 A 
ATOM     18  O   UNL d   1      61.569  46.841  50.753  0.00  0.00    -0.300 OA
ATOM     19  C   UNL d   1      60.799  46.952  51.049  0.00  0.00     0.142 A 
ATOM     20  O   UNL d   1      60.839  49.677  50.138  0.00  0.00    -0.266 OA
ENDBRANCH  12  13
ENDBRANCH  11  12
ENDBRANCH   1  11
TORSDOF 3
ENDMDL
