MODEL 1
REMARK VINA RESULT:      -5.7      0.000      0.000
REMARK  7 active torsions:
REMARK  status: ('A' for Active; 'I' for Inactive)
REMARK    1  A    between atoms: N_2  and  S_1 
REMARK    2  A    between atoms: C_5  and  S_1 
REMARK    3  A    between atoms: C_3  and  N_2 
REMARK    4  A    between atoms: C_4  and  C_3 
REMARK    5  A    between atoms: C_8  and  C_3 
REMARK    6  A    between atoms: C_17  and  C_8 
REMARK    7  A    between atoms: C_9  and  C_10 
ROOT
ATOM      1  S   UNL d   1     -41.447-121.996 -51.923  0.00  0.00     0.285 S 
ATOM      2  O   UNL d   1     -41.160-121.337 -51.530  0.00  0.00    -0.198 OA
ATOM      3  O   UNL d   1     -41.193-121.673 -52.650  0.00  0.00    -0.198 OA
ENDROOT
BRANCH   1   4
ATOM      4  N   UNL d   1     -41.733-122.654 -52.315  0.00  0.00    -0.152 NA
BRANCH   4   5
ATOM      5  C   UNL d   1     -41.719-122.687 -53.125  0.00  0.00     0.158 C 
BRANCH   5   6
ATOM      6  C   UNL d   1     -41.797-123.404 -53.511  0.00  0.00     0.230 C 
ATOM      7  O   UNL d   1     -42.532-123.711 -53.663  0.00  0.00    -0.643 OA
ATOM      8  O   UNL d   1     -41.123-123.816 -53.749  0.00  0.00    -0.643 OA
ENDBRANCH   5   6
BRANCH   5   9
ATOM      9  C   UNL d   1     -41.627-121.993 -53.563  0.00  0.00     0.026 C 
BRANCH   9  10
ATOM     10  C   UNL d   1     -41.906-121.948 -54.338  0.00  0.00     0.002 A 
ATOM     11  C   UNL d   1     -41.382-122.005 -54.978  0.00  0.00     0.000 A 
ATOM     12  C   UNL d   1     -41.662-121.960 -55.750  0.00  0.00     0.000 A 
ATOM     13  C   UNL d   1     -42.466-121.858 -55.890  0.00  0.00     0.000 A 
ATOM     14  C   UNL d   1     -43.011-121.798 -55.244  0.00  0.00     0.000 A 
ATOM     15  C   UNL d   1     -42.705-121.847 -54.477  0.00  0.00     0.000 A 
ENDBRANCH   9  10
ENDBRANCH   5   9
ENDBRANCH   4   5
ENDBRANCH   1   4
BRANCH   1  16
ATOM     16  C   UNL d   1     -41.696-122.312 -51.209  0.00  0.00     0.105 A 
ATOM     17  C   UNL d   1     -41.290-122.951 -50.881  0.00  0.00     0.013 A 
ATOM     18  C   UNL d   1     -41.540-123.267 -50.168  0.00  0.00    -0.004 A 
ATOM     19  C   UNL d   1     -42.194-122.945 -49.784  0.00  0.00    -0.023 A 
ATOM     20  C   UNL d   1     -42.612-122.295 -50.112  0.00  0.00    -0.004 A 
ATOM     21  C   UNL d   1     -42.351-121.990 -50.825  0.00  0.00     0.013 A 
BRANCH  19  22
ATOM     22  C   UNL d   1     -42.427-123.282 -49.065  0.00  0.00     0.019 C 
ATOM     23  C   UNL d   1     -41.704-123.065 -48.745  0.00  0.00     0.004 C 
ATOM     24  C   UNL d   1     -42.651-123.611 -48.358  0.00  0.00     0.004 C 
ATOM     25  C   UNL d   1     -43.145-123.493 -49.395  0.00  0.00     0.004 C 
ENDBRANCH  19  22
ENDBRANCH   1  16
TORSDOF 7
ENDMDL
MODEL 2
REMARK VINA RESULT:      -3.8      0.852      4.680
REMARK  7 active torsions:
REMARK  status: ('A' for Active; 'I' for Inactive)
REMARK    1  A    between atoms: N_2  and  S_1 
REMARK    2  A    between atoms: C_5  and  S_1 
REMARK    3  A    between atoms: C_3  and  N_2 
REMARK    4  A    between atoms: C_4  and  C_3 
REMARK    5  A    between atoms: C_8  and  C_3 
REMARK    6  A    between atoms: C_17  and  C_8 
REMARK    7  A    between atoms: C_9  and  C_10 
ROOT
ATOM      1  S   UNL d   1     -41.489-123.192 -52.420  0.00  0.00     0.285 S 
ATOM      2  O   UNL d   1     -41.123-123.817 -52.800  0.00  0.00    -0.198 OA
ATOM      3  O   UNL d   1     -41.276-123.516 -51.680  0.00  0.00    -0.198 OA
ENDROOT
BRANCH   1   4
ATOM      4  N   UNL d   1     -41.856-122.567 -52.040  0.00  0.00    -0.152 NA
BRANCH   4   5
ATOM      5  C   UNL d   1     -41.866-122.528 -51.230  0.00  0.00     0.158 C 
BRANCH   5   6
ATOM      6  C   UNL d   1     -41.728-121.818 -50.847  0.00  0.00     0.230 C 
ATOM      7  O   UNL d   1     -42.183-121.168 -51.014  0.00  0.00    -0.643 OA
ATOM      8  O   UNL d   1     -41.123-121.764 -50.289  0.00  0.00    -0.643 OA
ENDBRANCH   5   6
BRANCH   5   9
ATOM      9  C   UNL d   1     -42.016-123.209 -50.788  0.00  0.00     0.026 C 
BRANCH   9  10
ATOM     10  C   UNL d   1     -42.517-123.181 -50.134  0.00  0.00     0.002 A 
ATOM     11  C   UNL d   1     -42.211-123.242 -49.365  0.00  0.00     0.000 A 
ATOM     12  C   UNL d   1     -42.712-123.213 -48.714  0.00  0.00     0.000 A 
ATOM     13  C   UNL d   1     -43.523-123.123 -48.824  0.00  0.00     0.000 A 
ATOM     14  C   UNL d   1     -43.847-123.059 -49.603  0.00  0.00     0.000 A 
ATOM     15  C   UNL d   1     -43.323-123.091 -50.242  0.00  0.00     0.000 A 
ENDBRANCH   9  10
ENDBRANCH   5   9
ENDBRANCH   4   5
ENDBRANCH   1   4
BRANCH   1  16
ATOM     16  C   UNL d   1     -41.699-122.874 -53.145  0.00  0.00     0.105 A 
ATOM     17  C   UNL d   1     -42.225-123.280 -53.633  0.00  0.00     0.013 A 
ATOM     18  C   UNL d   1     -42.435-122.963 -54.358  0.00  0.00    -0.004 A 
ATOM     19  C   UNL d   1     -42.118-122.239 -54.594  0.00  0.00    -0.023 A 
ATOM     20  C   UNL d   1     -41.583-121.819 -54.103  0.00  0.00    -0.004 A 
ATOM     21  C   UNL d   1     -41.383-122.150 -53.381  0.00  0.00     0.013 A 
BRANCH  19  22
ATOM     22  C   UNL d   1     -42.346-121.938 -55.331  0.00  0.00     0.019 C 
ATOM     23  C   UNL d   1     -42.369-122.704 -55.621  0.00  0.00     0.004 C 
ATOM     24  C   UNL d   1     -42.568-121.648 -56.055  0.00  0.00     0.004 C 
ATOM     25  C   UNL d   1     -42.319-121.178 -55.030  0.00  0.00     0.004 C 
ENDBRANCH  19  22
ENDBRANCH   1  16
TORSDOF 7
ENDMDL
