MODEL 1
REMARK VINA RESULT:      -2.6      0.000      0.000
REMARK  1 active torsions:
REMARK  status: ('A' for Active; 'I' for Inactive)
REMARK    1  A    between atoms: C_2  and  C_1 
ROOT
ATOM      1  C   UNL d   1      32.167  22.433 -21.031  0.00  0.00     0.169 A 
ATOM      2  N   UNL d   1      31.684  21.838 -20.750  0.00  0.00    -0.142 NA
ATOM      3  N   UNL d   1      32.015  21.109 -20.951  0.00  0.00    -0.146 NA
ATOM      4  C   UNL d   1      32.811  22.084 -21.413  0.00  0.00     0.050 A 
ATOM      5  C   UNL d   1      32.717  21.267 -21.364  0.00  0.00     0.124 A 
ENDROOT
BRANCH   1   6
ATOM      6  C   UNL d   1      32.040  23.246 -20.951  0.00  0.00     0.231 C 
ATOM      7  O   UNL d   1      32.528  23.690 -20.456  0.00  0.00    -0.643 OA
ATOM      8  O   UNL d   1      31.429  23.610 -21.363  0.00  0.00    -0.643 OA
ENDBRANCH   1   6
TORSDOF 1
ENDMDL
MODEL 2
REMARK VINA RESULT:      -2.4      1.549      2.017
REMARK  1 active torsions:
REMARK  status: ('A' for Active; 'I' for Inactive)
REMARK    1  A    between atoms: C_2  and  C_1 
ROOT
ATOM      1  C   UNL d   1      32.189  22.420 -20.803  0.00  0.00     0.169 A 
ATOM      2  N   UNL d   1      31.702  22.827 -21.316  0.00  0.00    -0.142 NA
ATOM      3  N   UNL d   1      31.702  23.626 -21.105  0.00  0.00    -0.146 NA
ATOM      4  C   UNL d   1      32.503  22.958 -20.261  0.00  0.00     0.050 A 
ATOM      5  C   UNL d   1      32.202  23.702 -20.448  0.00  0.00     0.124 A 
ENDROOT
BRANCH   1   6
ATOM      6  C   UNL d   1      32.346  21.608 -20.818  0.00  0.00     0.231 C 
ATOM      7  O   UNL d   1      33.122  21.339 -20.746  0.00  0.00    -0.643 OA
ATOM      8  O   UNL d   1      31.729  21.071 -20.903  0.00  0.00    -0.643 OA
ENDBRANCH   1   6
TORSDOF 1
ENDMDL
MODEL 3
REMARK VINA RESULT:      -1.9      1.425      1.704
REMARK  1 active torsions:
REMARK  status: ('A' for Active; 'I' for Inactive)
REMARK    1  A    between atoms: C_2  and  C_1 
ROOT
ATOM      1  C   UNL d   1      32.749  21.165 -21.217  0.00  0.00     0.169 A 
ATOM      2  N   UNL d   1      32.937  21.331 -21.993  0.00  0.00    -0.142 NA
ATOM      3  N   UNL d   1      33.241  20.647 -22.345  0.00  0.00    -0.146 NA
ATOM      4  C   UNL d   1      32.932  20.374 -21.069  0.00  0.00     0.050 A 
ATOM      5  C   UNL d   1      33.236  20.055 -21.765  0.00  0.00     0.124 A 
ENDROOT
BRANCH   1   6
ATOM      6  C   UNL d   1      32.429  21.694 -20.668  0.00  0.00     0.231 C 
ATOM      7  O   UNL d   1      32.931  22.141 -20.189  0.00  0.00    -0.643 OA
ATOM      8  O   UNL d   1      31.614  21.776 -20.600  0.00  0.00    -0.643 OA
ENDBRANCH   1   6
TORSDOF 1
ENDMDL
MODEL 4
REMARK VINA RESULT:      -1.9      7.202      7.607
REMARK  1 active torsions:
REMARK  status: ('A' for Active; 'I' for Inactive)
REMARK    1  A    between atoms: C_2  and  C_1 
ROOT
ATOM      1  C   UNL d   1      28.695  16.581 -23.899  0.00  0.00     0.169 A 
ATOM      2  N   UNL d   1      28.348  17.315 -23.829  0.00  0.00    -0.142 NA
ATOM      3  N   UNL d   1      28.683  17.822 -24.389  0.00  0.00    -0.146 NA
ATOM      4  C   UNL d   1      29.255  16.615 -24.505  0.00  0.00     0.050 A 
ATOM      5  C   UNL d   1      29.248  17.381 -24.807  0.00  0.00     0.124 A 
ENDROOT
BRANCH   1   6
ATOM      6  C   UNL d   1      28.520  15.912 -23.444  0.00  0.00     0.231 C 
ATOM      7  O   UNL d   1      27.859  15.455 -23.626  0.00  0.00    -0.643 OA
ATOM      8  O   UNL d   1      29.004  15.705 -22.813  0.00  0.00    -0.643 OA
ENDBRANCH   1   6
TORSDOF 1
ENDMDL
MODEL 5
REMARK VINA RESULT:      -1.8      7.364      7.632
REMARK  1 active torsions:
REMARK  status: ('A' for Active; 'I' for Inactive)
REMARK    1  A    between atoms: C_2  and  C_1 
ROOT
ATOM      1  C   UNL d   1      29.129  16.009 -23.490  0.00  0.00     0.169 A 
ATOM      2  N   UNL d   1      29.711  16.374 -23.931  0.00  0.00    -0.142 NA
ATOM      3  N   UNL d   1      30.443  16.055 -23.722  0.00  0.00    -0.146 NA
ATOM      4  C   UNL d   1      29.489  15.455 -22.995  0.00  0.00     0.050 A 
ATOM      5  C   UNL d   1      30.300  15.483 -23.138  0.00  0.00     0.124 A 
ENDROOT
BRANCH   1   6
ATOM      6  C   UNL d   1      28.318  16.164 -23.527  0.00  0.00     0.231 C 
ATOM      7  O   UNL d   1      27.784  15.539 -23.593  0.00  0.00    -0.643 OA
ATOM      8  O   UNL d   1      28.044  16.939 -23.499  0.00  0.00    -0.643 OA
ENDBRANCH   1   6
TORSDOF 1
ENDMDL
MODEL 6
REMARK VINA RESULT:      -1.8      6.940      7.323
REMARK  1 active torsions:
REMARK  status: ('A' for Active; 'I' for Inactive)
REMARK    1  A    between atoms: C_2  and  C_1 
ROOT
ATOM      1  C   UNL d   1      28.947  16.640 -23.973  0.00  0.00     0.169 A 
ATOM      2  N   UNL d   1      29.656  16.239 -23.931  0.00  0.00    -0.142 NA
ATOM      3  N   UNL d   1      29.541  15.541 -23.505  0.00  0.00    -0.146 NA
ATOM      4  C   UNL d   1      28.375  16.200 -23.573  0.00  0.00     0.050 A 
ATOM      5  C   UNL d   1      28.742  15.521 -23.283  0.00  0.00     0.124 A 
ENDROOT
BRANCH   1   6
ATOM      6  C   UNL d   1      28.817  17.364 -24.351  0.00  0.00     0.231 C 
ATOM      7  O   UNL d   1      28.369  17.947 -23.976  0.00  0.00    -0.643 OA
ATOM      8  O   UNL d   1      29.132  17.503 -25.097  0.00  0.00    -0.643 OA
ENDBRANCH   1   6
TORSDOF 1
ENDMDL
MODEL 7
REMARK VINA RESULT:      -1.6      4.502      5.035
REMARK  1 active torsions:
REMARK  status: ('A' for Active; 'I' for Inactive)
REMARK    1  A    between atoms: C_2  and  C_1 
ROOT
ATOM      1  C   UNL d   1      32.520  18.131 -23.464  0.00  0.00     0.169 A 
ATOM      2  N   UNL d   1      31.901  18.090 -23.993  0.00  0.00    -0.142 NA
ATOM      3  N   UNL d   1      31.688  17.298 -24.093  0.00  0.00    -0.146 NA
ATOM      4  C   UNL d   1      32.707  17.363 -23.223  0.00  0.00     0.050 A 
ATOM      5  C   UNL d   1      32.193  16.850 -23.611  0.00  0.00     0.124 A 
ENDROOT
BRANCH   1   6
ATOM      6  C   UNL d   1      32.901  18.819 -23.208  0.00  0.00     0.231 C 
ATOM      7  O   UNL d   1      32.957  18.981 -22.401  0.00  0.00    -0.643 OA
ATOM      8  O   UNL d   1      33.222  19.341 -23.757  0.00  0.00    -0.643 OA
ENDBRANCH   1   6
TORSDOF 1
ENDMDL
MODEL 8
REMARK VINA RESULT:      -1.3      7.725      7.874
REMARK  1 active torsions:
REMARK  status: ('A' for Active; 'I' for Inactive)
REMARK    1  A    between atoms: C_2  and  C_1 
ROOT
ATOM      1  C   UNL d   1      29.520  15.679 -23.790  0.00  0.00     0.169 A 
ATOM      2  N   UNL d   1      30.325  15.589 -23.885  0.00  0.00    -0.142 NA
ATOM      3  N   UNL d   1      30.502  15.609 -24.692  0.00  0.00    -0.146 NA
ATOM      4  C   UNL d   1      29.178  15.757 -24.537  0.00  0.00     0.050 A 
ATOM      5  C   UNL d   1      29.784  15.714 -25.094  0.00  0.00     0.124 A 
ENDROOT
BRANCH   1   6
ATOM      6  C   UNL d   1      29.111  15.692 -23.071  0.00  0.00     0.231 C 
ATOM      7  O   UNL d   1      29.497  15.472 -22.377  0.00  0.00    -0.643 OA
ATOM      8  O   UNL d   1      28.322  15.922 -23.050  0.00  0.00    -0.643 OA
ENDBRANCH   1   6
TORSDOF 1
ENDMDL
MODEL 9
REMARK VINA RESULT:      -1.3      3.753      4.056
REMARK  1 active torsions:
REMARK  status: ('A' for Active; 'I' for Inactive)
REMARK    1  A    between atoms: C_2  and  C_1 
ROOT
ATOM      1  C   UNL d   1      33.133  23.017 -17.433  0.00  0.00     0.169 A 
ATOM      2  N   UNL d   1      33.036  23.702 -17.866  0.00  0.00    -0.142 NA
ATOM      3  N   UNL d   1      33.083  23.518 -18.670  0.00  0.00    -0.146 NA
ATOM      4  C   UNL d   1      33.241  22.391 -17.960  0.00  0.00     0.050 A 
ATOM      5  C   UNL d   1      33.210  22.700 -18.723  0.00  0.00     0.124 A 
ENDROOT
BRANCH   1   6
ATOM      6  C   UNL d   1      33.124  22.954 -16.609  0.00  0.00     0.231 C 
ATOM      7  O   UNL d   1      33.049  23.634 -16.147  0.00  0.00    -0.643 OA
ATOM      8  O   UNL d   1      33.190  22.218 -16.250  0.00  0.00    -0.643 OA
ENDBRANCH   1   6
TORSDOF 1
ENDMDL
