MODEL 1
REMARK VINA RESULT:      -7.4      0.000      0.000
REMARK  6 active torsions:
REMARK  status: ('A' for Active; 'I' for Inactive)
REMARK    1  A    between atoms: C_8  and  C_3 
REMARK    2  A    between atoms: C_7  and  O_15 
REMARK    3  A    between atoms: S_9  and  C_8 
REMARK    4  A    between atoms: C_18  and  S_9 
REMARK    5  A    between atoms: O_15  and  C_19 
REMARK    6  A    between atoms: C_19  and  C_18 
ROOT
ATOM      1  S   UNL d   1      51.382  33.743  53.065  0.00  0.00    -0.081 SA
ENDROOT
BRANCH   1   2
ATOM      2  C   UNL d   1      50.826  33.953  52.496  0.00  0.00     0.074 C 
BRANCH   2   3
ATOM      3  C   UNL d   1      50.193  34.437  52.700  0.00  0.00     0.169 A 
ATOM      4  N   UNL d   1      49.747  34.934  53.204  0.00  0.00    -0.225 NA
ATOM      5  C   UNL d   1      49.064  35.181  52.786  0.00  0.00     0.101 A 
ATOM      6  C   UNL d   1      49.097  34.834  52.029  0.00  0.00     0.101 A 
ATOM      7  C   UNL d   1      48.420  35.667  52.980  0.00  0.00     0.021 A 
ATOM      8  N   UNL d   1      49.791  34.373  51.968  0.00  0.00    -0.225 NA
ATOM      9  C   UNL d   1      48.486  34.980  51.482  0.00  0.00     0.021 A 
ATOM     10  C   UNL d   1      47.859  35.461  51.687  0.00  0.00     0.002 A 
ATOM     11  C   UNL d   1      47.826  35.804  52.436  0.00  0.00     0.002 A 
ENDBRANCH   2   3
ENDBRANCH   1   2
BRANCH   1  12
ATOM     12  C   UNL d   1      51.983  33.213  52.877  0.00  0.00     0.062 C 
BRANCH  12  13
ATOM     13  C   UNL d   1      52.611  33.101  53.398  0.00  0.00     0.130 C 
BRANCH  13  14
ATOM     14  O   UNL d   1      52.968  32.359  53.448  0.00  0.00    -0.305 OA
BRANCH  14  15
ATOM     15  C   UNL d   1      53.576  32.696  53.894  0.00  0.00     0.100 A 
ATOM     16  C   UNL d   1      54.259  32.945  53.521  0.00  0.00     0.026 A 
ATOM     17  C   UNL d   1      54.869  33.282  53.962  0.00  0.00     0.013 A 
ATOM     18  C   UNL d   1      54.787  33.369  54.782  0.00  0.00     0.058 A 
ATOM     19  C   UNL d   1      54.098  33.118  55.150  0.00  0.00     0.013 A 
ATOM     20 CL   UNL d   1      55.395  33.706  55.226  0.00  0.00    -0.082 Cl
ATOM     21  C   UNL d   1      53.493  32.781  54.701  0.00  0.00     0.026 A 
ENDBRANCH  14  15
ENDBRANCH  13  14
ENDBRANCH  12  13
ENDBRANCH   1  12
TORSDOF 6
ENDMDL
MODEL 2
REMARK VINA RESULT:      -7.1      0.987      1.297
REMARK  6 active torsions:
REMARK  status: ('A' for Active; 'I' for Inactive)
REMARK    1  A    between atoms: C_8  and  C_3 
REMARK    2  A    between atoms: C_7  and  O_15 
REMARK    3  A    between atoms: S_9  and  C_8 
REMARK    4  A    between atoms: C_18  and  S_9 
REMARK    5  A    between atoms: O_15  and  C_19 
REMARK    6  A    between atoms: C_19  and  C_18 
ROOT
ATOM      1  S   UNL d   1      50.562  34.427  53.057  0.00  0.00    -0.081 SA
ENDROOT
BRANCH   1   2
ATOM      2  C   UNL d   1      49.908  34.539  52.570  0.00  0.00     0.074 C 
BRANCH   2   3
ATOM      3  C   UNL d   1      49.312  35.059  52.796  0.00  0.00     0.169 A 
ATOM      4  N   UNL d   1      48.925  35.596  53.307  0.00  0.00    -0.225 NA
ATOM      5  C   UNL d   1      48.224  35.855  52.928  0.00  0.00     0.101 A 
ATOM      6  C   UNL d   1      48.187  35.474  52.188  0.00  0.00     0.101 A 
ATOM      7  C   UNL d   1      47.617  36.378  53.146  0.00  0.00     0.021 A 
ATOM      8  N   UNL d   1      48.854  34.981  52.099  0.00  0.00    -0.225 NA
ATOM      9  C   UNL d   1      47.543  35.623  51.680  0.00  0.00     0.021 A 
ATOM     10  C   UNL d   1      46.954  36.140  51.908  0.00  0.00     0.002 A 
ATOM     11  C   UNL d   1      46.991  36.517  52.641  0.00  0.00     0.002 A 
ENDBRANCH   2   3
ENDBRANCH   1   2
BRANCH   1  12
ATOM     12  C   UNL d   1      51.248  34.088  52.753  0.00  0.00     0.062 C 
BRANCH  12  13
ATOM     13  C   UNL d   1      51.931  34.060  53.212  0.00  0.00     0.130 C 
BRANCH  13  14
ATOM     14  O   UNL d   1      52.638  34.353  52.904  0.00  0.00    -0.305 OA
BRANCH  14  15
ATOM     15  C   UNL d   1      53.046  33.969  53.510  0.00  0.00     0.100 A 
ATOM     16  C   UNL d   1      53.213  34.372  54.201  0.00  0.00     0.026 A 
ATOM     17  C   UNL d   1      53.620  33.993  54.810  0.00  0.00     0.013 A 
ATOM     18  C   UNL d   1      53.859  33.205  54.720  0.00  0.00     0.058 A 
ATOM     19  C   UNL d   1      53.688  32.807  54.023  0.00  0.00     0.013 A 
ATOM     20 CL   UNL d   1      54.267  32.823  55.326  0.00  0.00    -0.082 Cl
ATOM     21  C   UNL d   1      53.280  33.193  53.419  0.00  0.00     0.026 A 
ENDBRANCH  14  15
ENDBRANCH  13  14
ENDBRANCH  12  13
ENDBRANCH   1  12
TORSDOF 6
ENDMDL
MODEL 3
REMARK VINA RESULT:      -7.0      1.432      1.912
REMARK  6 active torsions:
REMARK  status: ('A' for Active; 'I' for Inactive)
REMARK    1  A    between atoms: C_8  and  C_3 
REMARK    2  A    between atoms: C_7  and  O_15 
REMARK    3  A    between atoms: S_9  and  C_8 
REMARK    4  A    between atoms: C_18  and  S_9 
REMARK    5  A    between atoms: O_15  and  C_19 
REMARK    6  A    between atoms: C_19  and  C_18 
ROOT
ATOM      1  S   UNL d   1      51.117  33.677  52.733  0.00  0.00    -0.081 SA
ENDROOT
BRANCH   1   2
ATOM      2  C   UNL d   1      50.622  34.270  53.019  0.00  0.00     0.074 C 
BRANCH   2   3
ATOM      3  C   UNL d   1      49.961  34.497  52.585  0.00  0.00     0.169 A 
ATOM      4  N   UNL d   1      49.455  34.506  51.918  0.00  0.00    -0.225 NA
ATOM      5  C   UNL d   1      48.813  35.017  52.088  0.00  0.00     0.101 A 
ATOM      6  C   UNL d   1      48.930  35.316  52.856  0.00  0.00     0.101 A 
ATOM      7  C   UNL d   1      48.142  35.252  51.659  0.00  0.00     0.021 A 
ATOM      8  N   UNL d   1      49.636  35.000  53.170  0.00  0.00    -0.225 NA
ATOM      9  C   UNL d   1      48.374  35.845  53.181  0.00  0.00     0.021 A 
ATOM     10  C   UNL d   1      47.719  36.067  52.748  0.00  0.00     0.002 A 
ATOM     11  C   UNL d   1      47.604  35.771  51.987  0.00  0.00     0.002 A 
ENDBRANCH   2   3
ENDBRANCH   1   2
BRANCH   1  12
ATOM     12  C   UNL d   1      51.830  33.519  53.113  0.00  0.00     0.062 C 
BRANCH  12  13
ATOM     13  C   UNL d   1      52.187  32.782  53.028  0.00  0.00     0.130 C 
BRANCH  13  14
ATOM     14  O   UNL d   1      52.889  32.719  52.600  0.00  0.00    -0.305 OA
BRANCH  14  15
ATOM     15  C   UNL d   1      53.018  31.981  52.944  0.00  0.00     0.100 A 
ATOM     16  C   UNL d   1      53.533  31.914  53.574  0.00  0.00     0.026 A 
ATOM     17  C   UNL d   1      53.665  31.178  53.922  0.00  0.00     0.013 A 
ATOM     18  C   UNL d   1      53.275  30.508  53.632  0.00  0.00     0.058 A 
ATOM     19  C   UNL d   1      52.758  30.582  52.999  0.00  0.00     0.013 A 
ATOM     20 CL   UNL d   1      53.404  29.770  53.978  0.00  0.00    -0.082 Cl
ATOM     21  C   UNL d   1      52.632  31.322  52.657  0.00  0.00     0.026 A 
ENDBRANCH  14  15
ENDBRANCH  13  14
ENDBRANCH  12  13
ENDBRANCH   1  12
TORSDOF 6
ENDMDL
MODEL 4
REMARK VINA RESULT:      -6.4      2.711      5.809
REMARK  6 active torsions:
REMARK  status: ('A' for Active; 'I' for Inactive)
REMARK    1  A    between atoms: C_8  and  C_3 
REMARK    2  A    between atoms: C_7  and  O_15 
REMARK    3  A    between atoms: S_9  and  C_8 
REMARK    4  A    between atoms: C_18  and  S_9 
REMARK    5  A    between atoms: O_15  and  C_19 
REMARK    6  A    between atoms: C_19  and  C_18 
ROOT
ATOM      1  S   UNL d   1      50.352  34.443  53.184  0.00  0.00    -0.081 SA
ENDROOT
BRANCH   1   2
ATOM      2  C   UNL d   1      50.871  33.870  52.903  0.00  0.00     0.074 C 
BRANCH   2   3
ATOM      3  C   UNL d   1      51.587  33.742  53.286  0.00  0.00     0.169 A 
ATOM      4  N   UNL d   1      52.210  33.924  53.816  0.00  0.00    -0.225 NA
ATOM      5  C   UNL d   1      52.775  33.306  53.771  0.00  0.00     0.101 A 
ATOM      6  C   UNL d   1      52.495  32.752  53.216  0.00  0.00     0.101 A 
ATOM      7  C   UNL d   1      53.500  33.166  54.152  0.00  0.00     0.021 A 
ATOM      8  N   UNL d   1      51.763  33.014  52.912  0.00  0.00    -0.225 NA
ATOM      9  C   UNL d   1      52.944  32.069  53.052  0.00  0.00     0.021 A 
ATOM     10  C   UNL d   1      53.654  31.946  53.435  0.00  0.00     0.002 A 
ATOM     11  C   UNL d   1      53.932  32.495  53.985  0.00  0.00     0.002 A 
ENDBRANCH   2   3
ENDBRANCH   1   2
BRANCH   1  12
ATOM     12  C   UNL d   1      49.741  34.715  52.703  0.00  0.00     0.062 C 
BRANCH  12  13
ATOM     13  C   UNL d   1      49.113  35.134  53.034  0.00  0.00     0.130 C 
BRANCH  13  14
ATOM     14  O   UNL d   1      49.155  35.957  53.077  0.00  0.00    -0.305 OA
BRANCH  14  15
ATOM     15  C   UNL d   1      48.335  35.980  53.168  0.00  0.00     0.100 A 
ATOM     16  C   UNL d   1      48.013  36.014  53.918  0.00  0.00     0.026 A 
ATOM     17  C   UNL d   1      47.194  36.037  54.014  0.00  0.00     0.013 A 
ATOM     18  C   UNL d   1      46.700  36.026  53.350  0.00  0.00     0.058 A 
ATOM     19  C   UNL d   1      47.029  35.992  52.599  0.00  0.00     0.013 A 
ATOM     20 CL   UNL d   1      45.880  36.049  53.442  0.00  0.00    -0.082 Cl
ATOM     21  C   UNL d   1      47.849  35.969  52.512  0.00  0.00     0.026 A 
ENDBRANCH  14  15
ENDBRANCH  13  14
ENDBRANCH  12  13
ENDBRANCH   1  12
TORSDOF 6
ENDMDL
MODEL 5
REMARK VINA RESULT:      -4.5     10.629     11.120
REMARK  6 active torsions:
REMARK  status: ('A' for Active; 'I' for Inactive)
REMARK    1  A    between atoms: C_8  and  C_3 
REMARK    2  A    between atoms: C_7  and  O_15 
REMARK    3  A    between atoms: S_9  and  C_8 
REMARK    4  A    between atoms: C_18  and  S_9 
REMARK    5  A    between atoms: O_15  and  C_19 
REMARK    6  A    between atoms: C_19  and  C_18 
ROOT
ATOM      1  S   UNL d   1      44.984  27.325  57.465  0.00  0.00    -0.081 SA
ENDROOT
BRANCH   1   2
ATOM      2  C   UNL d   1      45.092  28.139  57.522  0.00  0.00     0.074 C 
BRANCH   2   3
ATOM      3  C   UNL d   1      44.950  28.522  58.236  0.00  0.00     0.169 A 
ATOM      4  N   UNL d   1      44.746  28.570  59.047  0.00  0.00    -0.225 NA
ATOM      5  C   UNL d   1      44.778  29.376  59.274  0.00  0.00     0.101 A 
ATOM      6  C   UNL d   1      45.000  29.815  58.602  0.00  0.00     0.101 A 
ATOM      7  C   UNL d   1      44.638  29.774  59.990  0.00  0.00     0.021 A 
ATOM      8  N   UNL d   1      45.109  29.296  57.958  0.00  0.00    -0.225 NA
ATOM      9  C   UNL d   1      45.079  30.643  58.659  0.00  0.00     0.021 A 
ATOM     10  C   UNL d   1      44.938  31.020  59.368  0.00  0.00     0.002 A 
ATOM     11  C   UNL d   1      44.717  30.585  60.034  0.00  0.00     0.002 A 
ENDBRANCH   2   3
ENDBRANCH   1   2
BRANCH   1  12
ATOM     12  C   UNL d   1      45.054  26.952  56.734  0.00  0.00     0.062 C 
BRANCH  12  13
ATOM     13  C   UNL d   1      44.784  26.180  56.640  0.00  0.00     0.130 C 
BRANCH  13  14
ATOM     14  O   UNL d   1      44.339  25.985  55.973  0.00  0.00    -0.305 OA
BRANCH  14  15
ATOM     15  C   UNL d   1      44.513  25.190  56.105  0.00  0.00     0.100 A 
ATOM     16  C   UNL d   1      44.885  24.756  55.522  0.00  0.00     0.026 A 
ATOM     17  C   UNL d   1      45.061  23.960  55.650  0.00  0.00     0.013 A 
ATOM     18  C   UNL d   1      44.860  23.602  56.369  0.00  0.00     0.058 A 
ATOM     19  C   UNL d   1      44.486  24.044  56.951  0.00  0.00     0.013 A 
ATOM     20 CL   UNL d   1      45.035  22.807  56.500  0.00  0.00    -0.082 Cl
ATOM     21  C   UNL d   1      44.314  24.839  56.815  0.00  0.00     0.026 A 
ENDBRANCH  14  15
ENDBRANCH  13  14
ENDBRANCH  12  13
ENDBRANCH   1  12
TORSDOF 6
ENDMDL
