MODEL 1
REMARK VINA RESULT:      -3.0      0.000      0.000
REMARK  4 active torsions:
REMARK  status: ('A' for Active; 'I' for Inactive)
REMARK    1  A    between atoms: C_2  and  S_1 
REMARK    2  A    between atoms: N_5  and  S_1 
REMARK    3  A    between atoms: C_13  and  N_5 
REMARK    4  A    between atoms: C_11  and  C_13 
ROOT
ATOM      1  C   UNL d   1      56.816  -0.435  32.175  0.00  0.00     0.105 A 
ATOM      2  C   UNL d   1      57.082   0.120  32.714  0.00  0.00     0.012 A 
ATOM      3  C   UNL d   1      56.258  -0.997  32.409  0.00  0.00     0.012 A 
ATOM      4  C   UNL d   1      55.970  -1.001  33.184  0.00  0.00     0.001 A 
ATOM      5  C   UNL d   1      56.799   0.123  33.487  0.00  0.00     0.001 A 
ATOM      6  C   UNL d   1      56.241  -0.439  33.726  0.00  0.00     0.000 A 
ATOM      7  C   UNL d   1      57.638   0.682  32.480  0.00  0.00     0.001 C 
ATOM      8  C   UNL d   1      55.989  -1.559  31.864  0.00  0.00     0.001 C 
ATOM      9  C   UNL d   1      57.067   0.682  34.031  0.00  0.00     0.000 C 
ATOM     10  C   UNL d   1      55.414  -1.562  33.418  0.00  0.00     0.000 C 
ENDROOT
BRANCH   1  11
ATOM     11  S   UNL d   1      57.105  -0.428  31.405  0.00  0.00     0.285 S 
ATOM     12  O   UNL d   1      56.649   0.249  31.248  0.00  0.00    -0.198 OA
ATOM     13  O   UNL d   1      57.548  -1.092  31.566  0.00  0.00    -0.198 OA
BRANCH  11  14
ATOM     14  N   UNL d   1      57.387  -0.411  30.632  0.00  0.00    -0.155 NA
BRANCH  14  15
ATOM     15  C   UNL d   1      58.194  -0.488  30.484  0.00  0.00     0.137 C 
BRANCH  15  16
ATOM     16  C   UNL d   1      58.476  -0.398  29.717  0.00  0.00     0.120 A 
ATOM     17  O   UNL d   1      58.256  -0.134  28.970  0.00  0.00    -0.304 OA
ATOM     18  C   UNL d   1      58.899  -0.239  28.461  0.00  0.00     0.123 A 
ATOM     19  C   UNL d   1      59.517  -0.569  28.895  0.00  0.00     0.029 A 
ATOM     20  C   UNL d   1      59.256  -0.669  29.673  0.00  0.00     0.028 A 
ENDBRANCH  15  16
ENDBRANCH  14  15
ENDBRANCH  11  14
ENDBRANCH   1  11
TORSDOF 4
ENDMDL
MODEL 2
REMARK VINA RESULT:      -1.8      1.094      4.432
REMARK  4 active torsions:
REMARK  status: ('A' for Active; 'I' for Inactive)
REMARK    1  A    between atoms: C_2  and  S_1 
REMARK    2  A    between atoms: N_5  and  S_1 
REMARK    3  A    between atoms: C_13  and  N_5 
REMARK    4  A    between atoms: C_11  and  C_13 
ROOT
ATOM      1  C   UNL d   1      58.843  -0.622  29.540  0.00  0.00     0.105 A 
ATOM      2  C   UNL d   1      58.854  -1.406  29.307  0.00  0.00     0.012 A 
ATOM      3  C   UNL d   1      59.439  -0.111  29.282  0.00  0.00     0.012 A 
ATOM      4  C   UNL d   1      60.044  -0.390  28.793  0.00  0.00     0.001 A 
ATOM      5  C   UNL d   1      59.453  -1.691  28.820  0.00  0.00     0.001 A 
ATOM      6  C   UNL d   1      60.052  -1.182  28.560  0.00  0.00     0.000 A 
ATOM      7  C   UNL d   1      58.259  -1.916  29.563  0.00  0.00     0.001 C 
ATOM      8  C   UNL d   1      59.428   0.682  29.517  0.00  0.00     0.001 C 
ATOM      9  C   UNL d   1      59.466  -2.481  28.585  0.00  0.00     0.000 C 
ATOM     10  C   UNL d   1      60.639   0.120  28.536  0.00  0.00     0.000 C 
ENDROOT
BRANCH   1  11
ATOM     11  S   UNL d   1      58.239  -0.348  30.026  0.00  0.00     0.285 S 
ATOM     12  O   UNL d   1      57.764  -0.226  29.356  0.00  0.00    -0.198 OA
ATOM     13  O   UNL d   1      58.711  -0.470  30.679  0.00  0.00    -0.198 OA
BRANCH  11  14
ATOM     14  N   UNL d   1      57.628  -0.073  30.503  0.00  0.00    -0.155 NA
BRANCH  14  15
ATOM     15  C   UNL d   1      57.478  -0.429  31.232  0.00  0.00     0.137 C 
BRANCH  15  16
ATOM     16  C   UNL d   1      56.903  -0.112  31.727  0.00  0.00     0.120 A 
ATOM     17  O   UNL d   1      56.535   0.595  31.927  0.00  0.00    -0.304 OA
ATOM     18  C   UNL d   1      55.978   0.437  32.516  0.00  0.00     0.123 A 
ATOM     19  C   UNL d   1      56.003  -0.370  32.682  0.00  0.00     0.029 A 
ATOM     20  C   UNL d   1      56.576  -0.711  32.193  0.00  0.00     0.028 A 
ENDBRANCH  15  16
ENDBRANCH  14  15
ENDBRANCH  11  14
ENDBRANCH   1  11
TORSDOF 4
ENDMDL
