MODEL 1
REMARK VINA RESULT:      48.1      0.000      0.000
REMARK  4 active torsions:
REMARK  status: ('A' for Active; 'I' for Inactive)
REMARK    1  A    between atoms: S_9  and  C_2 
REMARK    2  A    between atoms: C_11  and  C_3 
REMARK    3  A    between atoms: C_7  and  C_10 
REMARK       I    between atoms: N_8  and  C_7 
REMARK    4  A    between atoms: C_10  and  S_9 
ROOT
ATOM      1  N   UNL d   1      14.316  14.252  -1.521  0.00  0.00    -0.220 NA
ATOM      2  C   UNL d   1      14.225  13.430  -1.430  0.00  0.00     0.114 A 
ATOM      3  C   UNL d   1      14.932  14.635  -1.137  0.00  0.00     0.163 A 
ATOM      4  N   UNL d   1      15.458  14.211  -0.664  0.00  0.00    -0.227 NA
ATOM      5  C   UNL d   1      14.750  13.005  -0.957  0.00  0.00     0.042 A 
ATOM      6  C   UNL d   1      15.368  13.402  -0.575  0.00  0.00     0.085 A 
ATOM      7  C   UNL d   1      14.660  12.204  -0.869  0.00  0.00     0.004 A 
ATOM      8  C   UNL d   1      15.888  12.988  -0.108  0.00  0.00     0.019 A 
ATOM      9  C   UNL d   1      15.185  11.780  -0.396  0.00  0.00     0.000 A 
ATOM     10  C   UNL d   1      15.802  12.177  -0.014  0.00  0.00     0.002 A 
ENDROOT
BRANCH   2  11
ATOM     11  S   UNL d   1      13.611  13.039  -1.811  0.00  0.00    -0.062 SA
BRANCH  11  12
ATOM     12  C   UNL d   1      13.534  13.079  -2.622  0.00  0.00     0.098 C 
BRANCH  12  13
ATOM     13  C   UNL d   1      13.231  12.440  -3.051  0.00  0.00     0.271 C 
ATOM     14  N   UNL d   1      13.217  12.456  -3.873  0.00  0.00    -0.272 N 
ATOM     15  C   UNL d   1      12.918  11.821  -4.292  0.00  0.00     0.083 A 
ATOM     16  C   UNL d   1      13.509  13.121  -4.266  0.00  0.00     0.083 A 
ATOM     17  C   UNL d   1      12.901  11.833  -5.112  0.00  0.00     0.019 A 
ATOM     18  C   UNL d   1      13.189  12.490  -5.520  0.00  0.00     0.003 A 
ATOM     19  C   UNL d   1      13.492  13.130  -5.093  0.00  0.00     0.019 A 
ATOM     20  O   UNL d   1      12.942  11.780  -2.648  0.00  0.00    -0.266 OA
ENDBRANCH  12  13
ENDBRANCH  11  12
ENDBRANCH   2  11
BRANCH   3  21
ATOM     21  C   UNL d   1      15.028  15.446  -1.223  0.00  0.00     0.036 A 
ATOM     22  C   UNL d   1      14.952  15.788  -1.970  0.00  0.00     0.003 A 
ATOM     23  C   UNL d   1      15.048  16.607  -2.058  0.00  0.00     0.000 A 
ATOM     24  C   UNL d   1      15.219  17.070  -1.398  0.00  0.00     0.000 A 
ATOM     25  C   UNL d   1      15.295  16.727  -0.651  0.00  0.00     0.000 A 
ATOM     26  C   UNL d   1      15.200  15.922  -0.564  0.00  0.00     0.003 A 
ENDBRANCH   3  21
TORSDOF 4
ENDMDL
