MODEL 1
REMARK VINA RESULT:      -2.0      0.000      0.000
REMARK  3 active torsions:
REMARK  status: ('A' for Active; 'I' for Inactive)
REMARK    1  A    between atoms: N_6  and  C_1 
REMARK    2  A    between atoms: C_9  and  C_2 
REMARK       I    between atoms: C_8  and  N_6 
REMARK       I    between atoms: C_11  and  N_7 
REMARK    3  A    between atoms: C_17  and  C_8 
ROOT
ATOM      1  C   UNL d   1      57.900  -0.987  30.644  0.00  0.00     0.119 A 
ATOM      2  C   UNL d   1      57.838  -0.174  30.749  0.00  0.00     0.084 A 
ATOM      3  C   UNL d   1      56.970  -0.762  31.569  0.00  0.00     0.049 A 
ATOM      4  C   UNL d   1      57.259  -0.033  31.325  0.00  0.00     0.016 A 
ATOM      5  S   UNL d   1      57.360  -1.355  31.153  0.00  0.00    -0.066 SA
ATOM      6  N   UNL d   1      56.080  -0.094  32.479  0.00  0.00    -0.272 N 
ATOM      7  C   UNL d   1      56.372  -0.787  32.154  0.00  0.00     0.089 A 
ATOM      8  C   UNL d   1      55.492  -0.112  33.055  0.00  0.00     0.265 C 
ATOM      9  C   UNL d   1      56.970   0.670  31.648  0.00  0.00     0.020 A 
ATOM     10  C   UNL d   1      56.381   0.640  32.224  0.00  0.00     0.083 A 
ATOM     11  O   UNL d   1      55.193  -0.839  33.308  0.00  0.00    -0.267 OA
ATOM     12  C   UNL d   1      55.199   0.581  33.380  0.00  0.00     0.066 C 
ENDROOT
BRANCH   1  13
ATOM     13  N   UNL d   1      58.413  -1.380  30.119  0.00  0.00    -0.201 NA
ATOM     14  C   UNL d   1      58.351  -2.200  30.031  0.00  0.00     0.280 C 
ATOM     15  O   UNL d   1      57.793  -2.634  30.451  0.00  0.00    -0.265 OA
BRANCH  14  16
ATOM     16  C   UNL d   1      58.859  -2.589  29.511  0.00  0.00     0.058 A 
ATOM     17  C   UNL d   1      59.671  -2.429  29.528  0.00  0.00     0.005 A 
ATOM     18  C   UNL d   1      60.179  -2.818  29.008  0.00  0.00     0.000 A 
ATOM     19  C   UNL d   1      59.884  -3.374  28.462  0.00  0.00     0.000 A 
ATOM     20  C   UNL d   1      59.072  -3.524  28.455  0.00  0.00     0.000 A 
ATOM     21  C   UNL d   1      58.564  -3.135  28.975  0.00  0.00     0.005 A 
ENDBRANCH  14  16
ENDBRANCH   1  13
BRANCH   2  22
ATOM     22  C   UNL d   1      58.279   0.391  30.348  0.00  0.00     0.299 C 
ATOM     23  O   UNL d   1      58.971   0.681  30.693  0.00  0.00    -0.264 OA
ATOM     24  N   UNL d   1      58.036   0.665  29.610  0.00  0.00    -0.102 N 
ENDBRANCH   2  22
TORSDOF 3
ENDMDL
MODEL 2
REMARK VINA RESULT:      -0.4      1.710      2.421
REMARK  3 active torsions:
REMARK  status: ('A' for Active; 'I' for Inactive)
REMARK    1  A    between atoms: N_6  and  C_1 
REMARK    2  A    between atoms: C_9  and  C_2 
REMARK       I    between atoms: C_8  and  N_6 
REMARK       I    between atoms: C_11  and  N_7 
REMARK    3  A    between atoms: C_17  and  C_8 
ROOT
ATOM      1  C   UNL d   1      57.534   0.431  31.908  0.00  0.00     0.119 A 
ATOM      2  C   UNL d   1      57.779   0.552  32.683  0.00  0.00     0.084 A 
ATOM      3  C   UNL d   1      56.450   0.470  32.680  0.00  0.00     0.049 A 
ATOM      4  C   UNL d   1      57.104   0.576  33.165  0.00  0.00     0.016 A 
ATOM      5  S   UNL d   1      56.707   0.380  31.903  0.00  0.00    -0.066 SA
ATOM      6  N   UNL d   1      55.593   0.573  33.829  0.00  0.00    -0.272 N 
ATOM      7  C   UNL d   1      55.687   0.469  33.022  0.00  0.00     0.089 A 
ATOM      8  C   UNL d   1      54.844   0.573  34.171  0.00  0.00     0.265 C 
ATOM      9  C   UNL d   1      57.019   0.682  33.979  0.00  0.00     0.020 A 
ATOM     10  C   UNL d   1      56.264   0.680  34.311  0.00  0.00     0.083 A 
ATOM     11  O   UNL d   1      54.180   0.467  33.694  0.00  0.00    -0.267 OA
ATOM     12  C   UNL d   1      54.750   0.678  34.979  0.00  0.00     0.066 C 
ENDROOT
BRANCH   1  13
ATOM     13  N   UNL d   1      58.025   0.371  31.238  0.00  0.00    -0.201 NA
ATOM     14  C   UNL d   1      57.730   0.016  30.552  0.00  0.00     0.280 C 
ATOM     15  O   UNL d   1      56.962  -0.278  30.518  0.00  0.00    -0.265 OA
BRANCH  14  16
ATOM     16  C   UNL d   1      58.217  -0.044  29.888  0.00  0.00     0.058 A 
ATOM     17  C   UNL d   1      58.625  -0.749  29.737  0.00  0.00     0.005 A 
ATOM     18  C   UNL d   1      59.111  -0.809  29.074  0.00  0.00     0.000 A 
ATOM     19  C   UNL d   1      59.197  -0.166  28.550  0.00  0.00     0.000 A 
ATOM     20  C   UNL d   1      58.785   0.530  28.713  0.00  0.00     0.000 A 
ATOM     21  C   UNL d   1      58.298   0.591  29.376  0.00  0.00     0.005 A 
ENDBRANCH  14  16
ENDBRANCH   1  13
BRANCH   2  22
ATOM     22  C   UNL d   1      58.559   0.634  32.926  0.00  0.00     0.299 C 
ATOM     23  O   UNL d   1      58.727   0.668  33.734  0.00  0.00    -0.264 OA
ATOM     24  N   UNL d   1      59.168   0.682  32.373  0.00  0.00    -0.102 N 
ENDBRANCH   2  22
TORSDOF 3
ENDMDL
