MODEL 1
REMARK VINA RESULT:      53.2      0.000      0.000
REMARK  7 active torsions:
REMARK  status: ('A' for Active; 'I' for Inactive)
REMARK    1  A    between atoms: C_10  and  C_3 
REMARK    2  A    between atoms: N_11  and  C_4 
REMARK    3  A    between atoms: C_21  and  N_11 
REMARK    4  A    between atoms: O_20  and  C_23 
REMARK    5  A    between atoms: C_24  and  O_20 
REMARK    6  A    between atoms: C_23  and  C_21 
REMARK    7  A    between atoms: C_22  and  C_24 
ROOT
ATOM      1  C   UNL d   1     -54.726-100.820 -41.229  0.00  0.00     0.167 A 
ATOM      2  N   UNL d   1     -54.719-100.235 -41.847  0.00  0.00    -0.195 N 
ATOM      3  C   UNL d   1     -54.727-100.591 -40.451  0.00  0.00     0.057 A 
ATOM      4  C   UNL d   1     -54.718-100.482 -42.615  0.00  0.00     0.167 A 
ATOM      5  N   UNL d   1     -54.715 -99.211 -40.858  0.00  0.00    -0.161 NA
ATOM      6  N   UNL d   1     -54.731-101.614 -41.421  0.00  0.00    -0.227 NA
ATOM      7  C   UNL d   1     -54.723-101.280 -42.820  0.00  0.00     0.058 A 
ATOM      8  C   UNL d   1     -54.722 -99.779 -40.260  0.00  0.00     0.124 A 
ATOM      9  C   UNL d   1     -54.730-101.857 -42.212  0.00  0.00     0.086 A 
ATOM     10  C   UNL d   1     -54.735-102.693 -42.414  0.00  0.00     0.021 C 
ENDROOT
BRANCH   3  11
ATOM     11  C   UNL d   1     -54.734-101.159 -39.852  0.00  0.00     0.005 A 
ATOM     12  C   UNL d   1     -54.762-100.924 -39.072  0.00  0.00     0.001 A 
ATOM     13  C   UNL d   1     -54.768-101.483 -38.483  0.00  0.00     0.011 A 
ATOM     14  C   UNL d   1     -54.747-102.284 -38.665  0.00  0.00     0.058 A 
ATOM     15  C   UNL d   1     -54.719-102.518 -39.446  0.00  0.00     0.011 A 
ATOM     16 CL   UNL d   1     -54.754-102.879 -38.037  0.00  0.00    -0.082 Cl
ATOM     17  C   UNL d   1     -54.712-101.950 -40.044  0.00  0.00     0.001 A 
ENDBRANCH   3  11
BRANCH   4  18
ATOM     18  N   UNL d   1     -54.711 -99.893 -43.242  0.00  0.00    -0.223 NA
BRANCH  18  19
ATOM     19  C   UNL d   1     -55.046 -99.241 -43.680  0.00  0.00     0.127 C 
BRANCH  19  20
ATOM     20  C   UNL d   1     -55.591 -99.418 -44.327  0.00  0.00     0.143 C 
BRANCH  20  21
ATOM     21  O   UNL d   1     -56.135 -98.819 -44.612  0.00  0.00    -0.298 OA
BRANCH  21  22
ATOM     22  C   UNL d   1     -56.953 -98.799 -44.337  0.00  0.00     0.168 C 
BRANCH  22  23
ATOM     23  C   UNL d   1     -57.564 -99.213 -44.775  0.00  0.00     0.261 C 
ATOM     24  O   UNL d   1     -58.214 -99.592 -44.355  0.00  0.00    -0.281 OA
ENDBRANCH  22  23
ENDBRANCH  21  22
ENDBRANCH  20  21
ENDBRANCH  19  20
ENDBRANCH  18  19
ENDBRANCH   4  18
TORSDOF 7
ENDMDL
