MODEL 1
REMARK VINA RESULT:      83.9      0.000      0.000
REMARK  7 active torsions:
REMARK  status: ('A' for Active; 'I' for Inactive)
REMARK    1  A    between atoms: N_3  and  C_1 
REMARK       I    between atoms: C_8  and  N_3 
REMARK    2  A    between atoms: C_12  and  N_3 
REMARK    3  A    between atoms: S_5  and  C_11 
REMARK    4  A    between atoms: C_16  and  S_5 
REMARK    5  A    between atoms: C_9  and  C_8 
REMARK    6  A    between atoms: C_11  and  C_9 
REMARK    7  A    between atoms: C_21  and  C_12 
ROOT
ATOM      1  N   UNL d   1     -55.820 -99.893 -43.871  0.00  0.00    -0.253 N 
ATOM      2  C   UNL d   1     -55.619 -99.799 -43.063  0.00  0.00     0.267 C 
ATOM      3  O   UNL d   1     -56.162 -99.460 -42.548  0.00  0.00    -0.267 OA
ENDROOT
BRANCH   1   4
ATOM      4  C   UNL d   1     -56.559 -99.644 -44.139  0.00  0.00     0.182 A 
ATOM      5  N   UNL d   1     -56.811 -99.615 -44.930  0.00  0.00    -0.222 NA
ATOM      6  C   UNL d   1     -57.592 -99.332 -44.952  0.00  0.00     0.089 A 
ATOM      7  C   UNL d   1     -58.099 -99.195 -45.568  0.00  0.00     0.020 A 
ATOM      8  C   UNL d   1     -57.820 -99.186 -44.171  0.00  0.00     0.050 A 
ATOM      9  C   UNL d   1     -58.841 -98.912 -45.419  0.00  0.00     0.002 A 
ATOM     10  C   UNL d   1     -59.364 -98.772 -46.050  0.00  0.00     0.000 C 
ATOM     11  C   UNL d   1     -59.079 -98.763 -44.645  0.00  0.00     0.001 A 
ATOM     12  C   UNL d   1     -58.570 -98.900 -44.020  0.00  0.00     0.007 A 
ATOM     13  C   UNL d   1     -58.795 -98.755 -43.245  0.00  0.00     0.001 C 
ATOM     14  S   UNL d   1     -57.189 -99.377 -43.673  0.00  0.00    -0.048 SA
ENDBRANCH   1   4
BRANCH   1  15
ATOM     15  C   UNL d   1     -55.281-100.232 -44.394  0.00  0.00     0.086 C 
BRANCH  15  16
ATOM     16  C   UNL d   1     -55.352-101.028 -44.601  0.00  0.00     0.037 A 
ATOM     17  C   UNL d   1     -54.724-101.417 -44.963  0.00  0.00     0.100 A 
ATOM     18  N   UNL d   1     -54.795-102.213 -45.171  0.00  0.00    -0.242 NA
ATOM     19  C   UNL d   1     -55.493-102.618 -45.016  0.00  0.00     0.099 A 
ATOM     20  C   UNL d   1     -56.126-102.229 -44.652  0.00  0.00     0.021 A 
ATOM     21  C   UNL d   1     -56.055-101.434 -44.445  0.00  0.00     0.005 A 
ENDBRANCH  15  16
ENDBRANCH   1  15
BRANCH   2  22
ATOM     22  C   UNL d   1     -54.884-100.047 -42.799  0.00  0.00     0.073 C 
BRANCH  22  23
ATOM     23  C   UNL d   1     -54.718-100.039 -41.987  0.00  0.00     0.104 C 
BRANCH  23  24
ATOM     24  S   UNL d   1     -54.788-100.735 -41.544  0.00  0.00     0.211 S 
ATOM     25  O   UNL d   1     -54.713-100.295 -40.835  0.00  0.00    -0.217 OA
ATOM     26  O   UNL d   1     -54.863-101.174 -42.248  0.00  0.00    -0.217 OA
BRANCH  24  27
ATOM     27  C   UNL d   1     -54.858-101.432 -41.098  0.00  0.00     0.088 A 
ATOM     28  C   UNL d   1     -54.717-102.162 -41.454  0.00  0.00     0.011 A 
ATOM     29  C   UNL d   1     -54.785-102.856 -41.016  0.00  0.00     0.001 A 
ATOM     30  C   UNL d   1     -54.996-102.818 -40.220  0.00  0.00     0.000 A 
ATOM     31  C   UNL d   1     -55.136-102.097 -39.864  0.00  0.00     0.001 A 
ATOM     32  C   UNL d   1     -55.069-101.396 -40.300  0.00  0.00     0.011 A 
ENDBRANCH  24  27
ENDBRANCH  23  24
ENDBRANCH  22  23
ENDBRANCH   2  22
TORSDOF 7
ENDMDL
