MODEL 1
REMARK VINA RESULT:     118.3      0.000      0.000
REMARK  4 active torsions:
REMARK  status: ('A' for Active; 'I' for Inactive)
REMARK    1  A    between atoms: C_12  and  N_3 
REMARK    2  A    between atoms: C_10  and  C_5 
REMARK       I    between atoms: N_11  and  C_10 
REMARK    3  A    between atoms: C_24  and  C_12 
REMARK    4  A    between atoms: C_25  and  N_14 
ROOT
ATOM      1  C   UNL d   1      58.996  49.042  50.712  0.00  0.00     0.154 A 
ATOM      2  C   UNL d   1      58.787  48.386  50.258  0.00  0.00     0.093 A 
ATOM      3  N   UNL d   1      59.819  49.118  50.685  0.00  0.00    -0.286 N 
ATOM      4  N   UNL d   1      58.411  49.478  51.085  0.00  0.00    -0.210 NA
ATOM      5  C   UNL d   1      60.117  48.513  50.219  0.00  0.00     0.122 A 
ATOM      6  C   UNL d   1      57.995  48.172  50.181  0.00  0.00     0.269 A 
ATOM      7  N   UNL d   1      57.413  48.615  50.559  0.00  0.00    -0.258 N 
ATOM      8  C   UNL d   1      57.623  49.271  51.013  0.00  0.00     0.152 A 
ATOM      9  C   UNL d   1      59.481  48.054  49.949  0.00  0.00     0.030 A 
ATOM     10  C   UNL d   1      56.621  48.401  50.483  0.00  0.00     0.084 A 
ATOM     11  O   UNL d   1      57.786  47.516  49.728  0.00  0.00    -0.266 OA
ATOM     12  C   UNL d   1      57.038  49.708  51.386  0.00  0.00     0.038 A 
ATOM     13  C   UNL d   1      56.036  48.845  50.862  0.00  0.00     0.019 A 
ATOM     14  C   UNL d   1      56.245  49.501  51.315  0.00  0.00     0.005 A 
ENDROOT
BRANCH   5  15
ATOM     15  C   UNL d   1      60.914  48.381  50.044  0.00  0.00     0.281 C 
ATOM     16  N   UNL d   1      61.210  47.612  50.031  0.00  0.00    -0.268 N 
ATOM     17  C   UNL d   1      60.712  46.978  50.191  0.00  0.00     0.102 A 
ATOM     18  C   UNL d   1      62.009  47.479  49.855  0.00  0.00     0.102 A 
ATOM     19  C   UNL d   1      61.008  46.205  50.179  0.00  0.00     0.100 A 
ATOM     20  N   UNL d   1      61.807  46.072  50.003  0.00  0.00    -0.300 N 
ATOM     21  C   UNL d   1      62.306  46.712  49.842  0.00  0.00     0.100 A 
ATOM     22  O   UNL d   1      61.411  49.015  49.883  0.00  0.00    -0.265 OA
BRANCH  20  23
ATOM     23  C   UNL d   1      62.111  45.295  49.989  0.00  0.00     0.080 C 
ATOM     24  C   UNL d   1      61.756  44.716  49.513  0.00  0.00     0.021 C 
ENDBRANCH  20  23
ENDBRANCH   5  15
BRANCH   3  25
ATOM     25  C   UNL d   1      60.260  49.705  51.066  0.00  0.00     0.082 C 
BRANCH  25  26
ATOM     26  C   UNL d   1      60.458  49.625  51.857  0.00  0.00     0.018 A 
ATOM     27  C   UNL d   1      61.244  49.702  52.099  0.00  0.00     0.002 A 
ATOM     28  C   UNL d   1      61.446  49.622  52.894  0.00  0.00     0.000 A 
ATOM     29  C   UNL d   1      60.865  49.465  53.448  0.00  0.00     0.000 A 
ATOM     30  C   UNL d   1      60.077  49.387  53.209  0.00  0.00     0.000 A 
ATOM     31  C   UNL d   1      59.875  49.466  52.414  0.00  0.00     0.002 A 
ENDBRANCH  25  26
ENDBRANCH   3  25
TORSDOF 4
ENDMDL
MODEL 2
REMARK VINA RESULT:     118.7      2.077      5.171
REMARK  4 active torsions:
REMARK  status: ('A' for Active; 'I' for Inactive)
REMARK    1  A    between atoms: C_12  and  N_3 
REMARK    2  A    between atoms: C_10  and  C_5 
REMARK       I    between atoms: N_11  and  C_10 
REMARK    3  A    between atoms: C_24  and  C_12 
REMARK    4  A    between atoms: C_25  and  N_14 
ROOT
ATOM      1  C   UNL d   1      59.105  49.237  51.431  0.00  0.00     0.154 A 
ATOM      2  C   UNL d   1      59.319  48.991  52.189  0.00  0.00     0.093 A 
ATOM      3  N   UNL d   1      58.301  49.429  51.443  0.00  0.00    -0.286 N 
ATOM      4  N   UNL d   1      59.670  49.251  50.837  0.00  0.00    -0.210 NA
ATOM      5  C   UNL d   1      58.019  49.303  52.202  0.00  0.00     0.122 A 
ATOM      6  C   UNL d   1      60.095  48.763  52.346  0.00  0.00     0.269 A 
ATOM      7  N   UNL d   1      60.656  48.780  51.744  0.00  0.00    -0.258 N 
ATOM      8  C   UNL d   1      60.442  49.026  50.986  0.00  0.00     0.152 A 
ATOM      9  C   UNL d   1      58.647  49.031  52.672  0.00  0.00     0.030 A 
ATOM     10  C   UNL d   1      61.432  48.552  51.901  0.00  0.00     0.084 A 
ATOM     11  O   UNL d   1      60.308  48.518  53.103  0.00  0.00    -0.266 OA
ATOM     12  C   UNL d   1      61.007  49.041  50.392  0.00  0.00     0.038 A 
ATOM     13  C   UNL d   1      61.997  48.569  51.298  0.00  0.00     0.019 A 
ATOM     14  C   UNL d   1      61.783  48.815  50.539  0.00  0.00     0.005 A 
ENDROOT
BRANCH   5  15
ATOM     15  C   UNL d   1      57.244  49.425  52.460  0.00  0.00     0.281 C 
ATOM     16  N   UNL d   1      57.071  49.417  53.265  0.00  0.00    -0.268 N 
ATOM     17  C   UNL d   1      57.672  49.287  53.812  0.00  0.00     0.102 A 
ATOM     18  C   UNL d   1      56.294  49.540  53.524  0.00  0.00     0.102 A 
ATOM     19  C   UNL d   1      57.501  49.278  54.621  0.00  0.00     0.100 A 
ATOM     20  N   UNL d   1      56.723  49.401  54.880  0.00  0.00    -0.300 N 
ATOM     21  C   UNL d   1      56.120  49.532  54.329  0.00  0.00     0.100 A 
ATOM     22  O   UNL d   1      56.643  49.555  51.913  0.00  0.00    -0.265 OA
BRANCH  20  23
ATOM     23  C   UNL d   1      56.545  49.393  55.696  0.00  0.00     0.080 C 
ATOM     24  C   UNL d   1      56.688  48.714  56.149  0.00  0.00     0.021 C 
ENDBRANCH  20  23
ENDBRANCH   5  15
BRANCH   3  25
ATOM     25  C   UNL d   1      57.862  49.700  50.797  0.00  0.00     0.082 C 
BRANCH  25  26
ATOM     26  C   UNL d   1      57.365  49.190  50.392  0.00  0.00     0.018 A 
ATOM     27  C   UNL d   1      56.647  49.462  50.088  0.00  0.00     0.002 A 
ATOM     28  C   UNL d   1      56.145  48.952  49.681  0.00  0.00     0.000 A 
ATOM     29  C   UNL d   1      56.359  48.169  49.575  0.00  0.00     0.000 A 
ATOM     30  C   UNL d   1      57.077  47.893  49.877  0.00  0.00     0.000 A 
ATOM     31  C   UNL d   1      57.579  48.403  50.285  0.00  0.00     0.002 A 
ENDBRANCH  25  26
ENDBRANCH   3  25
TORSDOF 4
ENDMDL
