MODEL 1
REMARK VINA RESULT:      -1.5      0.000      0.000
REMARK  7 active torsions:
REMARK  status: ('A' for Active; 'I' for Inactive)
REMARK       I    between atoms: C_3  and  N_1 
REMARK    1  A    between atoms: C_4  and  N_2 
REMARK    2  A    between atoms: C_15  and  C_3 
REMARK    3  A    between atoms: C_12  and  C_4 
REMARK    4  A    between atoms: C_13  and  C_4 
REMARK    5  A    between atoms: C_5  and  C_17 
REMARK    6  A    between atoms: C_16  and  C_15 
REMARK    7  A    between atoms: C_17  and  C_16 
ROOT
ATOM      1  N   UNL d   1      57.360   0.109  31.121  0.00  0.00    -0.269 N 
ATOM      2  N   UNL d   1      58.577  -0.466  30.137  0.00  0.00    -0.301 N 
ATOM      3  C   UNL d   1      56.762   0.391  31.615  0.00  0.00     0.265 C 
ATOM      4  C   UNL d   1      58.064  -0.189  31.456  0.00  0.00     0.102 A 
ATOM      5  C   UNL d   1      57.273   0.116  30.292  0.00  0.00     0.102 A 
ATOM      6  C   UNL d   1      57.881  -0.171  29.804  0.00  0.00     0.100 A 
ATOM      7  C   UNL d   1      58.681  -0.480  30.961  0.00  0.00     0.100 A 
ATOM      8  O   UNL d   1      56.075   0.682  31.275  0.00  0.00    -0.267 OA
ENDROOT
BRANCH   2   9
ATOM      9  C   UNL d   1      59.181  -0.751  29.653  0.00  0.00     0.064 C 
BRANCH   9  10
ATOM     10  C   UNL d   1      59.137  -1.520  29.332  0.00  0.00     0.016 A 
ATOM     11  C   UNL d   1      58.530  -1.707  28.806  0.00  0.00     0.001 A 
ATOM     12  C   UNL d   1      58.497  -2.466  28.497  0.00  0.00     0.000 A 
ATOM     13  C   UNL d   1      59.057  -3.036  28.704  0.00  0.00     0.000 A 
ATOM     14  C   UNL d   1      59.659  -2.838  29.231  0.00  0.00     0.000 A 
ATOM     15  C   UNL d   1      59.705  -2.075  29.551  0.00  0.00     0.001 A 
ENDBRANCH   9  10
BRANCH   9  16
ATOM     16  C   UNL d   1      59.831  -0.274  29.484  0.00  0.00     0.016 A 
ATOM     17  C   UNL d   1      60.459  -0.237  30.008  0.00  0.00     0.001 A 
ATOM     18  C   UNL d   1      61.114   0.238  29.846  0.00  0.00     0.000 A 
ATOM     19  C   UNL d   1      61.131   0.681  29.143  0.00  0.00     0.000 A 
ATOM     20  C   UNL d   1      60.493   0.643  28.613  0.00  0.00     0.000 A 
ATOM     21  C   UNL d   1      59.848   0.166  28.787  0.00  0.00     0.001 A 
ENDBRANCH   9  16
ENDBRANCH   2   9
BRANCH   3  22
ATOM     22  C   UNL d   1      56.856   0.381  32.425  0.00  0.00     0.061 C 
BRANCH  22  23
ATOM     23  C   UNL d   1      56.221   0.564  32.909  0.00  0.00     0.011 C 
BRANCH  23  24
ATOM     24  C   UNL d   1      55.913  -0.002  33.413  0.00  0.00     0.070 C 
BRANCH  24  25
ATOM     25  C   UNL d   1      55.421   0.221  34.029  0.00  0.00     0.211 C 
ATOM     26  O   UNL d   1      54.630   0.035  34.009  0.00  0.00    -0.644 OA
ATOM     27  O   UNL d   1      55.735   0.636  34.673  0.00  0.00    -0.644 OA
ENDBRANCH  24  25
ENDBRANCH  23  24
ENDBRANCH  22  23
ENDBRANCH   3  22
TORSDOF 7
ENDMDL
