MODEL 1
REMARK VINA RESULT:       3.8      0.000      0.000
REMARK  4 active torsions:
REMARK  status: ('A' for Active; 'I' for Inactive)
REMARK    1  A    between atoms: C_9  and  N_2 
REMARK    2  A    between atoms: C_6  and  C_3 
REMARK    3  A    between atoms: C_8  and  C_4 
REMARK    4  A    between atoms: O_18  and  C_15 
ROOT
ATOM      1  N   UNL d   1     -42.313-122.723 -51.801  0.00  0.00    -0.165 NA
ATOM      2  N   UNL d   1     -42.463-122.860 -50.973  0.00  0.00    -0.230 N 
ATOM      3  C   UNL d   1     -41.501-122.651 -51.908  0.00  0.00     0.109 A 
ATOM      4  C   UNL d   1     -41.705-122.865 -50.605  0.00  0.00     0.084 A 
ATOM      5  C   UNL d   1     -41.125-122.738 -51.176  0.00  0.00     0.041 A 
ENDROOT
BRANCH   4   6
ATOM      6  C   UNL d   1     -41.558-122.978 -49.805  0.00  0.00     0.018 A 
ATOM      7  C   UNL d   1     -41.626-122.320 -49.312  0.00  0.00     0.004 A 
ATOM      8  C   UNL d   1     -41.485-122.407 -48.513  0.00  0.00     0.024 A 
ATOM      9  C   UNL d   1     -41.277-123.136 -48.205  0.00  0.00     0.094 A 
ATOM     10  C   UNL d   1     -41.208-123.794 -48.697  0.00  0.00     0.024 A 
ATOM     11  C   UNL d   1     -41.351-123.708 -49.503  0.00  0.00     0.004 A 
BRANCH   9  12
ATOM     12  O   UNL d   1     -41.123-123.255 -47.372  0.00  0.00    -0.328 OA
ATOM     13  C   UNL d   1     -41.780-123.236 -46.819  0.00  0.00     0.181 C 
ENDBRANCH   9  12
ENDBRANCH   4   6
BRANCH   2  14
ATOM     14  C   UNL d   1     -43.145-122.974 -50.531  0.00  0.00     0.083 A 
ATOM     15  C   UNL d   1     -43.300-123.691 -50.128  0.00  0.00     0.019 A 
ATOM     16  C   UNL d   1     -44.000-123.779 -49.688  0.00  0.00     0.002 A 
ATOM     17  C   UNL d   1     -44.539-123.178 -49.641  0.00  0.00     0.000 A 
ATOM     18  C   UNL d   1     -44.387-122.463 -50.042  0.00  0.00     0.002 A 
ATOM     19  C   UNL d   1     -43.688-122.361 -50.488  0.00  0.00     0.019 A 
ENDBRANCH   2  14
BRANCH   3  20
ATOM     20  C   UNL d   1     -41.469-122.522 -52.728  0.00  0.00     0.049 A 
ATOM     21  S   UNL d   1     -41.525-122.873 -53.467  0.00  0.00    -0.085 SA
ATOM     22  C   UNL d   1     -41.412-122.292 -54.033  0.00  0.00     0.035 A 
ATOM     23  C   UNL d   1     -41.288-121.590 -53.660  0.00  0.00     0.007 A 
ATOM     24  C   UNL d   1     -41.317-121.701 -52.848  0.00  0.00     0.009 A 
ENDBRANCH   3  20
TORSDOF 4
ENDMDL
MODEL 2
REMARK VINA RESULT:       5.7      0.843      1.236
REMARK  4 active torsions:
REMARK  status: ('A' for Active; 'I' for Inactive)
REMARK    1  A    between atoms: C_9  and  N_2 
REMARK    2  A    between atoms: C_6  and  C_3 
REMARK    3  A    between atoms: C_8  and  C_4 
REMARK    4  A    between atoms: O_18  and  C_15 
ROOT
ATOM      1  N   UNL d   1     -42.235-122.507 -52.364  0.00  0.00    -0.165 NA
ATOM      2  N   UNL d   1     -42.403-122.485 -51.530  0.00  0.00    -0.230 N 
ATOM      3  C   UNL d   1     -41.544-122.938 -52.478  0.00  0.00     0.109 A 
ATOM      4  C   UNL d   1     -41.783-122.920 -51.163  0.00  0.00     0.084 A 
ATOM      5  C   UNL d   1     -41.263-123.193 -51.742  0.00  0.00     0.041 A 
ENDROOT
BRANCH   4   6
ATOM      6  C   UNL d   1     -41.699-123.058 -50.357  0.00  0.00     0.018 A 
ATOM      7  C   UNL d   1     -42.153-123.662 -50.028  0.00  0.00     0.004 A 
ATOM      8  C   UNL d   1     -42.088-123.817 -49.230  0.00  0.00     0.024 A 
ATOM      9  C   UNL d   1     -41.578-123.380 -48.762  0.00  0.00     0.094 A 
ATOM     10  C   UNL d   1     -41.123-122.776 -49.091  0.00  0.00     0.024 A 
ATOM     11  C   UNL d   1     -41.188-122.618 -49.896  0.00  0.00     0.004 A 
BRANCH   9  12
ATOM     12  O   UNL d   1     -41.489-123.522 -47.924  0.00  0.00    -0.328 OA
ATOM     13  C   UNL d   1     -41.423-122.850 -47.392  0.00  0.00     0.181 C 
ENDBRANCH   9  12
ENDBRANCH   4   6
BRANCH   2  14
ATOM     14  C   UNL d   1     -43.001-122.148 -51.080  0.00  0.00     0.083 A 
ATOM     15  C   UNL d   1     -43.682-122.577 -50.850  0.00  0.00     0.019 A 
ATOM     16  C   UNL d   1     -44.272-122.210 -50.395  0.00  0.00     0.002 A 
ATOM     17  C   UNL d   1     -44.201-121.437 -50.167  0.00  0.00     0.000 A 
ATOM     18  C   UNL d   1     -43.524-121.008 -50.395  0.00  0.00     0.002 A 
ATOM     19  C   UNL d   1     -42.923-121.364 -50.852  0.00  0.00     0.019 A 
ENDBRANCH   2  14
BRANCH   3  20
ATOM     20  C   UNL d   1     -41.475-122.896 -53.304  0.00  0.00     0.049 A 
ATOM     21  S   UNL d   1     -41.546-122.413 -53.963  0.00  0.00    -0.085 SA
ATOM     22  C   UNL d   1     -41.357-122.856 -54.625  0.00  0.00     0.035 A 
ATOM     23  C   UNL d   1     -41.170-123.603 -54.391  0.00  0.00     0.007 A 
ATOM     24  C   UNL d   1     -41.234-123.659 -53.574  0.00  0.00     0.009 A 
ENDBRANCH   3  20
TORSDOF 4
ENDMDL
MODEL 3
REMARK VINA RESULT:       6.2      1.309      2.350
REMARK  4 active torsions:
REMARK  status: ('A' for Active; 'I' for Inactive)
REMARK    1  A    between atoms: C_9  and  N_2 
REMARK    2  A    between atoms: C_6  and  C_3 
REMARK    3  A    between atoms: C_8  and  C_4 
REMARK    4  A    between atoms: O_18  and  C_15 
ROOT
ATOM      1  N   UNL d   1     -41.440-122.267 -52.992  0.00  0.00    -0.165 NA
ATOM      2  N   UNL d   1     -41.538-122.208 -52.148  0.00  0.00    -0.230 N 
ATOM      3  C   UNL d   1     -41.677-123.019 -53.228  0.00  0.00     0.109 A 
ATOM      4  C   UNL d   1     -41.840-122.955 -51.903  0.00  0.00     0.084 A 
ATOM      5  C   UNL d   1     -41.923-123.444 -52.562  0.00  0.00     0.041 A 
ENDROOT
BRANCH   4   6
ATOM      6  C   UNL d   1     -42.026-123.173 -51.133  0.00  0.00     0.018 A 
ATOM      7  C   UNL d   1     -42.785-122.993 -50.863  0.00  0.00     0.004 A 
ATOM      8  C   UNL d   1     -42.994-123.199 -50.102  0.00  0.00     0.024 A 
ATOM      9  C   UNL d   1     -42.459-123.578 -49.612  0.00  0.00     0.094 A 
ATOM     10  C   UNL d   1     -41.700-123.758 -49.882  0.00  0.00     0.024 A 
ATOM     11  C   UNL d   1     -41.488-123.551 -50.649  0.00  0.00     0.004 A 
BRANCH   9  12
ATOM     12  O   UNL d   1     -42.651-123.805 -48.811  0.00  0.00    -0.328 OA
ATOM     13  C   UNL d   1     -42.790-123.192 -48.225  0.00  0.00     0.181 C 
ENDBRANCH   9  12
ENDBRANCH   4   6
BRANCH   2  14
ATOM     14  C   UNL d   1     -41.400-121.612 -51.601  0.00  0.00     0.083 A 
ATOM     15  C   UNL d   1     -41.303-121.769 -50.785  0.00  0.00     0.019 A 
ATOM     16  C   UNL d   1     -41.166-121.144 -50.254  0.00  0.00     0.002 A 
ATOM     17  C   UNL d   1     -41.123-120.380 -50.513  0.00  0.00     0.000 A 
ATOM     18  C   UNL d   1     -41.219-120.221 -51.326  0.00  0.00     0.002 A 
ATOM     19  C   UNL d   1     -41.358-120.838 -51.871  0.00  0.00     0.019 A 
ENDBRANCH   2  14
BRANCH   3  20
ATOM     20  C   UNL d   1     -41.544-122.968 -54.046  0.00  0.00     0.049 A 
ATOM     21  S   UNL d   1     -41.485-122.463 -54.689  0.00  0.00    -0.085 SA
ATOM     22  C   UNL d   1     -41.328-122.915 -55.354  0.00  0.00     0.035 A 
ATOM     23  C   UNL d   1     -41.290-123.688 -55.137  0.00  0.00     0.007 A 
ATOM     24  C   UNL d   1     -41.419-123.754 -54.329  0.00  0.00     0.009 A 
ENDBRANCH   3  20
TORSDOF 4
ENDMDL
MODEL 4
REMARK VINA RESULT:       6.6      2.184      4.419
REMARK  4 active torsions:
REMARK  status: ('A' for Active; 'I' for Inactive)
REMARK    1  A    between atoms: C_9  and  N_2 
REMARK    2  A    between atoms: C_6  and  C_3 
REMARK    3  A    between atoms: C_8  and  C_4 
REMARK    4  A    between atoms: O_18  and  C_15 
ROOT
ATOM      1  N   UNL d   1     -42.084-122.672 -50.370  0.00  0.00    -0.165 NA
ATOM      2  N   UNL d   1     -41.966-122.450 -51.184  0.00  0.00    -0.230 N 
ATOM      3  C   UNL d   1     -42.166-123.489 -50.333  0.00  0.00     0.109 A 
ATOM      4  C   UNL d   1     -41.982-123.172 -51.618  0.00  0.00     0.084 A 
ATOM      5  C   UNL d   1     -42.104-123.800 -51.097  0.00  0.00     0.041 A 
ENDROOT
BRANCH   4   6
ATOM      6  C   UNL d   1     -41.892-123.249 -52.431  0.00  0.00     0.018 A 
ATOM      7  C   UNL d   1     -42.530-123.025 -52.904  0.00  0.00     0.004 A 
ATOM      8  C   UNL d   1     -42.465-123.092 -53.714  0.00  0.00     0.024 A 
ATOM      9  C   UNL d   1     -41.777-123.378 -54.054  0.00  0.00     0.094 A 
ATOM     10  C   UNL d   1     -41.139-123.603 -53.581  0.00  0.00     0.024 A 
ATOM     11  C   UNL d   1     -41.203-123.535 -52.764  0.00  0.00     0.004 A 
BRANCH   9  12
ATOM     12  O   UNL d   1     -41.682-123.459 -54.900  0.00  0.00    -0.328 OA
ATOM     13  C   UNL d   1     -41.547-122.755 -55.374  0.00  0.00     0.181 C 
ENDBRANCH   9  12
ENDBRANCH   4   6
BRANCH   2  14
ATOM     14  C   UNL d   1     -41.852-121.734 -51.566  0.00  0.00     0.083 A 
ATOM     15  C   UNL d   1     -42.308-121.504 -52.228  0.00  0.00     0.019 A 
ATOM     16  C   UNL d   1     -42.171-120.771 -52.596  0.00  0.00     0.002 A 
ATOM     17  C   UNL d   1     -41.598-120.270 -52.322  0.00  0.00     0.000 A 
ATOM     18  C   UNL d   1     -41.142-120.497 -51.663  0.00  0.00     0.002 A 
ATOM     19  C   UNL d   1     -41.269-121.230 -51.283  0.00  0.00     0.019 A 
ENDBRANCH   2  14
BRANCH   3  20
ATOM     20  C   UNL d   1     -42.274-123.593 -49.516  0.00  0.00     0.049 A 
ATOM     21  S   UNL d   1     -41.901-123.625 -48.786  0.00  0.00    -0.085 SA
ATOM     22  C   UNL d   1     -42.472-123.762 -48.215  0.00  0.00     0.035 A 
ATOM     23  C   UNL d   1     -43.189-123.817 -48.576  0.00  0.00     0.007 A 
ATOM     24  C   UNL d   1     -43.099-123.716 -49.385  0.00  0.00     0.009 A 
ENDBRANCH   3  20
TORSDOF 4
ENDMDL
