MODEL 1
REMARK VINA RESULT:      21.9      0.000      0.000
REMARK  4 active torsions:
REMARK  status: ('A' for Active; 'I' for Inactive)
REMARK    1  A    between atoms: N_2  and  C_1 
REMARK       I    between atoms: C_3  and  N_2 
REMARK    2  A    between atoms: C_6  and  C_3 
REMARK    3  A    between atoms: C_11  and  C_7 
REMARK    4  A    between atoms: C_10  and  C_11 
ROOT
ATOM      1  C   UNL d   1      13.515  12.065  -1.907  0.00  0.00     0.197 A 
ATOM      2  N   UNL d   1      12.982  11.782  -1.371  0.00  0.00    -0.219 NA
ATOM      3  S   UNL d   1      14.117  12.465  -1.491  0.00  0.00    -0.047 SA
ATOM      4  C   UNL d   1      13.932  12.415  -0.691  0.00  0.00     0.051 A 
ATOM      5  C   UNL d   1      13.234  11.997  -0.600  0.00  0.00     0.108 A 
ENDROOT
BRANCH   1   6
ATOM      6  N   UNL d   1      13.465  11.969  -2.736  0.00  0.00    -0.182 NA
ATOM      7  C   UNL d   1      13.408  12.617  -3.233  0.00  0.00     0.287 C 
ATOM      8  O   UNL d   1      13.401  13.361  -2.906  0.00  0.00    -0.265 OA
BRANCH   7   9
ATOM      9  C   UNL d   1      13.360  12.521  -4.033  0.00  0.00     0.087 A 
ATOM     10  S   UNL d   1      13.420  11.786  -4.358  0.00  0.00    -0.082 SA
ATOM     11  C   UNL d   1      13.349  11.873  -5.186  0.00  0.00     0.036 A 
ATOM     12  C   UNL d   1      13.250  12.629  -5.354  0.00  0.00     0.008 A 
ATOM     13  C   UNL d   1      13.252  13.066  -4.645  0.00  0.00     0.012 A 
ENDBRANCH   7   9
ENDBRANCH   1   6
BRANCH   4  14
ATOM     14  C   UNL d   1      14.296  12.690  -0.018  0.00  0.00     0.009 C 
BRANCH  14  15
ATOM     15  C   UNL d   1      14.760  13.388  -0.055  0.00  0.00     0.011 A 
ATOM     16  C   UNL d   1      15.576  13.333  -0.130  0.00  0.00     0.058 A 
ATOM     17 CL   UNL d   1      15.951  12.591  -0.171  0.00  0.00    -0.082 Cl
ATOM     18  C   UNL d   1      16.043  14.033  -0.167  0.00  0.00     0.011 A 
ATOM     19  C   UNL d   1      15.697  14.761  -0.129  0.00  0.00     0.001 A 
ATOM     20  C   UNL d   1      14.875  14.835  -0.053  0.00  0.00     0.000 A 
ATOM     21  C   UNL d   1      14.410  14.136  -0.017  0.00  0.00     0.001 A 
ENDBRANCH  14  15
ENDBRANCH   4  14
TORSDOF 4
ENDMDL
