MODEL 1
REMARK VINA RESULT:      -1.3      0.000      0.000
REMARK  7 active torsions:
REMARK  status: ('A' for Active; 'I' for Inactive)
REMARK    1  A    between atoms: C_7  and  C_1 
REMARK    2  A    between atoms: C_11  and  N_2 
REMARK    3  A    between atoms: C_10  and  C_5 
REMARK    4  A    between atoms: C_6  and  C_7 
REMARK    5  A    between atoms: C_18  and  C_11 
REMARK    6  A    between atoms: O_20  and  C_15 
REMARK    7  A    between atoms: N_19  and  C_18 
ROOT
ATOM      1  C   UNL d   1      58.373  -0.778  30.139  0.00  0.00     0.101 A 
ATOM      2  N   UNL d   1      59.277  -1.663  29.713  0.00  0.00    -0.269 N 
ATOM      3  C   UNL d   1      57.969  -1.448  29.867  0.00  0.00     0.256 A 
ATOM      4  C   UNL d   1      58.525  -1.993  29.604  0.00  0.00     0.304 A 
ATOM      5  C   UNL d   1      59.179  -0.918  30.041  0.00  0.00     0.075 A 
ATOM      6  O   UNL d   1      58.358  -2.741  29.287  0.00  0.00    -0.263 OA
ATOM      7  O   UNL d   1      57.144  -1.553  29.859  0.00  0.00    -0.281 OA
ENDROOT
BRANCH   1   8
ATOM      8  C   UNL d   1      58.025  -0.098  30.451  0.00  0.00     0.223 C 
ATOM      9  O   UNL d   1      58.167   0.637  30.098  0.00  0.00    -0.284 OA
BRANCH   8  10
ATOM     10  C   UNL d   1      57.535  -0.142  31.113  0.00  0.00     0.139 A 
ATOM     11  O   UNL d   1      57.225  -0.834  31.445  0.00  0.00    -0.304 OA
ATOM     12  C   UNL d   1      56.770  -0.615  32.095  0.00  0.00     0.100 A 
ATOM     13  C   UNL d   1      56.333  -1.065  32.632  0.00  0.00     0.025 A 
ATOM     14  C   UNL d   1      56.795   0.200  32.167  0.00  0.00     0.025 A 
ATOM     15  C   UNL d   1      55.925  -0.693  33.237  0.00  0.00     0.002 A 
ATOM     16  C   UNL d   1      55.953   0.128  33.304  0.00  0.00     0.000 A 
ATOM     17  C   UNL d   1      56.385   0.574  32.774  0.00  0.00     0.002 A 
ATOM     18  C   UNL d   1      57.270   0.491  31.556  0.00  0.00     0.030 A 
ENDBRANCH   8  10
ENDBRANCH   1   8
BRANCH   5  19
ATOM     19  C   UNL d   1      59.787  -0.382  30.246  0.00  0.00     0.039 A 
ATOM     20  C   UNL d   1      60.143   0.080  29.658  0.00  0.00     0.096 A 
ATOM     21  C   UNL d   1      60.741   0.608  29.856  0.00  0.00     0.024 A 
ATOM     22  C   UNL d   1      60.994   0.681  30.653  0.00  0.00     0.002 A 
ATOM     23  C   UNL d   1      60.632   0.213  31.240  0.00  0.00     0.000 A 
ATOM     24  C   UNL d   1      60.031  -0.315  31.032  0.00  0.00     0.003 A 
BRANCH  20  25
ATOM     25  O   UNL d   1      59.893   0.006  28.875  0.00  0.00    -0.328 OA
ATOM     26  C   UNL d   1      59.657   0.680  28.455  0.00  0.00     0.181 C 
ENDBRANCH  20  25
ENDBRANCH   5  19
BRANCH   2  27
ATOM     27  C   UNL d   1      59.997  -2.029  29.521  0.00  0.00     0.102 C 
BRANCH  27  28
ATOM     28  C   UNL d   1      60.079  -2.845  29.589  0.00  0.00     0.100 C 
BRANCH  28  29
ATOM     29  N   UNL d   1      60.778  -3.215  29.331  0.00  0.00    -0.299 N 
ATOM     30  C   UNL d   1      61.132  -3.791  29.804  0.00  0.00     0.100 C 
ATOM     31  C   UNL d   1      61.108  -3.004  28.609  0.00  0.00     0.100 C 
ENDBRANCH  28  29
ENDBRANCH  27  28
ENDBRANCH   2  27
TORSDOF 7
ENDMDL
