MODEL 1
REMARK VINA RESULT:     -10.5      0.000      0.000
REMARK  4 active torsions:
REMARK  status: ('A' for Active; 'I' for Inactive)
REMARK    1  A    between atoms: N_3  and  S_1 
REMARK    2  A    between atoms: C_4  and  S_1 
REMARK    3  A    between atoms: C_2  and  N_3 
REMARK    4  A    between atoms: O_18  and  C_13 
ROOT
ATOM      1  S   UNL d   1      51.492  34.131  53.216  0.00  0.00     0.285 S 
ATOM      2  O   UNL d   1      50.963  33.627  53.670  0.00  0.00    -0.198 OA
ATOM      3  O   UNL d   1      52.006  34.630  52.761  0.00  0.00    -0.198 OA
ENDROOT
BRANCH   1   4
ATOM      4  N   UNL d   1      52.088  34.024  53.782  0.00  0.00    -0.157 NA
BRANCH   4   5
ATOM      5  C   UNL d   1      52.627  33.373  53.704  0.00  0.00     0.113 A 
ATOM      6  C   UNL d   1      53.334  33.388  54.126  0.00  0.00     0.100 A 
ATOM      7  C   UNL d   1      53.858  32.755  54.051  0.00  0.00     0.021 A 
ATOM      8  N   UNL d   1      53.530  34.011  54.616  0.00  0.00    -0.242 NA
ATOM      9  C   UNL d   1      54.566  32.758  54.467  0.00  0.00     0.003 A 
ATOM     10  C   UNL d   1      53.664  32.120  53.555  0.00  0.00     0.026 A 
ATOM     11  C   UNL d   1      54.757  33.390  54.959  0.00  0.00     0.021 A 
ATOM     12  C   UNL d   1      54.233  34.023  55.035  0.00  0.00     0.099 A 
ATOM     13  C   UNL d   1      52.952  32.114  53.136  0.00  0.00     0.096 A 
ATOM     14  C   UNL d   1      52.429  32.747  53.211  0.00  0.00     0.046 A 
BRANCH  13  15
ATOM     15  O   UNL d   1      52.734  31.490  52.632  0.00  0.00    -0.328 OA
ATOM     16  C   UNL d   1      52.777  30.702  52.900  0.00  0.00     0.181 C 
ENDBRANCH  13  15
ENDBRANCH   4   5
ENDBRANCH   1   4
BRANCH   1  17
ATOM     17  C   UNL d   1      50.885  34.247  52.629  0.00  0.00     0.105 A 
ATOM     18  C   UNL d   1      50.145  34.526  52.848  0.00  0.00     0.013 A 
ATOM     19  C   UNL d   1      49.562  34.637  52.275  0.00  0.00     0.001 A 
ATOM     20  C   UNL d   1      48.826  34.914  52.493  0.00  0.00     0.000 A 
ATOM     21  C   UNL d   1      49.718  34.468  51.480  0.00  0.00     0.000 A 
ATOM     22  C   UNL d   1      48.247  35.023  51.915  0.00  0.00     0.000 A 
ATOM     23  C   UNL d   1      48.400  34.856  51.126  0.00  0.00     0.000 A 
ATOM     24  C   UNL d   1      49.136  34.579  50.908  0.00  0.00     0.000 A 
ATOM     25  C   UNL d   1      50.481  34.181  51.254  0.00  0.00     0.001 A 
ATOM     26  C   UNL d   1      51.060  34.072  51.832  0.00  0.00     0.013 A 
ENDBRANCH   1  17
TORSDOF 4
ENDMDL
MODEL 2
REMARK VINA RESULT:      -9.5      0.986      2.067
REMARK  4 active torsions:
REMARK  status: ('A' for Active; 'I' for Inactive)
REMARK    1  A    between atoms: N_3  and  S_1 
REMARK    2  A    between atoms: C_4  and  S_1 
REMARK    3  A    between atoms: C_2  and  N_3 
REMARK    4  A    between atoms: O_18  and  C_13 
ROOT
ATOM      1  S   UNL d   1      51.259  33.834  52.657  0.00  0.00     0.285 S 
ATOM      2  O   UNL d   1      51.600  34.258  51.992  0.00  0.00    -0.198 OA
ATOM      3  O   UNL d   1      50.913  33.418  53.312  0.00  0.00    -0.198 OA
ENDROOT
BRANCH   1   4
ATOM      4  N   UNL d   1      51.987  33.464  52.801  0.00  0.00    -0.157 NA
BRANCH   4   5
ATOM      5  C   UNL d   1      52.530  33.809  53.355  0.00  0.00     0.113 A 
ATOM      6  C   UNL d   1      53.074  33.322  53.737  0.00  0.00     0.100 A 
ATOM      7  C   UNL d   1      53.602  33.657  54.275  0.00  0.00     0.021 A 
ATOM      8  N   UNL d   1      53.104  32.518  53.597  0.00  0.00    -0.242 NA
ATOM      9  C   UNL d   1      54.148  33.182  54.662  0.00  0.00     0.003 A 
ATOM     10  C   UNL d   1      53.575  34.473  54.420  0.00  0.00     0.026 A 
ATOM     11  C   UNL d   1      54.173  32.372  54.516  0.00  0.00     0.021 A 
ATOM     12  C   UNL d   1      53.645  32.036  53.978  0.00  0.00     0.099 A 
ATOM     13  C   UNL d   1      53.026  34.952  54.033  0.00  0.00     0.096 A 
ATOM     14  C   UNL d   1      52.498  34.617  53.494  0.00  0.00     0.046 A 
BRANCH  13  15
ATOM     15  O   UNL d   1      52.979  35.772  54.161  0.00  0.00    -0.328 OA
ATOM     16  C   UNL d   1      52.875  36.069  54.932  0.00  0.00     0.181 C 
ENDBRANCH  13  15
ENDBRANCH   4   5
ENDBRANCH   1   4
BRANCH   1  17
ATOM     17  C   UNL d   1      50.507  34.209  52.518  0.00  0.00     0.105 A 
ATOM     18  C   UNL d   1      50.149  34.157  51.781  0.00  0.00     0.013 A 
ATOM     19  C   UNL d   1      49.421  34.522  51.652  0.00  0.00     0.001 A 
ATOM     20  C   UNL d   1      49.065  34.472  50.919  0.00  0.00     0.000 A 
ATOM     21  C   UNL d   1      49.048  34.940  52.261  0.00  0.00     0.000 A 
ATOM     22  C   UNL d   1      48.337  34.839  50.796  0.00  0.00     0.000 A 
ATOM     23  C   UNL d   1      47.965  35.254  51.399  0.00  0.00     0.000 A 
ATOM     24  C   UNL d   1      48.321  35.305  52.132  0.00  0.00     0.000 A 
ATOM     25  C   UNL d   1      49.416  34.993  53.020  0.00  0.00     0.001 A 
ATOM     26  C   UNL d   1      50.145  34.626  53.143  0.00  0.00     0.013 A 
ENDBRANCH   1  17
TORSDOF 4
ENDMDL
MODEL 3
REMARK VINA RESULT:      -9.3      2.108      4.703
REMARK  4 active torsions:
REMARK  status: ('A' for Active; 'I' for Inactive)
REMARK    1  A    between atoms: N_3  and  S_1 
REMARK    2  A    between atoms: C_4  and  S_1 
REMARK    3  A    between atoms: C_2  and  N_3 
REMARK    4  A    between atoms: O_18  and  C_13 
ROOT
ATOM      1  S   UNL d   1      53.177  31.802  53.215  0.00  0.00     0.285 S 
ATOM      2  O   UNL d   1      53.999  31.759  52.966  0.00  0.00    -0.198 OA
ATOM      3  O   UNL d   1      52.365  31.835  53.462  0.00  0.00    -0.198 OA
ENDROOT
BRANCH   1   4
ATOM      4  N   UNL d   1      53.155  32.608  53.022  0.00  0.00    -0.157 NA
BRANCH   4   5
ATOM      5  C   UNL d   1      53.354  33.186  53.611  0.00  0.00     0.113 A 
ATOM      6  C   UNL d   1      52.942  33.899  53.626  0.00  0.00     0.100 A 
ATOM      7  C   UNL d   1      53.135  34.460  54.199  0.00  0.00     0.021 A 
ATOM      8  N   UNL d   1      52.349  34.064  53.090  0.00  0.00    -0.242 NA
ATOM      9  C   UNL d   1      52.732  35.175  54.224  0.00  0.00     0.003 A 
ATOM     10  C   UNL d   1      53.737  34.297  54.745  0.00  0.00     0.026 A 
ATOM     11  C   UNL d   1      52.134  35.335  53.679  0.00  0.00     0.021 A 
ATOM     12  C   UNL d   1      51.941  34.774  53.106  0.00  0.00     0.099 A 
ATOM     13  C   UNL d   1      54.144  33.579  54.722  0.00  0.00     0.096 A 
ATOM     14  C   UNL d   1      53.950  33.018  54.149  0.00  0.00     0.046 A 
BRANCH  13  15
ATOM     15  O   UNL d   1      54.750  33.391  55.259  0.00  0.00    -0.328 OA
ATOM     16  C   UNL d   1      55.460  33.826  55.256  0.00  0.00     0.181 C 
ENDBRANCH  13  15
ENDBRANCH   4   5
ENDBRANCH   1   4
BRANCH   1  17
ATOM     17  C   UNL d   1      53.189  30.974  53.417  0.00  0.00     0.105 A 
ATOM     18  C   UNL d   1      53.287  30.740  54.197  0.00  0.00     0.013 A 
ATOM     19  C   UNL d   1      53.297  29.937  54.386  0.00  0.00     0.001 A 
ATOM     20  C   UNL d   1      53.395  29.704  55.162  0.00  0.00     0.000 A 
ATOM     21  C   UNL d   1      53.210  29.366  53.794  0.00  0.00     0.000 A 
ATOM     22  C   UNL d   1      53.405  28.899  55.344  0.00  0.00     0.000 A 
ATOM     23  C   UNL d   1      53.318  28.331  54.759  0.00  0.00     0.000 A 
ATOM     24  C   UNL d   1      53.220  28.564  53.983  0.00  0.00     0.000 A 
ATOM     25  C   UNL d   1      53.108  29.607  52.989  0.00  0.00     0.001 A 
ATOM     26  C   UNL d   1      53.099  30.412  52.807  0.00  0.00     0.013 A 
ENDBRANCH   1  17
TORSDOF 4
ENDMDL
MODEL 4
REMARK VINA RESULT:      -9.2      1.552      4.421
REMARK  4 active torsions:
REMARK  status: ('A' for Active; 'I' for Inactive)
REMARK    1  A    between atoms: N_3  and  S_1 
REMARK    2  A    between atoms: C_4  and  S_1 
REMARK    3  A    between atoms: C_2  and  N_3 
REMARK    4  A    between atoms: O_18  and  C_13 
ROOT
ATOM      1  S   UNL d   1      53.363  32.202  53.332  0.00  0.00     0.285 S 
ATOM      2  O   UNL d   1      53.169  32.151  52.496  0.00  0.00    -0.198 OA
ATOM      3  O   UNL d   1      53.553  32.243  54.159  0.00  0.00    -0.198 OA
ENDROOT
BRANCH   1   4
ATOM      4  N   UNL d   1      53.473  33.021  53.262  0.00  0.00    -0.157 NA
BRANCH   4   5
ATOM      5  C   UNL d   1      52.816  33.544  53.385  0.00  0.00     0.113 A 
ATOM      6  C   UNL d   1      52.943  34.260  53.772  0.00  0.00     0.100 A 
ATOM      7  C   UNL d   1      52.304  34.769  53.892  0.00  0.00     0.021 A 
ATOM      8  N   UNL d   1      53.682  34.479  54.039  0.00  0.00    -0.242 NA
ATOM      9  C   UNL d   1      52.418  35.486  54.276  0.00  0.00     0.003 A 
ATOM     10  C   UNL d   1      51.551  34.550  53.622  0.00  0.00     0.026 A 
ATOM     11  C   UNL d   1      53.167  35.700  54.543  0.00  0.00     0.021 A 
ATOM     12  C   UNL d   1      53.806  35.192  54.423  0.00  0.00     0.099 A 
ATOM     13  C   UNL d   1      51.434  33.830  53.236  0.00  0.00     0.096 A 
ATOM     14  C   UNL d   1      52.073  33.322  53.116  0.00  0.00     0.046 A 
BRANCH  13  15
ATOM     15  O   UNL d   1      50.689  33.588  52.956  0.00  0.00    -0.328 OA
ATOM     16  C   UNL d   1      50.189  34.134  52.575  0.00  0.00     0.181 C 
ENDBRANCH  13  15
ENDBRANCH   4   5
ENDBRANCH   1   4
BRANCH   1  17
ATOM     17  C   UNL d   1      53.252  31.361  53.415  0.00  0.00     0.105 A 
ATOM     18  C   UNL d   1      53.422  30.989  54.126  0.00  0.00     0.013 A 
ATOM     19  C   UNL d   1      53.313  30.175  54.200  0.00  0.00     0.001 A 
ATOM     20  C   UNL d   1      53.482  29.805  54.907  0.00  0.00     0.000 A 
ATOM     21  C   UNL d   1      53.033  29.730  53.561  0.00  0.00     0.000 A 
ATOM     22  C   UNL d   1      53.371  28.990  54.974  0.00  0.00     0.000 A 
ATOM     23  C   UNL d   1      53.093  28.547  54.342  0.00  0.00     0.000 A 
ATOM     24  C   UNL d   1      52.924  28.917  53.634  0.00  0.00     0.000 A 
ATOM     25  C   UNL d   1      52.857  30.114  52.827  0.00  0.00     0.001 A 
ATOM     26  C   UNL d   1      52.969  30.929  52.760  0.00  0.00     0.013 A 
ENDBRANCH   1  17
TORSDOF 4
ENDMDL
