MODEL 1
REMARK VINA RESULT:      54.5      0.000      0.000
REMARK  5 active torsions:
REMARK  status: ('A' for Active; 'I' for Inactive)
REMARK    1  A    between atoms: C_8  and  S_1 
REMARK    2  A    between atoms: N_10  and  S_1 
REMARK    3  A    between atoms: C_6  and  C_17 
REMARK    4  A    between atoms: C_18  and  N_10 
REMARK    5  A    between atoms: O_24  and  C_19 
ROOT
ATOM      1  C   UNL d   1     -56.331 -99.416 -44.941  0.00  0.00     0.021 A 
ATOM      2  C   UNL d   1     -55.261-100.372 -44.999  0.00  0.00     0.094 A 
ATOM      3  C   UNL d   1     -56.038-100.180 -44.799  0.00  0.00     0.021 A 
ATOM      4  C   UNL d   1     -55.840 -98.852 -45.284  0.00  0.00     0.002 A 
ATOM      5  C   UNL d   1     -55.069 -99.033 -45.486  0.00  0.00     0.002 A 
ATOM      6  C   UNL d   1     -54.776 -99.797 -45.344  0.00  0.00     0.020 A 
ENDROOT
BRANCH   2   7
ATOM      7  N   UNL d   1     -54.972-101.126 -44.859  0.00  0.00    -0.158 NA
BRANCH   7   8
ATOM      8  S   UNL d   1     -54.921-101.407 -44.089  0.00  0.00     0.285 S 
ATOM      9  O   UNL d   1     -54.891-100.623 -43.822  0.00  0.00    -0.198 OA
ATOM     10  O   UNL d   1     -54.951-102.194 -44.350  0.00  0.00    -0.198 OA
BRANCH   8  11
ATOM     11  C   UNL d   1     -54.869-101.683 -43.303  0.00  0.00     0.108 A 
ATOM     12  C   UNL d   1     -54.863-101.151 -42.691  0.00  0.00     0.045 A 
ATOM     13  C   UNL d   1     -54.812-101.406 -41.911  0.00  0.00     0.163 A 
ATOM     14  F   UNL d   1     -54.806-100.871 -41.296  0.00  0.00    -0.202 F 
ATOM     15  C   UNL d   1     -54.768-102.221 -41.758  0.00  0.00     0.121 A 
ATOM     16  C   UNL d   1     -54.775-102.761 -42.380  0.00  0.00     0.027 A 
ATOM     17  C   UNL d   1     -54.826-102.499 -43.170  0.00  0.00     0.015 A 
BRANCH  15  18
ATOM     18  O   UNL d   1     -54.718-102.486 -40.997  0.00  0.00    -0.326 OA
ATOM     19  C   UNL d   1     -55.381-102.740 -40.604  0.00  0.00     0.181 C 
ENDBRANCH  15  18
ENDBRANCH   8  11
ENDBRANCH   7   8
ENDBRANCH   2   7
BRANCH   1  20
ATOM     20  C   UNL d   1     -57.109 -99.237 -44.736  0.00  0.00     0.102 A 
ATOM     21  N   UNL d   1     -57.351 -99.359 -43.949  0.00  0.00    -0.162 NA
ATOM     22  N   UNL d   1     -58.137 -99.180 -43.733  0.00  0.00    -0.189 N 
ATOM     23  C   UNL d   1     -58.527 -99.241 -43.020  0.00  0.00     0.224 A 
ATOM     24  C   UNL d   1     -58.672 -98.884 -44.298  0.00  0.00     0.187 A 
ATOM     25  N   UNL d   1     -59.292 -98.989 -43.127  0.00  0.00    -0.124 NA
ATOM     26  N   UNL d   1     -59.373 -98.772 -43.915  0.00  0.00    -0.127 NA
ATOM     27  C   UNL d   1     -58.408 -98.770 -45.083  0.00  0.00     0.042 A 
ATOM     28  C   UNL d   1     -57.626 -98.948 -45.295  0.00  0.00     0.024 A 
ENDBRANCH   1  20
TORSDOF 5
ENDMDL
