MODEL 1
REMARK VINA RESULT:     105.6      0.000      0.000
REMARK  6 active torsions:
REMARK  status: ('A' for Active; 'I' for Inactive)
REMARK       I    between atoms: C_8  and  N_1 
REMARK    1  A    between atoms: C_10  and  C_3 
REMARK    2  A    between atoms: C_4  and  S_14 
REMARK    3  A    between atoms: C_15  and  C_6 
REMARK    4  A    between atoms: C_16  and  C_8 
REMARK    5  A    between atoms: S_14  and  C_16 
REMARK    6  A    between atoms: O_26  and  C_23 
ROOT
ATOM      1  N   UNL d   1      60.719  48.711  50.957  0.00  0.00    -0.195 N 
ATOM      2  N   UNL d   1      60.637  49.100  51.656  0.00  0.00    -0.162 NA
ATOM      3  C   UNL d   1      60.928  48.612  52.263  0.00  0.00     0.109 A 
ATOM      4  C   UNL d   1      61.064  47.970  51.112  0.00  0.00     0.088 A 
ATOM      5  C   UNL d   1      61.182  47.932  51.912  0.00  0.00     0.041 A 
ATOM      6  C   UNL d   1      60.538  48.905  50.192  0.00  0.00     0.275 C 
ATOM      7  O   UNL d   1      60.690  48.376  49.565  0.00  0.00    -0.266 OA
ENDROOT
BRANCH   4   8
ATOM      8  C   UNL d   1      61.257  47.378  50.591  0.00  0.00     0.018 A 
ATOM      9  C   UNL d   1      61.975  47.401  50.189  0.00  0.00     0.004 A 
ATOM     10  C   UNL d   1      62.167  46.790  49.655  0.00  0.00     0.024 A 
ATOM     11  C   UNL d   1      61.645  46.170  49.530  0.00  0.00     0.094 A 
ATOM     12  C   UNL d   1      60.927  46.151  49.935  0.00  0.00     0.024 A 
ATOM     13  C   UNL d   1      60.727  46.755  50.469  0.00  0.00     0.004 A 
BRANCH  11  14
ATOM     14  O   UNL d   1      61.821  45.552  49.001  0.00  0.00    -0.328 OA
ATOM     15  C   UNL d   1      62.097  44.825  49.276  0.00  0.00     0.181 C 
ENDBRANCH  11  14
ENDBRANCH   4   8
BRANCH   6  16
ATOM     16  C   UNL d   1      60.191  49.646  50.020  0.00  0.00     0.128 C 
BRANCH  16  17
ATOM     17  S   UNL d   1      59.599  49.708  49.441  0.00  0.00    -0.069 SA
BRANCH  17  18
ATOM     18  C   UNL d   1      58.795  49.699  49.656  0.00  0.00     0.140 A 
ATOM     19  N   UNL d   1      58.518  49.707  50.428  0.00  0.00    -0.232 NA
ATOM     20  C   UNL d   1      57.695  49.694  50.398  0.00  0.00     0.088 A 
ATOM     21  C   UNL d   1      57.123  49.695  50.999  0.00  0.00     0.020 A 
ATOM     22  C   UNL d   1      57.465  49.679  49.614  0.00  0.00     0.049 A 
ATOM     23  C   UNL d   1      56.320  49.680  50.806  0.00  0.00     0.002 A 
ATOM     24  C   UNL d   1      56.095  49.665  50.003  0.00  0.00     0.001 A 
ATOM     25  C   UNL d   1      56.670  49.664  49.415  0.00  0.00     0.008 A 
ATOM     26  S   UNL d   1      58.149  49.682  49.143  0.00  0.00    -0.060 SA
ENDBRANCH  17  18
ENDBRANCH  16  17
ENDBRANCH   6  16
BRANCH   3  27
ATOM     27  C   UNL d   1      60.941  48.815  53.063  0.00  0.00     0.049 A 
ATOM     28  S   UNL d   1      61.107  48.426  53.759  0.00  0.00    -0.085 SA
ATOM     29  C   UNL d   1      61.011  48.966  54.374  0.00  0.00     0.035 A 
ATOM     30  C   UNL d   1      60.789  49.681  54.068  0.00  0.00     0.007 A 
ATOM     31  C   UNL d   1      60.741  49.600  53.243  0.00  0.00     0.009 A 
ENDBRANCH   3  27
TORSDOF 6
ENDMDL
