MODEL 1
REMARK VINA RESULT:       2.1      0.000      0.000
REMARK  3 active torsions:
REMARK  status: ('A' for Active; 'I' for Inactive)
REMARK    1  A    between atoms: S_6  and  C_2 
REMARK    2  A    between atoms: C_9  and  S_6 
REMARK    3  A    between atoms: C_7  and  C_9 
ROOT
ATOM      1  N   UNL d   1     -54.711-101.652 -38.262  0.00  0.00    -0.196 NA
ATOM      2  C   UNL d   1     -54.775-102.462 -38.075  0.00  0.00     0.213 A 
ATOM      3  N   UNL d   1     -54.899-102.328 -39.406  0.00  0.00    -0.123 NA
ATOM      4  N   UNL d   1     -54.891-102.876 -38.782  0.00  0.00    -0.120 NA
ATOM      5  C   UNL d   1     -54.789-101.577 -39.089  0.00  0.00     0.224 A 
ENDROOT
BRANCH   2   6
ATOM      6  S   UNL d   1     -54.731-102.788 -37.320  0.00  0.00    -0.062 SA
BRANCH   6   7
ATOM      7  C   UNL d   1     -54.848-102.311 -36.652  0.00  0.00     0.162 C 
BRANCH   7   8
ATOM      8  C   UNL d   1     -55.208-102.617 -35.975  0.00  0.00     0.197 C 
ATOM      9  O   UNL d   1     -54.736-102.868 -35.337  0.00  0.00    -0.647 OA
ATOM     10  O   UNL d   1     -56.030-102.673 -35.932  0.00  0.00    -0.647 OA
ENDBRANCH   7   8
ENDBRANCH   6   7
ENDBRANCH   2   6
TORSDOF 3
ENDMDL
MODEL 2
REMARK VINA RESULT:       3.2      1.953      2.668
REMARK  3 active torsions:
REMARK  status: ('A' for Active; 'I' for Inactive)
REMARK    1  A    between atoms: S_6  and  C_2 
REMARK    2  A    between atoms: C_9  and  S_6 
REMARK    3  A    between atoms: C_7  and  C_9 
ROOT
ATOM      1  N   UNL d   1     -54.869-101.472 -36.809  0.00  0.00    -0.196 NA
ATOM      2  C   UNL d   1     -54.965-102.290 -36.681  0.00  0.00     0.213 A 
ATOM      3  N   UNL d   1     -55.200-101.655 -35.520  0.00  0.00    -0.123 NA
ATOM      4  N   UNL d   1     -55.169-102.399 -35.887  0.00  0.00    -0.120 NA
ATOM      5  C   UNL d   1     -55.016-101.084 -36.085  0.00  0.00     0.224 A 
ENDROOT
BRANCH   2   6
ATOM      6  S   UNL d   1     -54.872-102.880 -37.248  0.00  0.00    -0.062 SA
BRANCH   6   7
ATOM      7  C   UNL d   1     -54.715-102.680 -38.037  0.00  0.00     0.162 C 
BRANCH   7   8
ATOM      8  C   UNL d   1     -55.291-102.782 -38.619  0.00  0.00     0.197 C 
ATOM      9  O   UNL d   1     -56.087-102.878 -38.397  0.00  0.00    -0.647 OA
ATOM     10  O   UNL d   1     -55.078-102.788 -39.416  0.00  0.00    -0.647 OA
ENDBRANCH   7   8
ENDBRANCH   6   7
ENDBRANCH   2   6
TORSDOF 3
ENDMDL
MODEL 3
REMARK VINA RESULT:       4.8      8.044      8.497
REMARK  3 active torsions:
REMARK  status: ('A' for Active; 'I' for Inactive)
REMARK    1  A    between atoms: S_6  and  C_2 
REMARK    2  A    between atoms: C_9  and  S_6 
REMARK    3  A    between atoms: C_7  and  C_9 
ROOT
ATOM      1  N   UNL d   1     -58.804 -98.766 -43.454  0.00  0.00    -0.196 NA
ATOM      2  C   UNL d   1     -58.255 -98.762 -44.081  0.00  0.00     0.213 A 
ATOM      3  N   UNL d   1     -59.491 -98.758 -44.608  0.00  0.00    -0.123 NA
ATOM      4  N   UNL d   1     -58.680 -98.757 -44.790  0.00  0.00    -0.120 NA
ATOM      5  C   UNL d   1     -59.568 -98.764 -43.789  0.00  0.00     0.224 A 
ENDROOT
BRANCH   2   6
ATOM      6  S   UNL d   1     -57.434 -98.763 -44.003  0.00  0.00    -0.062 SA
BRANCH   6   7
ATOM      7  C   UNL d   1     -56.951 -98.769 -44.677  0.00  0.00     0.162 C 
BRANCH   7   8
ATOM      8  C   UNL d   1     -56.207 -99.126 -44.656  0.00  0.00     0.197 C 
ATOM      9  O   UNL d   1     -56.113 -99.861 -44.277  0.00  0.00    -0.647 OA
ATOM     10  O   UNL d   1     -55.560 -98.756 -45.010  0.00  0.00    -0.647 OA
ENDBRANCH   7   8
ENDBRANCH   6   7
ENDBRANCH   2   6
TORSDOF 3
ENDMDL
