MODEL 1
REMARK VINA RESULT:     107.0      0.000      0.000
REMARK  7 active torsions:
REMARK  status: ('A' for Active; 'I' for Inactive)
REMARK    1  A    between atoms: C_10  and  C_3 
REMARK    2  A    between atoms: N_12  and  C_4 
REMARK    3  A    between atoms: O_23  and  C_11 
REMARK    4  A    between atoms: C_25  and  N_12 
REMARK    5  A    between atoms: O_26  and  C_13 
REMARK    6  A    between atoms: C_18  and  C_28 
REMARK    7  A    between atoms: C_28  and  C_25 
ROOT
ATOM      1  C   UNL d   1      61.819  45.966  49.824  0.00  0.00     0.168 A 
ATOM      2  N   UNL d   1      61.849  46.800  49.746  0.00  0.00    -0.184 N 
ATOM      3  C   UNL d   1      62.328  45.508  49.412  0.00  0.00     0.057 A 
ATOM      4  C   UNL d   1      61.337  47.242  50.162  0.00  0.00     0.218 A 
ATOM      5  N   UNL d   1      62.908  46.664  48.839  0.00  0.00    -0.160 NA
ATOM      6  N   UNL d   1      61.279  45.630  50.312  0.00  0.00    -0.227 NA
ATOM      7  C   UNL d   1      60.786  46.910  50.658  0.00  0.00     0.071 A 
ATOM      8  C   UNL d   1      62.879  45.856  48.914  0.00  0.00     0.124 A 
ATOM      9  C   UNL d   1      60.757  46.089  50.735  0.00  0.00     0.087 A 
ATOM     10  C   UNL d   1      60.186  45.735  51.250  0.00  0.00     0.021 C 
ENDROOT
BRANCH   4  11
ATOM     11  N   UNL d   1      61.364  48.084  50.086  0.00  0.00    -0.380 NA
BRANCH  11  12
ATOM     12  C   UNL d   1      61.247  48.862  49.780  0.00  0.00     0.163 C 
BRANCH  12  13
ATOM     13  C   UNL d   1      60.566  49.291  50.020  0.00  0.00     0.035 C 
BRANCH  13  14
ATOM     14  C   UNL d   1      60.421  49.395  50.845  0.00  0.00     0.005 A 
ATOM     15  C   UNL d   1      61.087  49.497  51.372  0.00  0.00     0.026 A 
ATOM     16  C   UNL d   1      60.949  49.602  52.209  0.00  0.00     0.116 A 
ATOM     17  C   UNL d   1      60.148  49.603  52.507  0.00  0.00     0.116 A 
ATOM     18  C   UNL d   1      59.504  49.501  51.980  0.00  0.00     0.026 A 
ATOM     19  C   UNL d   1      59.647  49.397  51.143  0.00  0.00     0.002 A 
BRANCH  16  20
ATOM     20  O   UNL d   1      61.593  49.703  52.730  0.00  0.00    -0.326 OA
ATOM     21  C   UNL d   1      61.902  49.045  53.154  0.00  0.00     0.181 C 
ENDBRANCH  16  20
BRANCH  17  22
ATOM     22  O   UNL d   1      60.013  49.706  53.330  0.00  0.00    -0.326 OA
ATOM     23  C   UNL d   1      59.252  49.544  53.665  0.00  0.00     0.181 C 
ENDBRANCH  17  22
ENDBRANCH  13  14
ENDBRANCH  12  13
ENDBRANCH  11  12
ENDBRANCH   4  11
BRANCH   3  24
ATOM     24  C   UNL d   1      62.299  44.700  49.487  0.00  0.00     0.005 A 
ATOM     25  C   UNL d   1      61.802  44.273  49.024  0.00  0.00     0.001 A 
ATOM     26  C   UNL d   1      61.773  43.465  49.099  0.00  0.00     0.011 A 
ATOM     27  C   UNL d   1      62.241  43.096  49.637  0.00  0.00     0.058 A 
ATOM     28  C   UNL d   1      62.739  43.537  50.099  0.00  0.00     0.011 A 
ATOM     29 CL   UNL d   1      62.211  42.251  49.716  0.00  0.00    -0.082 Cl
ATOM     30  C   UNL d   1      62.768  44.332  50.025  0.00  0.00     0.001 A 
ENDBRANCH   3  24
TORSDOF 7
ENDMDL
