MODEL 1
REMARK VINA RESULT:      66.0      0.000      0.000
REMARK  4 active torsions:
REMARK  status: ('A' for Active; 'I' for Inactive)
REMARK    1  A    between atoms: N_5  and  C_1 
REMARK    2  A    between atoms: C_9  and  C_2 
REMARK       I    between atoms: C_6  and  N_5 
REMARK    3  A    between atoms: C_8  and  C_6 
REMARK    4  A    between atoms: N_10  and  C_9 
ROOT
ATOM      1  C   UNL d   1     -50.585  25.232  33.820  0.00  0.00     0.115 A 
ATOM      2  C   UNL d   1     -51.179  24.701  34.022  0.00  0.00     0.042 A 
ATOM      3  S   UNL d   1     -49.937  24.794  33.532  0.00  0.00    -0.068 SA
ATOM      4  C   UNL d   1     -50.905  23.940  33.862  0.00  0.00     0.009 A 
ATOM      5  C   UNL d   1     -50.138  24.008  33.560  0.00  0.00     0.031 A 
ATOM      6  C   UNL d   1     -51.312  23.232  33.978  0.00  0.00     0.001 C 
ATOM      7  C   UNL d   1     -49.647  23.385  33.323  0.00  0.00     0.007 C 
ENDROOT
BRANCH   1   8
ATOM      8  N   UNL d   1     -50.702  26.044  33.920  0.00  0.00    -0.201 NA
ATOM      9  C   UNL d   1     -50.132  26.578  33.664  0.00  0.00     0.282 C 
ATOM     10  O   UNL d   1     -49.445  26.302  33.307  0.00  0.00    -0.265 OA
BRANCH   9  11
ATOM     11  C   UNL d   1     -50.249  27.386  33.764  0.00  0.00     0.085 A 
ATOM     12  C   UNL d   1     -49.806  27.800  34.318  0.00  0.00     0.145 A 
ATOM     13  F   UNL d   1     -49.238  27.394  34.776  0.00  0.00    -0.204 F 
ATOM     14  C   UNL d   1     -49.922  28.608  34.418  0.00  0.00     0.030 A 
ATOM     15  C   UNL d   1     -50.482  29.003  33.964  0.00  0.00     0.002 A 
ATOM     16  C   UNL d   1     -50.928  28.588  33.407  0.00  0.00     0.000 A 
ATOM     17  C   UNL d   1     -50.812  27.780  33.307  0.00  0.00     0.007 A 
ENDBRANCH   9  11
ENDBRANCH   1   8
BRANCH   2  18
ATOM     18  C   UNL d   1     -51.926  24.898  34.333  0.00  0.00     0.082 C 
BRANCH  18  19
ATOM     19  N   UNL d   1     -52.608  24.593  33.992  0.00  0.00    -0.302 N 
ATOM     20  C   UNL d   1     -52.716  23.774  33.947  0.00  0.00     0.080 A 
ATOM     21  C   UNL d   1     -53.403  23.465  33.604  0.00  0.00     0.019 A 
ATOM     22  C   UNL d   1     -53.978  23.976  33.309  0.00  0.00     0.003 A 
ATOM     23  C   UNL d   1     -53.871  24.795  33.354  0.00  0.00     0.019 A 
ATOM     24  C   UNL d   1     -53.188  25.104  33.695  0.00  0.00     0.080 A 
ENDBRANCH  18  19
ENDBRANCH   2  18
TORSDOF 4
ENDMDL
MODEL 2
REMARK VINA RESULT:      67.0      1.843      4.005
REMARK  4 active torsions:
REMARK  status: ('A' for Active; 'I' for Inactive)
REMARK    1  A    between atoms: N_5  and  C_1 
REMARK    2  A    between atoms: C_9  and  C_2 
REMARK       I    between atoms: C_6  and  N_5 
REMARK    3  A    between atoms: C_8  and  C_6 
REMARK    4  A    between atoms: N_10  and  C_9 
ROOT
ATOM      1  C   UNL d   1     -50.834  25.993  33.823  0.00  0.00     0.115 A 
ATOM      2  C   UNL d   1     -50.717  26.603  34.361  0.00  0.00     0.042 A 
ATOM      3  S   UNL d   1     -50.141  25.917  33.368  0.00  0.00    -0.068 SA
ATOM      4  C   UNL d   1     -49.959  26.905  34.242  0.00  0.00     0.009 A 
ATOM      5  C   UNL d   1     -49.612  26.475  33.627  0.00  0.00     0.031 A 
ATOM      6  C   UNL d   1     -49.601  27.523  34.655  0.00  0.00     0.001 C 
ATOM      7  C   UNL d   1     -48.851  26.587  33.319  0.00  0.00     0.007 C 
ENDROOT
BRANCH   1   8
ATOM      8  N   UNL d   1     -51.551  25.582  33.811  0.00  0.00    -0.201 NA
ATOM      9  C   UNL d   1     -51.574  24.802  33.554  0.00  0.00     0.282 C 
ATOM     10  O   UNL d   1     -50.883  24.432  33.308  0.00  0.00    -0.265 OA
BRANCH   9  11
ATOM     11  C   UNL d   1     -52.288  24.392  33.542  0.00  0.00     0.085 A 
ATOM     12  C   UNL d   1     -52.310  23.599  33.753  0.00  0.00     0.145 A 
ATOM     13  F   UNL d   1     -51.604  23.214  33.977  0.00  0.00    -0.204 F 
ATOM     14  C   UNL d   1     -53.024  23.189  33.741  0.00  0.00     0.030 A 
ATOM     15  C   UNL d   1     -53.716  23.573  33.519  0.00  0.00     0.002 A 
ATOM     16  C   UNL d   1     -53.695  24.371  33.307  0.00  0.00     0.000 A 
ATOM     17  C   UNL d   1     -52.981  24.780  33.319  0.00  0.00     0.007 A 
ENDBRANCH   9  11
ENDBRANCH   1   8
BRANCH   2  18
ATOM     18  C   UNL d   1     -51.268  26.870  34.926  0.00  0.00     0.082 C 
BRANCH  18  19
ATOM     19  N   UNL d   1     -51.091  26.827  35.727  0.00  0.00    -0.302 N 
ATOM     20  C   UNL d   1     -50.516  27.326  36.049  0.00  0.00     0.080 A 
ATOM     21  C   UNL d   1     -50.336  27.284  36.856  0.00  0.00     0.019 A 
ATOM     22  C   UNL d   1     -50.732  26.744  37.336  0.00  0.00     0.003 A 
ATOM     23  C   UNL d   1     -51.308  26.245  37.014  0.00  0.00     0.019 A 
ATOM     24  C   UNL d   1     -51.488  26.285  36.212  0.00  0.00     0.080 A 
ENDBRANCH  18  19
ENDBRANCH   2  18
TORSDOF 4
ENDMDL
