MODEL 1
REMARK VINA RESULT:      63.7      0.000      0.000
REMARK  8 active torsions:
REMARK  status: ('A' for Active; 'I' for Inactive)
REMARK    1  A    between atoms: C_4  and  C_1 
REMARK    2  A    between atoms: N_6  and  C_3 
REMARK    3  A    between atoms: O_18  and  C_4 
REMARK       I    between atoms: C_7  and  N_6 
REMARK    4  A    between atoms: C_16  and  C_7 
REMARK    5  A    between atoms: C_10  and  C_8 
REMARK    6  A    between atoms: C_9  and  S_11 
REMARK    7  A    between atoms: S_11  and  C_16 
REMARK    8  A    between atoms: C_24  and  O_18 
ROOT
ATOM      1  N   UNL d   1      22.452  24.652  -4.092  0.00  0.00    -0.207 NA
ATOM      2  C   UNL d   1      22.858  23.994  -4.381  0.00  0.00     0.286 C 
ATOM      3  O   UNL d   1      23.264  24.045  -5.098  0.00  0.00    -0.265 OA
ENDROOT
BRANCH   2   4
ATOM      4  C   UNL d   1      22.859  23.290  -3.956  0.00  0.00     0.099 C 
BRANCH   4   5
ATOM      5  S   UNL d   1      23.220  22.626  -4.273  0.00  0.00    -0.061 SA
BRANCH   5   6
ATOM      6  C   UNL d   1      22.877  21.881  -4.185  0.00  0.00     0.133 A 
ATOM      7  N   UNL d   1      23.121  21.377  -3.587  0.00  0.00    -0.141 NA
ATOM      8  N   UNL d   1      22.777  20.633  -3.498  0.00  0.00    -0.148 NA
ATOM      9  C   UNL d   1      22.179  20.387  -4.016  0.00  0.00     0.104 A 
ATOM     10  C   UNL d   1      21.930  20.893  -4.621  0.00  0.00     0.023 A 
ATOM     11  C   UNL d   1      22.275  21.636  -4.707  0.00  0.00     0.029 A 
BRANCH   9  12
ATOM     12  C   UNL d   1      21.835  19.643  -3.927  0.00  0.00     0.039 A 
ATOM     13  C   UNL d   1      21.142  19.566  -3.507  0.00  0.00     0.101 A 
ATOM     14  N   UNL d   1      20.797  18.829  -3.417  0.00  0.00    -0.242 NA
ATOM     15  C   UNL d   1      21.158  18.160  -3.755  0.00  0.00     0.099 A 
ATOM     16  C   UNL d   1      21.854  18.242  -4.176  0.00  0.00     0.021 A 
ATOM     17  C   UNL d   1      22.206  18.983  -4.270  0.00  0.00     0.005 A 
ENDBRANCH   9  12
ENDBRANCH   5   6
ENDBRANCH   4   5
ENDBRANCH   2   4
BRANCH   1  18
ATOM     18  C   UNL d   1      22.452  25.352  -4.515  0.00  0.00     0.090 A 
ATOM     19  C   UNL d   1      22.525  26.074  -4.121  0.00  0.00     0.081 A 
ATOM     20  C   UNL d   1      22.524  26.777  -4.546  0.00  0.00     0.007 A 
ATOM     21  C   UNL d   1      22.452  26.766  -5.364  0.00  0.00     0.000 A 
ATOM     22  C   UNL d   1      22.377  26.041  -5.772  0.00  0.00     0.002 A 
ATOM     23  C   UNL d   1      22.379  25.339  -5.337  0.00  0.00     0.019 A 
BRANCH  19  24
ATOM     24  C   UNL d   1      22.597  26.079  -3.305  0.00  0.00     0.302 C 
ATOM     25  O   UNL d   1      22.227  25.497  -2.859  0.00  0.00    -0.259 OA
BRANCH  24  26
ATOM     26  O   UNL d   1      23.038  26.662  -2.930  0.00  0.00    -0.271 OA
BRANCH  26  27
ATOM     27  C   UNL d   1      22.960  26.777  -2.116  0.00  0.00     0.126 C 
ATOM     28  C   UNL d   1      23.632  26.758  -1.635  0.00  0.00     0.029 C 
ENDBRANCH  26  27
ENDBRANCH  24  26
ENDBRANCH  19  24
ENDBRANCH   1  18
TORSDOF 8
ENDMDL
MODEL 2
REMARK VINA RESULT:      64.7      9.589     12.461
REMARK  8 active torsions:
REMARK  status: ('A' for Active; 'I' for Inactive)
REMARK    1  A    between atoms: C_4  and  C_1 
REMARK    2  A    between atoms: N_6  and  C_3 
REMARK    3  A    between atoms: O_18  and  C_4 
REMARK       I    between atoms: C_7  and  N_6 
REMARK    4  A    between atoms: C_16  and  C_7 
REMARK    5  A    between atoms: C_10  and  C_8 
REMARK    6  A    between atoms: C_9  and  S_11 
REMARK    7  A    between atoms: S_11  and  C_16 
REMARK    8  A    between atoms: C_24  and  O_18 
ROOT
ATOM      1  N   UNL d   1      13.313  14.460  -3.898  0.00  0.00    -0.207 NA
ATOM      2  C   UNL d   1      13.284  14.646  -4.702  0.00  0.00     0.286 C 
ATOM      3  O   UNL d   1      13.404  14.054  -5.264  0.00  0.00    -0.265 OA
ENDROOT
BRANCH   2   4
ATOM      4  C   UNL d   1      13.137  15.418  -4.941  0.00  0.00     0.099 C 
BRANCH   4   5
ATOM      5  S   UNL d   1      13.507  15.711  -5.613  0.00  0.00    -0.061 SA
BRANCH   5   6
ATOM      6  C   UNL d   1      13.673  16.516  -5.680  0.00  0.00     0.133 A 
ATOM      7  N   UNL d   1      14.356  16.829  -5.354  0.00  0.00    -0.141 NA
ATOM      8  N   UNL d   1      14.523  17.634  -5.421  0.00  0.00    -0.148 NA
ATOM      9  C   UNL d   1      13.998  18.136  -5.822  0.00  0.00     0.104 A 
ATOM     10  C   UNL d   1      13.307  17.822  -6.152  0.00  0.00     0.023 A 
ATOM     11  C   UNL d   1      13.144  17.019  -6.083  0.00  0.00     0.029 A 
BRANCH   9  12
ATOM     12  C   UNL d   1      14.164  18.941  -5.889  0.00  0.00     0.039 A 
ATOM     13  C   UNL d   1      13.666  19.421  -6.317  0.00  0.00     0.101 A 
ATOM     14  N   UNL d   1      13.828  20.221  -6.387  0.00  0.00    -0.242 NA
ATOM     15  C   UNL d   1      14.502  20.540  -6.018  0.00  0.00     0.099 A 
ATOM     16  C   UNL d   1      15.000  20.053  -5.589  0.00  0.00     0.021 A 
ATOM     17  C   UNL d   1      14.841  19.246  -5.516  0.00  0.00     0.005 A 
ENDBRANCH   9  12
ENDBRANCH   5   6
ENDBRANCH   4   5
ENDBRANCH   2   4
BRANCH   1  18
ATOM     18  C   UNL d   1      13.459  13.691  -3.660  0.00  0.00     0.090 A 
ATOM     19  C   UNL d   1      13.943  13.545  -3.007  0.00  0.00     0.081 A 
ATOM     20  C   UNL d   1      14.090  12.772  -2.768  0.00  0.00     0.007 A 
ATOM     21  C   UNL d   1      13.757  12.143  -3.177  0.00  0.00     0.000 A 
ATOM     22  C   UNL d   1      13.267  12.280  -3.838  0.00  0.00     0.002 A 
ATOM     23  C   UNL d   1      13.125  13.059  -4.072  0.00  0.00     0.019 A 
BRANCH  19  24
ATOM     24  C   UNL d   1      14.272  14.177  -2.603  0.00  0.00     0.302 C 
ATOM     25  O   UNL d   1      13.910  14.914  -2.635  0.00  0.00    -0.259 OA
BRANCH  24  26
ATOM     26  O   UNL d   1      14.961  14.079  -2.167  0.00  0.00    -0.271 OA
BRANCH  26  27
ATOM     27  C   UNL d   1      15.093  14.542  -1.497  0.00  0.00     0.126 C 
ATOM     28  C   UNL d   1      14.730  15.282  -1.435  0.00  0.00     0.029 C 
ENDBRANCH  26  27
ENDBRANCH  24  26
ENDBRANCH  19  24
ENDBRANCH   1  18
TORSDOF 8
ENDMDL
