MODEL 1
REMARK VINA RESULT:      62.4      0.000      0.000
REMARK  8 active torsions:
REMARK  status: ('A' for Active; 'I' for Inactive)
REMARK    1  A    between atoms: S_10  and  C_2 
REMARK    2  A    between atoms: C_7  and  C_4 
REMARK    3  A    between atoms: C_17  and  S_10 
REMARK    4  A    between atoms: C_14  and  C_17 
REMARK    5  A    between atoms: O_18  and  C_14 
REMARK    6  A    between atoms: O_19  and  C_15 
REMARK    7  A    between atoms: C_22  and  O_18 
REMARK    8  A    between atoms: C_23  and  O_19 
ROOT
ATOM      1  C   UNL d   1     -56.909 -99.018 -44.332  0.00  0.00     0.093 A 
ATOM      2  C   UNL d   1     -56.080 -99.073 -44.382  0.00  0.00     0.124 A 
ATOM      3  N   UNL d   1     -55.710 -99.049 -45.120  0.00  0.00    -0.200 NA
ATOM      4  C   UNL d   1     -57.358 -98.939 -45.020  0.00  0.00     0.028 A 
ATOM      5  C   UNL d   1     -56.988 -98.915 -45.754  0.00  0.00     0.127 A 
ATOM      6  C   UNL d   1     -56.159 -98.970 -45.804  0.00  0.00     0.289 A 
ATOM      7  C   UNL d   1     -57.279 -99.041 -43.602  0.00  0.00     0.103 C 
ATOM      8  C   UNL d   1     -57.437 -98.835 -46.441  0.00  0.00     0.106 C 
ATOM      9  N   UNL d   1     -57.641 -99.065 -42.877  0.00  0.00    -0.191 NA
ATOM     10  N   UNL d   1     -57.878 -98.758 -47.118  0.00  0.00    -0.191 NA
ATOM     11  O   UNL d   1     -55.805 -98.939 -46.628  0.00  0.00    -0.264 OA
ENDROOT
BRANCH   2  12
ATOM     12  S   UNL d   1     -55.660 -99.155 -43.627  0.00  0.00    -0.061 SA
BRANCH  12  13
ATOM     13  C   UNL d   1     -54.911 -99.571 -43.465  0.00  0.00     0.105 C 
BRANCH  13  14
ATOM     14  C   UNL d   1     -54.931-100.334 -43.049  0.00  0.00     0.307 C 
ATOM     15  O   UNL d   1     -54.773-100.393 -42.548  0.00  0.00    -0.258 OA
BRANCH  14  16
ATOM     16  O   UNL d   1     -55.237-101.008 -43.535  0.00  0.00    -0.271 OA
BRANCH  16  17
ATOM     17  C   UNL d   1     -54.712-101.258 -44.225  0.00  0.00     0.126 C 
ATOM     18  C   UNL d   1     -54.718-102.194 -44.260  0.00  0.00     0.029 C 
ENDBRANCH  16  17
ENDBRANCH  14  16
ENDBRANCH  13  14
ENDBRANCH  12  13
ENDBRANCH   2  12
BRANCH   4  19
ATOM     19  C   UNL d   1     -58.176 -98.884 -44.970  0.00  0.00     0.024 A 
ATOM     20  C   UNL d   1     -58.541 -98.837 -44.235  0.00  0.00     0.100 A 
ATOM     21  C   UNL d   1     -59.364 -98.782 -44.185  0.00  0.00     0.025 A 
ATOM     22  C   UNL d   1     -59.820 -98.774 -44.871  0.00  0.00     0.002 A 
ATOM     23  C   UNL d   1     -59.453 -98.821 -45.610  0.00  0.00     0.000 A 
ATOM     24  C   UNL d   1     -58.630 -98.876 -45.660  0.00  0.00     0.002 A 
BRANCH  20  25
ATOM     25  O   UNL d   1     -58.227 -98.838 -43.612  0.00  0.00    -0.305 OA
BRANCH  25  26
ATOM     26  C   UNL d   1     -58.733 -98.756 -42.991  0.00  0.00     0.123 C 
ATOM     27  C   UNL d   1     -58.385 -98.927 -42.146  0.00  0.00     0.029 C 
ENDBRANCH  25  26
ENDBRANCH  20  25
ENDBRANCH   4  19
TORSDOF 8
ENDMDL
MODEL 2
REMARK VINA RESULT:      62.6      1.433      3.567
REMARK  8 active torsions:
REMARK  status: ('A' for Active; 'I' for Inactive)
REMARK    1  A    between atoms: S_10  and  C_2 
REMARK    2  A    between atoms: C_7  and  C_4 
REMARK    3  A    between atoms: C_17  and  S_10 
REMARK    4  A    between atoms: C_14  and  C_17 
REMARK    5  A    between atoms: O_18  and  C_14 
REMARK    6  A    between atoms: O_19  and  C_15 
REMARK    7  A    between atoms: C_22  and  O_18 
REMARK    8  A    between atoms: C_23  and  O_19 
ROOT
ATOM      1  C   UNL d   1     -57.124 -99.082 -43.694  0.00  0.00     0.093 A 
ATOM      2  C   UNL d   1     -57.887 -98.877 -43.431  0.00  0.00     0.124 A 
ATOM      3  N   UNL d   1     -58.498 -98.779 -43.977  0.00  0.00    -0.200 NA
ATOM      4  C   UNL d   1     -56.982 -99.186 -44.501  0.00  0.00     0.028 A 
ATOM      5  C   UNL d   1     -57.591 -99.088 -45.043  0.00  0.00     0.127 A 
ATOM      6  C   UNL d   1     -58.354 -98.883 -44.780  0.00  0.00     0.289 A 
ATOM      7  C   UNL d   1     -56.515 -99.181 -43.155  0.00  0.00     0.103 C 
ATOM      8  C   UNL d   1     -57.449 -99.192 -45.849  0.00  0.00     0.106 C 
ATOM      9  N   UNL d   1     -55.916 -99.277 -42.617  0.00  0.00    -0.191 NA
ATOM     10  N   UNL d   1     -57.310 -99.294 -46.642  0.00  0.00    -0.191 NA
ATOM     11  O   UNL d   1     -58.984 -98.788 -45.412  0.00  0.00    -0.264 OA
ENDROOT
BRANCH   2  12
ATOM     12  S   UNL d   1     -57.978 -98.781 -42.573  0.00  0.00    -0.061 SA
BRANCH  12  13
ATOM     13  C   UNL d   1     -58.704 -98.836 -42.095  0.00  0.00     0.105 C 
BRANCH  13  14
ATOM     14  C   UNL d   1     -59.423 -99.170 -42.452  0.00  0.00     0.307 C 
ATOM     15  O   UNL d   1     -59.636 -98.985 -42.899  0.00  0.00    -0.258 OA
BRANCH  14  16
ATOM     16  O   UNL d   1     -59.772 -99.851 -42.004  0.00  0.00    -0.271 OA
BRANCH  16  17
ATOM     17  C   UNL d   1     -59.590 -99.865 -41.119  0.00  0.00     0.126 C 
ATOM     18  C   UNL d   1     -59.931-100.667 -40.775  0.00  0.00     0.029 C 
ENDBRANCH  16  17
ENDBRANCH  14  16
ENDBRANCH  13  14
ENDBRANCH  12  13
ENDBRANCH   2  12
BRANCH   4  19
ATOM     19  C   UNL d   1     -56.229 -99.389 -44.760  0.00  0.00     0.024 A 
ATOM     20  C   UNL d   1     -56.023-100.180 -44.845  0.00  0.00     0.100 A 
ATOM     21  C   UNL d   1     -55.266-100.383 -45.106  0.00  0.00     0.025 A 
ATOM     22  C   UNL d   1     -54.717 -99.795 -45.283  0.00  0.00     0.002 A 
ATOM     23  C   UNL d   1     -54.926 -98.999 -45.197  0.00  0.00     0.000 A 
ATOM     24  C   UNL d   1     -55.682 -98.796 -44.936  0.00  0.00     0.002 A 
BRANCH  20  25
ATOM     25  O   UNL d   1     -56.427-100.733 -44.717  0.00  0.00    -0.305 OA
BRANCH  25  26
ATOM     26  C   UNL d   1     -56.022-101.425 -44.641  0.00  0.00     0.123 C 
ATOM     27  C   UNL d   1     -56.453-102.113 -44.189  0.00  0.00     0.029 C 
ENDBRANCH  25  26
ENDBRANCH  20  25
ENDBRANCH   4  19
TORSDOF 8
ENDMDL
MODEL 3
REMARK VINA RESULT:      64.3      1.417      3.793
REMARK  8 active torsions:
REMARK  status: ('A' for Active; 'I' for Inactive)
REMARK    1  A    between atoms: S_10  and  C_2 
REMARK    2  A    between atoms: C_7  and  C_4 
REMARK    3  A    between atoms: C_17  and  S_10 
REMARK    4  A    between atoms: C_14  and  C_17 
REMARK    5  A    between atoms: O_18  and  C_14 
REMARK    6  A    between atoms: O_19  and  C_15 
REMARK    7  A    between atoms: C_22  and  O_18 
REMARK    8  A    between atoms: C_23  and  O_19 
ROOT
ATOM      1  C   UNL d   1     -57.634 -99.017 -43.679  0.00  0.00     0.093 A 
ATOM      2  C   UNL d   1     -58.369 -98.887 -44.050  0.00  0.00     0.124 A 
ATOM      3  N   UNL d   1     -58.419 -98.889 -44.874  0.00  0.00    -0.200 NA
ATOM      4  C   UNL d   1     -56.960 -99.147 -44.137  0.00  0.00     0.028 A 
ATOM      5  C   UNL d   1     -57.012 -99.148 -44.958  0.00  0.00     0.127 A 
ATOM      6  C   UNL d   1     -57.746 -99.018 -45.329  0.00  0.00     0.289 A 
ATOM      7  C   UNL d   1     -57.580 -99.015 -42.863  0.00  0.00     0.103 C 
ATOM      8  C   UNL d   1     -56.338 -99.278 -45.415  0.00  0.00     0.106 C 
ATOM      9  N   UNL d   1     -57.532 -99.013 -42.053  0.00  0.00    -0.191 NA
ATOM     10  N   UNL d   1     -55.676 -99.405 -45.866  0.00  0.00    -0.191 NA
ATOM     11  O   UNL d   1     -57.749 -99.030 -46.226  0.00  0.00    -0.264 OA
ENDROOT
BRANCH   2  12
ATOM     12  S   UNL d   1     -59.042 -98.756 -43.519  0.00  0.00    -0.061 SA
BRANCH  12  13
ATOM     13  C   UNL d   1     -59.731 -99.271 -43.381  0.00  0.00     0.105 C 
BRANCH  13  14
ATOM     14  C   UNL d   1     -59.816 -99.670 -42.613  0.00  0.00     0.307 C 
ATOM     15  O   UNL d   1     -59.846-100.195 -42.562  0.00  0.00    -0.258 OA
BRANCH  14  16
ATOM     16  O   UNL d   1     -59.850 -99.121 -41.918  0.00  0.00    -0.271 OA
BRANCH  16  17
ATOM     17  C   UNL d   1     -59.385 -99.388 -41.191  0.00  0.00     0.126 C 
ATOM     18  C   UNL d   1     -59.946 -99.294 -40.447  0.00  0.00     0.029 C 
ENDBRANCH  16  17
ENDBRANCH  14  16
ENDBRANCH  13  14
ENDBRANCH  12  13
ENDBRANCH   2  12
BRANCH   4  19
ATOM     19  C   UNL d   1     -56.236 -99.274 -43.772  0.00  0.00     0.024 A 
ATOM     20  C   UNL d   1     -55.726 -99.852 -44.060  0.00  0.00     0.100 A 
ATOM     21  C   UNL d   1     -54.998 -99.981 -43.692  0.00  0.00     0.025 A 
ATOM     22  C   UNL d   1     -54.780 -99.532 -43.037  0.00  0.00     0.002 A 
ATOM     23  C   UNL d   1     -55.293 -98.951 -42.748  0.00  0.00     0.000 A 
ATOM     24  C   UNL d   1     -56.021 -98.822 -43.116  0.00  0.00     0.002 A 
BRANCH  20  25
ATOM     25  O   UNL d   1     -55.837-100.271 -44.606  0.00  0.00    -0.305 OA
BRANCH  25  26
ATOM     26  C   UNL d   1     -55.284-100.852 -44.690  0.00  0.00     0.123 C 
ATOM     27  C   UNL d   1     -55.148-101.175 -45.551  0.00  0.00     0.029 C 
ENDBRANCH  25  26
ENDBRANCH  20  25
ENDBRANCH   4  19
TORSDOF 8
ENDMDL
