MODEL 1
REMARK VINA RESULT:      56.6      0.000      0.000
REMARK  4 active torsions:
REMARK  status: ('A' for Active; 'I' for Inactive)
REMARK    1  A    between atoms: C_11  and  C_1 
REMARK    2  A    between atoms: C_6  and  C_17 
REMARK       I    between atoms: N_10  and  C_6 
REMARK    3  A    between atoms: C_17  and  N_8 
REMARK    4  A    between atoms: C_15  and  N_10 
ROOT
ATOM      1  N   UNL d   1      13.325  13.285  -4.767  0.00  0.00    -0.299 N 
ATOM      2  C   UNL d   1      13.498  14.852  -5.224  0.00  0.00     0.039 A 
ATOM      3  C   UNL d   1      13.061  14.664  -4.550  0.00  0.00     0.022 A 
ATOM      4  C   UNL d   1      13.849  14.263  -5.671  0.00  0.00     0.022 A 
ATOM      5  C   UNL d   1      13.762  13.474  -5.441  0.00  0.00     0.081 A 
ATOM      6  C   UNL d   1      12.975  13.887  -4.323  0.00  0.00     0.081 A 
ENDROOT
BRANCH   1   7
ATOM      7  C   UNL d   1      13.237  12.496  -4.536  0.00  0.00     0.144 C 
BRANCH   7   8
ATOM      8  C   UNL d   1      13.304  12.289  -3.737  0.00  0.00     0.297 C 
ATOM      9  N   UNL d   1      13.910  12.601  -3.301  0.00  0.00    -0.207 NA
ATOM     10  O   UNL d   1      12.769  11.779  -3.396  0.00  0.00    -0.264 OA
BRANCH   9  11
ATOM     11  C   UNL d   1      13.987  12.402  -2.502  0.00  0.00     0.087 A 
ATOM     12  C   UNL d   1      14.674  12.590  -2.108  0.00  0.00     0.045 A 
ATOM     13  C   UNL d   1      14.750  12.391  -1.310  0.00  0.00     0.121 A 
ATOM     14  O   UNL d   1      15.360  12.502  -0.767  0.00  0.00    -0.299 OA
ATOM     15  C   UNL d   1      14.141  12.008  -0.921  0.00  0.00     0.119 A 
ATOM     16  C   UNL d   1      15.125  12.187  -0.043  0.00  0.00     0.304 A 
ATOM     17  O   UNL d   1      14.367  11.880  -0.140  0.00  0.00    -0.300 OA
ATOM     18  C   UNL d   1      13.447  11.822  -1.334  0.00  0.00     0.028 A 
ATOM     19  C   UNL d   1      13.374  12.021  -2.125  0.00  0.00     0.021 A 
ENDBRANCH   9  11
ENDBRANCH   7   8
ENDBRANCH   1   7
BRANCH   2  20
ATOM     20  C   UNL d   1      13.585  15.641  -5.454  0.00  0.00     0.163 A 
ATOM     21  N   UNL d   1      13.054  16.084  -5.890  0.00  0.00    -0.225 NA
ATOM     22  C   UNL d   1      13.363  16.839  -5.990  0.00  0.00     0.101 A 
ATOM     23  C   UNL d   1      13.071  17.506  -6.378  0.00  0.00     0.021 A 
ATOM     24  C   UNL d   1      14.097  16.864  -5.611  0.00  0.00     0.101 A 
ATOM     25  C   UNL d   1      13.513  18.198  -6.387  0.00  0.00     0.002 A 
ATOM     26  C   UNL d   1      14.248  18.227  -6.009  0.00  0.00     0.002 A 
ATOM     27  C   UNL d   1      14.540  17.564  -5.622  0.00  0.00     0.021 A 
ATOM     28  N   UNL d   1      14.236  16.123  -5.278  0.00  0.00    -0.225 NA
ENDBRANCH   2  20
TORSDOF 4
ENDMDL
MODEL 2
REMARK VINA RESULT:      58.6      0.763      1.172
REMARK  4 active torsions:
REMARK  status: ('A' for Active; 'I' for Inactive)
REMARK    1  A    between atoms: C_11  and  C_1 
REMARK    2  A    between atoms: C_6  and  C_17 
REMARK       I    between atoms: N_10  and  C_6 
REMARK    3  A    between atoms: C_17  and  N_8 
REMARK    4  A    between atoms: C_15  and  N_10 
ROOT
ATOM      1  N   UNL d   1      13.585  14.352  -4.853  0.00  0.00    -0.299 N 
ATOM      2  C   UNL d   1      13.741  15.932  -5.269  0.00  0.00     0.039 A 
ATOM      3  C   UNL d   1      13.319  15.723  -4.591  0.00  0.00     0.022 A 
ATOM      4  C   UNL d   1      14.085  15.357  -5.740  0.00  0.00     0.022 A 
ATOM      5  C   UNL d   1      14.006  14.562  -5.531  0.00  0.00     0.081 A 
ATOM      6  C   UNL d   1      13.242  14.940  -4.385  0.00  0.00     0.081 A 
ENDROOT
BRANCH   1   7
ATOM      7  C   UNL d   1      13.506  13.556  -4.643  0.00  0.00     0.144 C 
BRANCH   7   8
ATOM      8  C   UNL d   1      13.489  13.339  -3.844  0.00  0.00     0.297 C 
ATOM      9  N   UNL d   1      13.878  12.669  -3.611  0.00  0.00    -0.207 NA
ATOM     10  O   UNL d   1      13.087  13.793  -3.301  0.00  0.00    -0.264 OA
BRANCH   9  11
ATOM     11  C   UNL d   1      13.869  12.442  -2.816  0.00  0.00     0.087 A 
ATOM     12  C   UNL d   1      14.487  12.656  -2.333  0.00  0.00     0.045 A 
ATOM     13  C   UNL d   1      14.477  12.429  -1.538  0.00  0.00     0.121 A 
ATOM     14  O   UNL d   1      15.006  12.554  -0.919  0.00  0.00    -0.299 OA
ATOM     15  C   UNL d   1      13.851  11.994  -1.242  0.00  0.00     0.119 A 
ATOM     16  C   UNL d   1      14.705  12.196  -0.242  0.00  0.00     0.304 A 
ATOM     17  O   UNL d   1      13.987  11.848  -0.444  0.00  0.00    -0.300 OA
ATOM     18  C   UNL d   1      13.227  11.783  -1.746  0.00  0.00     0.028 A 
ATOM     19  C   UNL d   1      13.240  12.010  -2.533  0.00  0.00     0.021 A 
ENDBRANCH   9  11
ENDBRANCH   7   8
ENDBRANCH   1   7
BRANCH   2  20
ATOM     20  C   UNL d   1      13.820  16.728  -5.479  0.00  0.00     0.163 A 
ATOM     21  N   UNL d   1      14.439  17.225  -5.284  0.00  0.00    -0.225 NA
ATOM     22  C   UNL d   1      14.291  17.966  -5.606  0.00  0.00     0.101 A 
ATOM     23  C   UNL d   1      14.719  18.671  -5.586  0.00  0.00     0.021 A 
ATOM     24  C   UNL d   1      13.568  17.928  -6.006  0.00  0.00     0.101 A 
ATOM     25  C   UNL d   1      14.426  19.337  -5.967  0.00  0.00     0.002 A 
ATOM     26  C   UNL d   1      13.704  19.303  -6.368  0.00  0.00     0.002 A 
ATOM     27  C   UNL d   1      13.276  18.602  -6.389  0.00  0.00     0.021 A 
ATOM     28  N   UNL d   1      13.275  17.162  -5.929  0.00  0.00    -0.225 NA
ENDBRANCH   2  20
TORSDOF 4
ENDMDL
