MODEL 1
REMARK VINA RESULT:      -1.5      0.000      0.000
REMARK  2 active torsions:
REMARK  status: ('A' for Active; 'I' for Inactive)
REMARK    1  A    between atoms: C_9  and  N_2 
REMARK    2  A    between atoms: C_7  and  C_4 
ROOT
ATOM      1  C   UNL d   1      30.101  17.299 -24.015  0.00  0.00     0.136 A 
ATOM      2  N   UNL d   1      30.898  17.091 -23.940  0.00  0.00    -0.281 N 
ATOM      3  C   UNL d   1      29.516  16.748 -23.814  0.00  0.00     0.152 A 
ATOM      4  C   UNL d   1      31.106  16.333 -23.663  0.00  0.00     0.175 A 
ATOM      5  N   UNL d   1      30.516  15.789 -23.465  0.00  0.00    -0.188 NA
ATOM      6  C   UNL d   1      29.722  15.998 -23.541  0.00  0.00     0.292 A 
ATOM      7  C   UNL d   1      28.723  16.957 -23.890  0.00  0.00     0.108 C 
ATOM      8  N   UNL d   1      27.923  17.162 -23.965  0.00  0.00    -0.191 NA
ATOM      9  S   UNL d   1      29.886  18.047 -24.288  0.00  0.00    -0.058 SA
ATOM     10  O   UNL d   1      29.127  15.453 -23.342  0.00  0.00    -0.264 OA
ENDROOT
BRANCH   2  11
ATOM     11  C   UNL d   1      31.481  17.633 -24.137  0.00  0.00     0.066 A 
ATOM     12  C   UNL d   1      31.735  18.181 -23.576  0.00  0.00     0.020 A 
ATOM     13  C   UNL d   1      32.321  18.724 -23.777  0.00  0.00     0.031 A 
ATOM     14  C   UNL d   1      32.653  18.721 -24.535  0.00  0.00     0.140 A 
ATOM     15  C   UNL d   1      32.395  18.169 -25.097  0.00  0.00     0.031 A 
ATOM     16  F   UNL d   1      33.241  19.270 -24.730  0.00  0.00    -0.204 F 
ATOM     17  C   UNL d   1      31.809  17.625 -24.896  0.00  0.00     0.020 A 
ENDBRANCH   2  11
BRANCH   4  18
ATOM     18  C   UNL d   1      31.900  16.125 -23.588  0.00  0.00     0.135 A 
ATOM     19  O   UNL d   1      32.390  16.318 -22.959  0.00  0.00    -0.302 OA
ATOM     20  C   UNL d   1      33.130  15.999 -23.113  0.00  0.00     0.123 A 
ATOM     21  C   UNL d   1      33.097  15.609 -23.837  0.00  0.00     0.029 A 
ATOM     22  C   UNL d   1      32.345  15.681 -24.135  0.00  0.00     0.030 A 
ENDBRANCH   4  18
TORSDOF 2
ENDMDL
MODEL 2
REMARK VINA RESULT:      -1.1      1.516      2.354
REMARK  2 active torsions:
REMARK  status: ('A' for Active; 'I' for Inactive)
REMARK    1  A    between atoms: C_9  and  N_2 
REMARK    2  A    between atoms: C_7  and  C_4 
ROOT
ATOM      1  C   UNL d   1      29.761  16.266 -23.792  0.00  0.00     0.136 A 
ATOM      2  N   UNL d   1      30.487  16.629 -23.949  0.00  0.00    -0.281 N 
ATOM      3  C   UNL d   1      29.072  16.565 -24.139  0.00  0.00     0.152 A 
ATOM      4  C   UNL d   1      30.521  17.291 -24.454  0.00  0.00     0.175 A 
ATOM      5  N   UNL d   1      29.828  17.584 -24.797  0.00  0.00    -0.188 NA
ATOM      6  C   UNL d   1      29.105  17.221 -24.639  0.00  0.00     0.292 A 
ATOM      7  C   UNL d   1      28.350  16.203 -23.981  0.00  0.00     0.108 C 
ATOM      8  N   UNL d   1      27.620  15.840 -23.825  0.00  0.00    -0.191 NA
ATOM      9  S   UNL d   1      29.719  15.610 -23.293  0.00  0.00    -0.058 SA
ATOM     10  O   UNL d   1      28.408  17.514 -24.983  0.00  0.00    -0.264 OA
ENDROOT
BRANCH   2  11
ATOM     11  C   UNL d   1      31.173  16.335 -23.607  0.00  0.00     0.066 A 
ATOM     12  C   UNL d   1      31.417  16.623 -22.873  0.00  0.00     0.020 A 
ATOM     13  C   UNL d   1      32.106  16.326 -22.532  0.00  0.00     0.031 A 
ATOM     14  C   UNL d   1      32.550  15.746 -22.920  0.00  0.00     0.140 A 
ATOM     15  C   UNL d   1      32.301  15.459 -23.657  0.00  0.00     0.031 A 
ATOM     16  F   UNL d   1      33.241  15.453 -22.571  0.00  0.00    -0.204 F 
ATOM     17  C   UNL d   1      31.612  15.755 -23.999  0.00  0.00     0.020 A 
ENDBRANCH   2  11
BRANCH   4  18
ATOM     18  C   UNL d   1      31.243  17.653 -24.612  0.00  0.00     0.135 A 
ATOM     19  O   UNL d   1      31.836  17.356 -25.097  0.00  0.00    -0.302 OA
ATOM     20  C   UNL d   1      32.453  17.896 -25.094  0.00  0.00     0.123 A 
ATOM     21  C   UNL d   1      32.243  18.526 -24.609  0.00  0.00     0.029 A 
ATOM     22  C   UNL d   1      31.502  18.386 -24.309  0.00  0.00     0.030 A 
ENDBRANCH   4  18
TORSDOF 2
ENDMDL
