MODEL 1
REMARK VINA RESULT:      -2.9      0.000      0.000
REMARK  4 active torsions:
REMARK  status: ('A' for Active; 'I' for Inactive)
REMARK    1  A    between atoms: C_7  and  C_1 
REMARK    2  A    between atoms: N_4  and  C_9 
REMARK    3  A    between atoms: O_17  and  C_7 
REMARK    4  A    between atoms: C_18  and  O_17 
ROOT
ATOM      1  C   UNL d   1      32.126  17.089 -23.997  0.00  0.00     0.127 A 
ATOM      2  C   UNL d   1      32.382  16.483 -23.530  0.00  0.00     0.305 A 
ATOM      3  C   UNL d   1      31.323  17.161 -24.185  0.00  0.00     0.013 A 
ATOM      4  O   UNL d   1      31.845  15.928 -23.234  0.00  0.00    -0.273 OA
ATOM      5  C   UNL d   1      30.809  16.613 -23.891  0.00  0.00     0.025 A 
ATOM      6  C   UNL d   1      31.065  16.008 -23.424  0.00  0.00     0.103 A 
ATOM      7  C   UNL d   1      29.474  16.130 -23.783  0.00  0.00     0.127 A 
ATOM      8  C   UNL d   1      30.008  16.686 -24.079  0.00  0.00     0.025 A 
ATOM      9  O   UNL d   1      33.182  16.410 -23.342  0.00  0.00    -0.259 OA
ATOM     10  C   UNL d   1      30.530  15.453 -23.128  0.00  0.00     0.026 A 
ATOM     11  C   UNL d   1      29.730  15.525 -23.317  0.00  0.00     0.026 A 
ENDROOT
BRANCH   1  12
ATOM     12  C   UNL d   1      32.660  17.643 -24.292  0.00  0.00     0.305 C 
ATOM     13  O   UNL d   1      33.137  17.461 -24.943  0.00  0.00    -0.259 OA
BRANCH  12  14
ATOM     14  O   UNL d   1      32.713  18.380 -23.934  0.00  0.00    -0.271 OA
BRANCH  14  15
ATOM     15  C   UNL d   1      33.153  18.969 -24.283  0.00  0.00     0.126 C 
ATOM     16  C   UNL d   1      33.240  19.682 -23.912  0.00  0.00     0.029 C 
ENDBRANCH  14  15
ENDBRANCH  12  14
ENDBRANCH   1  12
BRANCH   7  17
ATOM     17  N   UNL d   1      28.678  16.180 -23.954  0.00  0.00    -0.114 N 
ATOM     18  O   UNL d   1      28.200  16.627 -23.476  0.00  0.00    -0.532 OA
ATOM     19  O   UNL d   1      28.393  15.783 -24.594  0.00  0.00    -0.532 OA
ENDBRANCH   7  17
TORSDOF 4
ENDMDL
MODEL 2
REMARK VINA RESULT:      -2.5      1.694      3.822
REMARK  4 active torsions:
REMARK  status: ('A' for Active; 'I' for Inactive)
REMARK    1  A    between atoms: C_7  and  C_1 
REMARK    2  A    between atoms: N_4  and  C_9 
REMARK    3  A    between atoms: O_17  and  C_7 
REMARK    4  A    between atoms: C_18  and  O_17 
ROOT
ATOM      1  C   UNL d   1      30.343  16.693 -24.373  0.00  0.00     0.127 A 
ATOM      2  C   UNL d   1      30.801  16.107 -24.682  0.00  0.00     0.305 A 
ATOM      3  C   UNL d   1      30.692  17.348 -24.008  0.00  0.00     0.013 A 
ATOM      4  O   UNL d   1      31.626  16.154 -24.638  0.00  0.00    -0.273 OA
ATOM      5  C   UNL d   1      31.497  17.384 -23.971  0.00  0.00     0.025 A 
ATOM      6  C   UNL d   1      31.956  16.798 -24.280  0.00  0.00     0.103 A 
ATOM      7  C   UNL d   1      32.667  18.085 -23.563  0.00  0.00     0.127 A 
ATOM      8  C   UNL d   1      31.844  18.038 -23.606  0.00  0.00     0.025 A 
ATOM      9  O   UNL d   1      30.455  15.453 -25.046  0.00  0.00    -0.259 OA
ATOM     10  C   UNL d   1      32.779  16.845 -24.236  0.00  0.00     0.026 A 
ATOM     11  C   UNL d   1      33.126  17.499 -23.872  0.00  0.00     0.026 A 
ENDROOT
BRANCH   1  12
ATOM     12  C   UNL d   1      29.520  16.647 -24.416  0.00  0.00     0.305 C 
ATOM     13  O   UNL d   1      29.121  16.896 -25.097  0.00  0.00    -0.259 OA
BRANCH  12  14
ATOM     14  O   UNL d   1      29.100  16.351 -23.776  0.00  0.00    -0.271 OA
BRANCH  14  15
ATOM     15  C   UNL d   1      28.296  16.464 -23.732  0.00  0.00     0.126 C 
ATOM     16  C   UNL d   1      27.883  16.189 -23.094  0.00  0.00     0.029 C 
ENDBRANCH  14  15
ENDBRANCH  12  14
ENDBRANCH   1  12
BRANCH   7  17
ATOM     17  N   UNL d   1      33.035  18.720 -23.208  0.00  0.00    -0.114 N 
ATOM     18  O   UNL d   1      33.241  18.669 -22.426  0.00  0.00    -0.532 OA
ATOM     19  O   UNL d   1      33.181  19.379 -23.647  0.00  0.00    -0.532 OA
ENDBRANCH   7  17
TORSDOF 4
ENDMDL
MODEL 3
REMARK VINA RESULT:      -2.0      4.227      6.258
REMARK  4 active torsions:
REMARK  status: ('A' for Active; 'I' for Inactive)
REMARK    1  A    between atoms: C_7  and  C_1 
REMARK    2  A    between atoms: N_4  and  C_9 
REMARK    3  A    between atoms: O_17  and  C_7 
REMARK    4  A    between atoms: C_18  and  O_17 
ROOT
ATOM      1  C   UNL d   1      32.678  22.627 -21.287  0.00  0.00     0.127 A 
ATOM      2  C   UNL d   1      32.794  22.894 -22.039  0.00  0.00     0.305 A 
ATOM      3  C   UNL d   1      32.730  21.818 -21.118  0.00  0.00     0.013 A 
ATOM      4  O   UNL d   1      32.967  22.363 -22.649  0.00  0.00    -0.273 OA
ATOM      5  C   UNL d   1      32.900  21.310 -21.722  0.00  0.00     0.025 A 
ATOM      6  C   UNL d   1      33.016  21.578 -22.473  0.00  0.00     0.103 A 
ATOM      7  C   UNL d   1      33.125  19.975 -22.162  0.00  0.00     0.127 A 
ATOM      8  C   UNL d   1      32.952  20.504 -21.552  0.00  0.00     0.025 A 
ATOM      9  O   UNL d   1      32.742  23.700 -22.208  0.00  0.00    -0.259 OA
ATOM     10  C   UNL d   1      33.189  21.049 -23.083  0.00  0.00     0.026 A 
ATOM     11  C   UNL d   1      33.241  20.242 -22.914  0.00  0.00     0.026 A 
ENDROOT
BRANCH   1  12
ATOM     12  C   UNL d   1      32.505  23.155 -20.677  0.00  0.00     0.305 C 
ATOM     13  O   UNL d   1      31.849  23.656 -20.730  0.00  0.00    -0.259 OA
BRANCH  12  14
ATOM     14  O   UNL d   1      32.991  23.178 -20.017  0.00  0.00    -0.271 OA
BRANCH  14  15
ATOM     15  C   UNL d   1      32.724  23.520 -19.329  0.00  0.00     0.126 C 
ATOM     16  C   UNL d   1      33.211  23.571 -18.686  0.00  0.00     0.029 C 
ENDBRANCH  14  15
ENDBRANCH  12  14
ENDBRANCH   1  12
BRANCH   7  17
ATOM     17  N   UNL d   1      33.182  19.174 -22.021  0.00  0.00    -0.114 N 
ATOM     18  O   UNL d   1      33.238  18.913 -21.255  0.00  0.00    -0.532 OA
ATOM     19  O   UNL d   1      33.180  18.668 -22.647  0.00  0.00    -0.532 OA
ENDBRANCH   7  17
TORSDOF 4
ENDMDL
MODEL 4
REMARK VINA RESULT:      -1.6      3.465      4.935
REMARK  4 active torsions:
REMARK  status: ('A' for Active; 'I' for Inactive)
REMARK    1  A    between atoms: C_7  and  C_1 
REMARK    2  A    between atoms: N_4  and  C_9 
REMARK    3  A    between atoms: O_17  and  C_7 
REMARK    4  A    between atoms: C_18  and  O_17 
ROOT
ATOM      1  C   UNL d   1      32.667  20.930 -21.450  0.00  0.00     0.127 A 
ATOM      2  C   UNL d   1      32.827  20.295 -20.980  0.00  0.00     0.305 A 
ATOM      3  C   UNL d   1      32.689  20.856 -22.273  0.00  0.00     0.013 A 
ATOM      4  O   UNL d   1      33.014  19.563 -21.316  0.00  0.00    -0.273 OA
ATOM      5  C   UNL d   1      32.873  20.137 -22.590  0.00  0.00     0.025 A 
ATOM      6  C   UNL d   1      33.032  19.502 -22.120  0.00  0.00     0.103 A 
ATOM      7  C   UNL d   1      33.082  19.333 -23.747  0.00  0.00     0.127 A 
ATOM      8  C   UNL d   1      32.895  20.065 -23.412  0.00  0.00     0.025 A 
ATOM      9  O   UNL d   1      32.805  20.367 -20.158  0.00  0.00    -0.259 OA
ATOM     10  C   UNL d   1      33.219  18.771 -22.454  0.00  0.00     0.026 A 
ATOM     11  C   UNL d   1      33.241  18.698 -23.277  0.00  0.00     0.026 A 
ENDROOT
BRANCH   1  12
ATOM     12  C   UNL d   1      32.481  21.661 -21.116  0.00  0.00     0.305 C 
ATOM     13  O   UNL d   1      31.788  21.754 -20.671  0.00  0.00    -0.259 OA
BRANCH  12  14
ATOM     14  O   UNL d   1      32.988  22.296 -21.229  0.00  0.00    -0.271 OA
BRANCH  14  15
ATOM     15  C   UNL d   1      32.838  23.005 -20.861  0.00  0.00     0.126 C 
ATOM     16  C   UNL d   1      33.225  23.674 -21.098  0.00  0.00     0.029 C 
ENDBRANCH  14  15
ENDBRANCH  12  14
ENDBRANCH   1  12
BRANCH   7  17
ATOM     17  N   UNL d   1      33.109  19.235 -24.555  0.00  0.00    -0.114 N 
ATOM     18  O   UNL d   1      33.088  19.891 -25.032  0.00  0.00    -0.532 OA
ATOM     19  O   UNL d   1      33.158  18.490 -24.855  0.00  0.00    -0.532 OA
ENDBRANCH   7  17
TORSDOF 4
ENDMDL
MODEL 5
REMARK VINA RESULT:      -1.6      1.983      3.359
REMARK  4 active torsions:
REMARK  status: ('A' for Active; 'I' for Inactive)
REMARK    1  A    between atoms: C_7  and  C_1 
REMARK    2  A    between atoms: N_4  and  C_9 
REMARK    3  A    between atoms: O_17  and  C_7 
REMARK    4  A    between atoms: C_18  and  O_17 
ROOT
ATOM      1  C   UNL d   1      32.971  19.631 -23.131  0.00  0.00     0.127 A 
ATOM      2  C   UNL d   1      33.043  19.770 -23.922  0.00  0.00     0.305 A 
ATOM      3  C   UNL d   1      32.773  18.877 -22.855  0.00  0.00     0.013 A 
ATOM      4  O   UNL d   1      32.918  19.160 -24.466  0.00  0.00    -0.273 OA
ATOM      5  C   UNL d   1      32.653  18.289 -23.395  0.00  0.00     0.025 A 
ATOM      6  C   UNL d   1      32.724  18.428 -24.186  0.00  0.00     0.103 A 
ATOM      7  C   UNL d   1      32.330  16.929 -23.664  0.00  0.00     0.127 A 
ATOM      8  C   UNL d   1      32.455  17.537 -23.119  0.00  0.00     0.025 A 
ATOM      9  O   UNL d   1      33.241  20.521 -24.198  0.00  0.00    -0.259 OA
ATOM     10  C   UNL d   1      32.600  17.820 -24.730  0.00  0.00     0.026 A 
ATOM     11  C   UNL d   1      32.401  17.068 -24.454  0.00  0.00     0.026 A 
ENDROOT
BRANCH   1  12
ATOM     12  C   UNL d   1      33.096  20.238 -22.587  0.00  0.00     0.305 C 
ATOM     13  O   UNL d   1      33.241  21.011 -22.846  0.00  0.00    -0.259 OA
BRANCH  12  14
ATOM     14  O   UNL d   1      33.074  20.070 -21.784  0.00  0.00    -0.271 OA
BRANCH  14  15
ATOM     15  C   UNL d   1      33.237  20.654 -21.243  0.00  0.00     0.126 C 
ATOM     16  C   UNL d   1      33.227  20.487 -20.451  0.00  0.00     0.029 C 
ENDBRANCH  14  15
ENDBRANCH  12  14
ENDBRANCH   1  12
BRANCH   7  17
ATOM     17  N   UNL d   1      32.133  16.177 -23.417  0.00  0.00    -0.114 N 
ATOM     18  O   UNL d   1      31.354  16.001 -23.276  0.00  0.00    -0.532 OA
ATOM     19  O   UNL d   1      32.720  15.634 -23.320  0.00  0.00    -0.532 OA
ENDBRANCH   7  17
TORSDOF 4
ENDMDL
MODEL 6
REMARK VINA RESULT:      -1.1      2.977      4.789
REMARK  4 active torsions:
REMARK  status: ('A' for Active; 'I' for Inactive)
REMARK    1  A    between atoms: C_7  and  C_1 
REMARK    2  A    between atoms: N_4  and  C_9 
REMARK    3  A    between atoms: O_17  and  C_7 
REMARK    4  A    between atoms: C_18  and  O_17 
ROOT
ATOM      1  C   UNL d   1      32.834  19.018 -23.084  0.00  0.00     0.127 A 
ATOM      2  C   UNL d   1      33.102  18.549 -22.486  0.00  0.00     0.305 A 
ATOM      3  C   UNL d   1      32.695  19.823 -22.953  0.00  0.00     0.013 A 
ATOM      4  O   UNL d   1      33.241  18.867 -21.735  0.00  0.00    -0.273 OA
ATOM      5  C   UNL d   1      32.834  20.122 -22.217  0.00  0.00     0.025 A 
ATOM      6  C   UNL d   1      33.102  19.653 -21.619  0.00  0.00     0.103 A 
ATOM      7  C   UNL d   1      32.834  21.243 -21.337  0.00  0.00     0.127 A 
ATOM      8  C   UNL d   1      32.694  20.926 -22.087  0.00  0.00     0.025 A 
ATOM      9  O   UNL d   1      33.241  17.746 -22.614  0.00  0.00    -0.259 OA
ATOM     10  C   UNL d   1      33.241  19.970 -20.869  0.00  0.00     0.026 A 
ATOM     11  C   UNL d   1      33.102  20.773 -20.740  0.00  0.00     0.026 A 
ENDROOT
BRANCH   1  12
ATOM     12  C   UNL d   1      32.695  18.702 -23.833  0.00  0.00     0.305 C 
ATOM     13  O   UNL d   1      33.121  18.974 -24.488  0.00  0.00    -0.259 OA
BRANCH  12  14
ATOM     14  O   UNL d   1      32.129  18.115 -23.922  0.00  0.00    -0.271 OA
BRANCH  14  15
ATOM     15  C   UNL d   1      31.893  17.889 -24.667  0.00  0.00     0.126 C 
ATOM     16  C   UNL d   1      31.124  17.989 -24.897  0.00  0.00     0.029 C 
ENDBRANCH  14  15
ENDBRANCH  12  14
ENDBRANCH   1  12
BRANCH   7  17
ATOM     17  N   UNL d   1      32.704  22.032 -21.184  0.00  0.00    -0.114 N 
ATOM     18  O   UNL d   1      33.240  22.578 -21.454  0.00  0.00    -0.532 OA
ATOM     19  O   UNL d   1      32.048  22.245 -20.769  0.00  0.00    -0.532 OA
ENDBRANCH   7  17
TORSDOF 4
ENDMDL
MODEL 7
REMARK VINA RESULT:      -0.9      2.038      3.983
REMARK  4 active torsions:
REMARK  status: ('A' for Active; 'I' for Inactive)
REMARK    1  A    between atoms: C_7  and  C_1 
REMARK    2  A    between atoms: N_4  and  C_9 
REMARK    3  A    between atoms: O_17  and  C_7 
REMARK    4  A    between atoms: C_18  and  O_17 
ROOT
ATOM      1  C   UNL d   1      32.381  17.202 -23.747  0.00  0.00     0.127 A 
ATOM      2  C   UNL d   1      32.646  17.012 -23.010  0.00  0.00     0.305 A 
ATOM      3  C   UNL d   1      32.395  17.988 -24.005  0.00  0.00     0.013 A 
ATOM      4  O   UNL d   1      32.933  17.600 -22.504  0.00  0.00    -0.273 OA
ATOM      5  C   UNL d   1      32.677  18.553 -23.504  0.00  0.00     0.025 A 
ATOM      6  C   UNL d   1      32.941  18.363 -22.766  0.00  0.00     0.103 A 
ATOM      7  C   UNL d   1      32.976  19.923 -23.257  0.00  0.00     0.127 A 
ATOM      8  C   UNL d   1      32.690  19.337 -23.762  0.00  0.00     0.025 A 
ATOM      9  O   UNL d   1      32.633  16.229 -22.750  0.00  0.00    -0.259 OA
ATOM     10  C   UNL d   1      33.228  18.949 -22.261  0.00  0.00     0.026 A 
ATOM     11  C   UNL d   1      33.241  19.733 -22.520  0.00  0.00     0.026 A 
ENDROOT
BRANCH   1  12
ATOM     12  C   UNL d   1      32.095  16.617 -24.252  0.00  0.00     0.305 C 
ATOM     13  O   UNL d   1      32.593  16.266 -24.813  0.00  0.00    -0.259 OA
BRANCH  12  14
ATOM     14  O   UNL d   1      31.310  16.386 -24.194  0.00  0.00    -0.271 OA
BRANCH  14  15
ATOM     15  C   UNL d   1      30.956  15.993 -24.813  0.00  0.00     0.126 C 
ATOM     16  C   UNL d   1      30.240  15.633 -24.708  0.00  0.00     0.029 C 
ENDBRANCH  14  15
ENDBRANCH  12  14
ENDBRANCH   1  12
BRANCH   7  17
ATOM     17  N   UNL d   1      32.999  20.704 -23.489  0.00  0.00    -0.114 N 
ATOM     18  O   UNL d   1      32.922  20.883 -24.276  0.00  0.00    -0.532 OA
ATOM     19  O   UNL d   1      33.098  21.273 -22.928  0.00  0.00    -0.532 OA
ENDBRANCH   7  17
TORSDOF 4
ENDMDL
MODEL 8
REMARK VINA RESULT:       0.1      3.567      5.443
REMARK  4 active torsions:
REMARK  status: ('A' for Active; 'I' for Inactive)
REMARK    1  A    between atoms: C_7  and  C_1 
REMARK    2  A    between atoms: N_4  and  C_9 
REMARK    3  A    between atoms: O_17  and  C_7 
REMARK    4  A    between atoms: C_18  and  O_17 
ROOT
ATOM      1  C   UNL d   1      32.982  22.289 -23.417  0.00  0.00     0.127 A 
ATOM      2  C   UNL d   1      33.084  22.326 -24.215  0.00  0.00     0.305 A 
ATOM      3  C   UNL d   1      32.961  21.558 -23.031  0.00  0.00     0.013 A 
ATOM      4  O   UNL d   1      33.170  21.632 -24.658  0.00  0.00    -0.273 OA
ATOM      5  C   UNL d   1      33.046  20.888 -23.472  0.00  0.00     0.025 A 
ATOM      6  C   UNL d   1      33.148  20.924 -24.271  0.00  0.00     0.103 A 
ATOM      7  C   UNL d   1      33.110  19.467 -23.529  0.00  0.00     0.127 A 
ATOM      8  C   UNL d   1      33.025  20.158 -23.086  0.00  0.00     0.025 A 
ATOM      9  O   UNL d   1      33.105  23.054 -24.601  0.00  0.00    -0.259 OA
ATOM     10  C   UNL d   1      33.234  20.233 -24.713  0.00  0.00     0.026 A 
ATOM     11  C   UNL d   1      33.213  19.503 -24.327  0.00  0.00     0.026 A 
ENDROOT
BRANCH   1  12
ATOM     12  C   UNL d   1      32.896  22.980 -22.974  0.00  0.00     0.305 C 
ATOM     13  O   UNL d   1      33.235  23.690 -23.234  0.00  0.00    -0.259 OA
BRANCH  12  14
ATOM     14  O   UNL d   1      32.471  22.958 -22.273  0.00  0.00    -0.271 OA
BRANCH  14  15
ATOM     15  C   UNL d   1      32.265  23.652 -21.901  0.00  0.00     0.126 C 
ATOM     16  C   UNL d   1      32.141  23.662 -21.102  0.00  0.00     0.029 C 
ENDBRANCH  14  15
ENDBRANCH  12  14
ENDBRANCH   1  12
BRANCH   7  17
ATOM     17  N   UNL d   1      33.093  18.734 -23.172  0.00  0.00    -0.114 N 
ATOM     18  O   UNL d   1      33.178  18.687 -22.367  0.00  0.00    -0.532 OA
ATOM     19  O   UNL d   1      32.993  18.080 -23.631  0.00  0.00    -0.532 OA
ENDBRANCH   7  17
TORSDOF 4
ENDMDL
