MODEL 1
REMARK VINA RESULT:      27.2      0.000      0.000
REMARK  3 active torsions:
REMARK  status: ('A' for Active; 'I' for Inactive)
REMARK    1  A    between atoms: N_2  and  C_1 
REMARK    2  A    between atoms: N_4  and  C_1 
REMARK       I    between atoms: C_3  and  N_2 
REMARK    3  A    between atoms: C_5  and  C_3 
ROOT
ATOM      1  C   UNL d   1     -50.976  24.902  33.441  0.00  0.00     0.209 C 
ATOM      2  S   UNL d   1     -50.392  24.313  33.530  0.00  0.00    -0.038 SA
ENDROOT
BRANCH   1   3
ATOM      3  N   UNL d   1     -51.753  24.696  33.306  0.00  0.00    -0.179 NA
ATOM      4  C   UNL d   1     -52.122  24.135  33.780  0.00  0.00     0.287 C 
ATOM      5  O   UNL d   1     -51.701  23.779  34.397  0.00  0.00    -0.265 OA
BRANCH   4   6
ATOM      6  C   UNL d   1     -52.908  23.925  33.645  0.00  0.00     0.087 A 
ATOM      7  S   UNL d   1     -53.276  23.188  33.531  0.00  0.00    -0.082 SA
ATOM      8  C   UNL d   1     -54.084  23.319  33.420  0.00  0.00     0.036 A 
ATOM      9  C   UNL d   1     -54.215  24.129  33.465  0.00  0.00     0.008 A 
ATOM     10  C   UNL d   1     -53.490  24.508  33.604  0.00  0.00     0.012 A 
ENDBRANCH   4   6
ENDBRANCH   1   3
BRANCH   1  11
ATOM     11  N   UNL d   1     -50.764  25.704  33.490  0.00  0.00    -0.281 N 
ATOM     12  C   UNL d   1     -51.334  26.296  33.386  0.00  0.00     0.082 A 
ATOM     13  C   UNL d   1     -51.125  27.085  33.434  0.00  0.00     0.019 A 
ATOM     14  C   UNL d   1     -50.338  27.300  33.588  0.00  0.00     0.003 A 
ATOM     15  C   UNL d   1     -49.774  26.706  33.691  0.00  0.00     0.019 A 
ATOM     16  C   UNL d   1     -50.117  28.102  33.639  0.00  0.00     0.000 C 
ATOM     17  C   UNL d   1     -49.985  25.913  33.643  0.00  0.00     0.082 A 
ENDBRANCH   1  11
TORSDOF 3
ENDMDL
