MODEL 1
REMARK VINA RESULT:      -2.7      0.000      0.000
REMARK  1 active torsions:
REMARK  status: ('A' for Active; 'I' for Inactive)
REMARK    1  A    between atoms: C_2  and  N_1 
ROOT
ATOM      1  C   UNL d   1      29.228  16.032 -23.618  0.00  0.00     0.127 A 
ATOM      2  C   UNL d   1      29.654  16.595 -24.050  0.00  0.00     0.025 A 
ATOM      3  C   UNL d   1      30.475  16.587 -24.042  0.00  0.00     0.021 A 
ATOM      4  N   UNL d   1      31.720  17.141 -24.465  0.00  0.00    -0.242 NA
ATOM      5  C   UNL d   1      30.878  16.019 -23.603  0.00  0.00     0.003 A 
ATOM      6  C   UNL d   1      29.640  15.463 -23.179  0.00  0.00     0.024 A 
ATOM      7  C   UNL d   1      30.461  15.455 -23.170  0.00  0.00     0.002 A 
ATOM      8  C   UNL d   1      30.898  17.148 -24.473  0.00  0.00     0.099 A 
ATOM      9  C   UNL d   1      32.122  16.572 -24.026  0.00  0.00     0.099 A 
ATOM     10  C   UNL d   1      31.709  16.003 -23.589  0.00  0.00     0.021 A 
ENDROOT
BRANCH   1  11
ATOM     11  N   UNL d   1      28.403  16.038 -23.624  0.00  0.00    -0.114 N 
ATOM     12  O   UNL d   1      27.992  15.453 -24.031  0.00  0.00    -0.532 OA
ATOM     13  O   UNL d   1      27.986  16.631 -23.224  0.00  0.00    -0.532 OA
ENDBRANCH   1  11
TORSDOF 1
ENDMDL
MODEL 2
REMARK VINA RESULT:      -2.7      1.884      3.021
REMARK  1 active torsions:
REMARK  status: ('A' for Active; 'I' for Inactive)
REMARK    1  A    between atoms: C_2  and  N_1 
ROOT
ATOM      1  C   UNL d   1      31.270  16.547 -23.872  0.00  0.00     0.127 A 
ATOM      2  C   UNL d   1      30.822  15.997 -23.446  0.00  0.00     0.025 A 
ATOM      3  C   UNL d   1      30.002  16.002 -23.498  0.00  0.00     0.021 A 
ATOM      4  N   UNL d   1      28.738  15.457 -23.124  0.00  0.00    -0.242 NA
ATOM      5  C   UNL d   1      29.623  16.555 -23.975  0.00  0.00     0.003 A 
ATOM      6  C   UNL d   1      30.880  17.100 -24.350  0.00  0.00     0.024 A 
ATOM      7  C   UNL d   1      30.062  17.105 -24.403  0.00  0.00     0.002 A 
ATOM      8  C   UNL d   1      29.558  15.453 -23.072  0.00  0.00     0.099 A 
ATOM      9  C   UNL d   1      28.359  16.010 -23.602  0.00  0.00     0.099 A 
ATOM     10  C   UNL d   1      28.794  16.567 -24.034  0.00  0.00     0.021 A 
ENDROOT
BRANCH   1  11
ATOM     11  N   UNL d   1      32.093  16.544 -23.821  0.00  0.00    -0.114 N 
ATOM     12  O   UNL d   1      32.534  16.090 -24.346  0.00  0.00    -0.532 OA
ATOM     13  O   UNL d   1      32.478  16.996 -23.244  0.00  0.00    -0.532 OA
ENDBRANCH   1  11
TORSDOF 1
ENDMDL
MODEL 3
REMARK VINA RESULT:      -2.6      6.101      6.760
REMARK  1 active torsions:
REMARK  status: ('A' for Active; 'I' for Inactive)
REMARK    1  A    between atoms: C_2  and  N_1 
ROOT
ATOM      1  C   UNL d   1      32.878  20.785 -21.734  0.00  0.00     0.127 A 
ATOM      2  C   UNL d   1      33.073  21.511 -22.081  0.00  0.00     0.025 A 
ATOM      3  C   UNL d   1      32.832  22.214 -21.731  0.00  0.00     0.021 A 
ATOM      4  N   UNL d   1      32.786  23.640 -21.728  0.00  0.00    -0.242 NA
ATOM      5  C   UNL d   1      32.395  22.199 -21.034  0.00  0.00     0.003 A 
ATOM      6  C   UNL d   1      32.438  20.779 -21.033  0.00  0.00     0.024 A 
ATOM      7  C   UNL d   1      32.197  21.481 -20.683  0.00  0.00     0.002 A 
ATOM      8  C   UNL d   1      33.027  22.937 -22.078  0.00  0.00     0.099 A 
ATOM      9  C   UNL d   1      32.349  23.624 -21.031  0.00  0.00     0.099 A 
ATOM     10  C   UNL d   1      32.147  22.906 -20.673  0.00  0.00     0.021 A 
ENDROOT
BRANCH   1  11
ATOM     11  N   UNL d   1      33.119  20.078 -22.084  0.00  0.00    -0.114 N 
ATOM     12  O   UNL d   1      33.240  19.411 -21.618  0.00  0.00    -0.532 OA
ATOM     13  O   UNL d   1      33.240  20.036 -22.902  0.00  0.00    -0.532 OA
ENDBRANCH   1  11
TORSDOF 1
ENDMDL
MODEL 4
REMARK VINA RESULT:      -2.4      1.215      1.852
REMARK  1 active torsions:
REMARK  status: ('A' for Active; 'I' for Inactive)
REMARK    1  A    between atoms: C_2  and  N_1 
ROOT
ATOM      1  C   UNL d   1      30.470  16.437 -23.976  0.00  0.00     0.127 A 
ATOM      2  C   UNL d   1      31.179  16.243 -23.595  0.00  0.00     0.025 A 
ATOM      3  C   UNL d   1      31.809  16.769 -23.600  0.00  0.00     0.021 A 
ATOM      4  N   UNL d   1      33.144  17.101 -23.225  0.00  0.00    -0.242 NA
ATOM      5  C   UNL d   1      31.737  17.493 -23.986  0.00  0.00     0.003 A 
ATOM      6  C   UNL d   1      30.406  17.167 -24.362  0.00  0.00     0.024 A 
ATOM      7  C   UNL d   1      31.036  17.693 -24.368  0.00  0.00     0.002 A 
ATOM      8  C   UNL d   1      32.514  16.574 -23.220  0.00  0.00     0.099 A 
ATOM      9  C   UNL d   1      33.073  17.825 -23.611  0.00  0.00     0.099 A 
ATOM     10  C   UNL d   1      32.370  18.032 -23.996  0.00  0.00     0.021 A 
ENDROOT
BRANCH   1  11
ATOM     11  N   UNL d   1      29.836  15.909 -23.972  0.00  0.00    -0.114 N 
ATOM     12  O   UNL d   1      29.677  15.453 -24.638  0.00  0.00    -0.532 OA
ATOM     13  O   UNL d   1      29.357  15.836 -23.300  0.00  0.00    -0.532 OA
ENDBRANCH   1  11
TORSDOF 1
ENDMDL
MODEL 5
REMARK VINA RESULT:      -2.2      2.661      3.504
REMARK  1 active torsions:
REMARK  status: ('A' for Active; 'I' for Inactive)
REMARK    1  A    between atoms: C_2  and  N_1 
ROOT
ATOM      1  C   UNL d   1      32.324  18.179 -23.701  0.00  0.00     0.127 A 
ATOM      2  C   UNL d   1      32.392  17.434 -23.347  0.00  0.00     0.025 A 
ATOM      3  C   UNL d   1      31.913  16.814 -23.593  0.00  0.00     0.021 A 
ATOM      4  N   UNL d   1      31.502  15.453 -23.486  0.00  0.00    -0.242 NA
ATOM      5  C   UNL d   1      31.362  16.932 -24.194  0.00  0.00     0.003 A 
ATOM      6  C   UNL d   1      31.768  18.290 -24.304  0.00  0.00     0.024 A 
ATOM      7  C   UNL d   1      31.288  17.671 -24.551  0.00  0.00     0.002 A 
ATOM      8  C   UNL d   1      31.982  16.072 -23.240  0.00  0.00     0.099 A 
ATOM      9  C   UNL d   1      30.952  15.571 -24.086  0.00  0.00     0.099 A 
ATOM     10  C   UNL d   1      30.873  16.311 -24.449  0.00  0.00     0.021 A 
ENDROOT
BRANCH   1  11
ATOM     11  N   UNL d   1      32.805  18.803 -23.455  0.00  0.00    -0.114 N 
ATOM     12  O   UNL d   1      32.865  18.983 -22.654  0.00  0.00    -0.532 OA
ATOM     13  O   UNL d   1      33.227  19.249 -24.010  0.00  0.00    -0.532 OA
ENDBRANCH   1  11
TORSDOF 1
ENDMDL
MODEL 6
REMARK VINA RESULT:      -2.2      6.690      7.428
REMARK  1 active torsions:
REMARK  status: ('A' for Active; 'I' for Inactive)
REMARK    1  A    between atoms: C_2  and  N_1 
ROOT
ATOM      1  C   UNL d   1      32.847  22.588 -20.072  0.00  0.00     0.127 A 
ATOM      2  C   UNL d   1      33.005  21.775 -20.063  0.00  0.00     0.025 A 
ATOM      3  C   UNL d   1      33.038  21.353 -20.767  0.00  0.00     0.021 A 
ATOM      4  N   UNL d   1      33.229  20.122 -21.460  0.00  0.00    -0.242 NA
ATOM      5  C   UNL d   1      32.914  21.738 -21.484  0.00  0.00     0.003 A 
ATOM      6  C   UNL d   1      32.724  22.967 -20.798  0.00  0.00     0.024 A 
ATOM      7  C   UNL d   1      32.757  22.546 -21.501  0.00  0.00     0.002 A 
ATOM      8  C   UNL d   1      33.195  20.544 -20.756  0.00  0.00     0.099 A 
ATOM      9  C   UNL d   1      33.105  20.506 -22.177  0.00  0.00     0.099 A 
ATOM     10  C   UNL d   1      32.946  21.318 -22.201  0.00  0.00     0.021 A 
ENDROOT
BRANCH   1  11
ATOM     11  N   UNL d   1      32.814  23.014 -19.366  0.00  0.00    -0.114 N 
ATOM     12  O   UNL d   1      32.355  23.695 -19.320  0.00  0.00    -0.532 OA
ATOM     13  O   UNL d   1      33.240  22.759 -18.703  0.00  0.00    -0.532 OA
ENDBRANCH   1  11
TORSDOF 1
ENDMDL
MODEL 7
REMARK VINA RESULT:      -2.1      2.635      3.565
REMARK  1 active torsions:
REMARK  status: ('A' for Active; 'I' for Inactive)
REMARK    1  A    between atoms: C_2  and  N_1 
ROOT
ATOM      1  C   UNL d   1      32.290  17.155 -23.967  0.00  0.00     0.127 A 
ATOM      2  C   UNL d   1      32.485  17.564 -23.274  0.00  0.00     0.025 A 
ATOM      3  C   UNL d   1      32.737  18.345 -23.312  0.00  0.00     0.021 A 
ATOM      4  N   UNL d   1      33.182  19.532 -22.659  0.00  0.00    -0.242 NA
ATOM      5  C   UNL d   1      32.795  18.724 -24.040  0.00  0.00     0.003 A 
ATOM      6  C   UNL d   1      32.352  17.543 -24.696  0.00  0.00     0.024 A 
ATOM      7  C   UNL d   1      32.603  18.323 -24.734  0.00  0.00     0.002 A 
ATOM      8  C   UNL d   1      32.930  18.751 -22.621  0.00  0.00     0.099 A 
ATOM      9  C   UNL d   1      33.240  19.911 -23.387  0.00  0.00     0.099 A 
ATOM     10  C   UNL d   1      33.049  19.514 -24.088  0.00  0.00     0.021 A 
ENDROOT
BRANCH   1  11
ATOM     11  N   UNL d   1      32.038  16.370 -23.931  0.00  0.00    -0.114 N 
ATOM     12  O   UNL d   1      31.273  16.197 -23.682  0.00  0.00    -0.532 OA
ATOM     13  O   UNL d   1      32.550  15.755 -24.143  0.00  0.00    -0.532 OA
ENDBRANCH   1  11
TORSDOF 1
ENDMDL
MODEL 8
REMARK VINA RESULT:      -2.0      7.451      8.079
REMARK  1 active torsions:
REMARK  status: ('A' for Active; 'I' for Inactive)
REMARK    1  A    between atoms: C_2  and  N_1 
ROOT
ATOM      1  C   UNL d   1      32.696  22.938 -21.687  0.00  0.00     0.127 A 
ATOM      2  C   UNL d   1      32.928  23.453 -21.081  0.00  0.00     0.025 A 
ATOM      3  C   UNL d   1      32.967  23.186 -20.305  0.00  0.00     0.021 A 
ATOM      4  N   UNL d   1      33.236  23.434 -18.927  0.00  0.00    -0.242 NA
ATOM      5  C   UNL d   1      32.774  22.406 -20.128  0.00  0.00     0.003 A 
ATOM      6  C   UNL d   1      32.505  22.155 -21.500  0.00  0.00     0.024 A 
ATOM      7  C   UNL d   1      32.543  21.888 -20.725  0.00  0.00     0.002 A 
ATOM      8  C   UNL d   1      33.198  23.700 -19.703  0.00  0.00     0.099 A 
ATOM      9  C   UNL d   1      33.044  22.653 -18.749  0.00  0.00     0.099 A 
ATOM     10  C   UNL d   1      32.810  22.128 -19.345  0.00  0.00     0.021 A 
ENDROOT
BRANCH   1  11
ATOM     11  N   UNL d   1      32.657  23.204 -22.467  0.00  0.00    -0.114 N 
ATOM     12  O   UNL d   1      32.043  23.699 -22.701  0.00  0.00    -0.532 OA
ATOM     13  O   UNL d   1      33.233  22.975 -23.017  0.00  0.00    -0.532 OA
ENDBRANCH   1  11
TORSDOF 1
ENDMDL
MODEL 9
REMARK VINA RESULT:      -1.9      6.424      7.072
REMARK  1 active torsions:
REMARK  status: ('A' for Active; 'I' for Inactive)
REMARK    1  A    between atoms: C_2  and  N_1 
ROOT
ATOM      1  C   UNL d   1      32.481  22.072 -21.277  0.00  0.00     0.127 A 
ATOM      2  C   UNL d   1      32.467  22.802 -21.668  0.00  0.00     0.025 A 
ATOM      3  C   UNL d   1      32.718  22.857 -22.448  0.00  0.00     0.021 A 
ATOM      4  N   UNL d   1      32.955  23.641 -23.616  0.00  0.00    -0.242 NA
ATOM      5  C   UNL d   1      32.985  22.187 -22.844  0.00  0.00     0.003 A 
ATOM      6  C   UNL d   1      32.750  21.402 -21.683  0.00  0.00     0.024 A 
ATOM      7  C   UNL d   1      33.002  21.457 -22.462  0.00  0.00     0.002 A 
ATOM      8  C   UNL d   1      32.704  23.585 -22.836  0.00  0.00     0.099 A 
ATOM      9  C   UNL d   1      33.222  22.971 -24.012  0.00  0.00     0.099 A 
ATOM     10  C   UNL d   1      33.241  22.234 -23.634  0.00  0.00     0.021 A 
ENDROOT
BRANCH   1  11
ATOM     11  N   UNL d   1      32.229  22.014 -20.494  0.00  0.00    -0.114 N 
ATOM     12  O   UNL d   1      31.583  21.540 -20.305  0.00  0.00    -0.532 OA
ATOM     13  O   UNL d   1      32.623  22.430 -19.896  0.00  0.00    -0.532 OA
ENDBRANCH   1  11
TORSDOF 1
ENDMDL
