MODEL 1
REMARK VINA RESULT:       2.8      0.000      0.000
REMARK  4 active torsions:
REMARK  status: ('A' for Active; 'I' for Inactive)
REMARK       I    between atoms: C_2  and  N_1 
REMARK    1  A    between atoms: C_6  and  C_2 
REMARK       I    between atoms: C_4  and  N_7 
REMARK    2  A    between atoms: C_5  and  C_4 
REMARK       I    between atoms: N_10  and  C_5 
REMARK    3  A    between atoms: N_7  and  C_13 
REMARK    4  A    between atoms: C_19  and  N_10 
ROOT
ATOM      1  N   UNL d   1     -41.701-122.299 -53.960  0.00  0.00    -0.273 N 
ATOM      2  C   UNL d   1     -41.875-123.115 -54.012  0.00  0.00     0.265 C 
ATOM      3  C   UNL d   1     -41.550-121.949 -53.234  0.00  0.00     0.068 A 
ATOM      4  C   UNL d   1     -41.570-122.403 -52.545  0.00  0.00     0.037 A 
ATOM      5  C   UNL d   1     -41.380-121.146 -53.191  0.00  0.00     0.016 A 
ATOM      6  C   UNL d   1     -41.419-122.050 -51.814  0.00  0.00     0.086 A 
ATOM      7  O   UNL d   1     -41.894-123.566 -53.325  0.00  0.00    -0.267 OA
ATOM      8  C   UNL d   1     -41.229-120.793 -52.461  0.00  0.00     0.003 A 
ATOM      9  C   UNL d   1     -41.681-121.849 -54.648  0.00  0.00     0.083 A 
ATOM     10  C   UNL d   1     -41.248-121.244 -51.774  0.00  0.00     0.019 A 
ATOM     11  C   UNL d   1     -41.510-121.043 -54.607  0.00  0.00     0.019 A 
ATOM     12  C   UNL d   1     -41.360-120.692 -53.881  0.00  0.00     0.003 A 
ENDROOT
BRANCH   6  13
ATOM     13  N   UNL d   1     -41.440-122.508 -51.124  0.00  0.00    -0.204 NA
ATOM     14  C   UNL d   1     -42.020-122.365 -50.555  0.00  0.00     0.337 C 
ATOM     15  O   UNL d   1     -42.578-121.768 -50.674  0.00  0.00    -0.260 OA
BRANCH  14  16
ATOM     16  C   UNL d   1     -42.044-122.817 -49.868  0.00  0.00     0.337 C 
ATOM     17  N   UNL d   1     -42.024-122.450 -49.130  0.00  0.00    -0.204 NA
ATOM     18  O   UNL d   1     -42.089-123.640 -49.919  0.00  0.00    -0.260 OA
BRANCH  17  19
ATOM     19  C   UNL d   1     -42.049-122.905 -48.442  0.00  0.00     0.085 A 
ATOM     20  C   UNL d   1     -41.390-122.949 -47.960  0.00  0.00     0.019 A 
ATOM     21  C   UNL d   1     -41.411-123.408 -47.265  0.00  0.00     0.002 A 
ATOM     22  C   UNL d   1     -42.099-123.817 -47.066  0.00  0.00     0.000 A 
ATOM     23  C   UNL d   1     -42.767-123.767 -47.563  0.00  0.00     0.002 A 
ATOM     24  C   UNL d   1     -42.737-123.314 -48.243  0.00  0.00     0.019 A 
ENDBRANCH  17  19
ENDBRANCH  14  16
ENDBRANCH   6  13
BRANCH   2  25
ATOM     25  C   UNL d   1     -42.025-123.464 -54.744  0.00  0.00     0.057 A 
ATOM     26  C   UNL d   1     -42.179-123.814 -55.475  0.00  0.00     0.005 A 
ATOM     27  C   UNL d   1     -42.759-123.814 -54.888  0.00  0.00     0.005 A 
ENDBRANCH   2  25
TORSDOF 4
ENDMDL
MODEL 2
REMARK VINA RESULT:       3.3      1.321      5.326
REMARK  4 active torsions:
REMARK  status: ('A' for Active; 'I' for Inactive)
REMARK       I    between atoms: C_2  and  N_1 
REMARK    1  A    between atoms: C_6  and  C_2 
REMARK       I    between atoms: C_4  and  N_7 
REMARK    2  A    between atoms: C_5  and  C_4 
REMARK       I    between atoms: N_10  and  C_5 
REMARK    3  A    between atoms: N_7  and  C_13 
REMARK    4  A    between atoms: C_19  and  N_10 
ROOT
ATOM      1  N   UNL d   1     -43.131-123.102 -49.304  0.00  0.00    -0.273 N 
ATOM      2  C   UNL d   1     -43.879-123.176 -49.669  0.00  0.00     0.265 C 
ATOM      3  C   UNL d   1     -42.495-122.785 -49.713  0.00  0.00     0.068 A 
ATOM      4  C   UNL d   1     -42.591-122.534 -50.494  0.00  0.00     0.037 A 
ATOM      5  C   UNL d   1     -41.762-122.715 -49.348  0.00  0.00     0.016 A 
ATOM      6  C   UNL d   1     -41.951-122.214 -50.906  0.00  0.00     0.086 A 
ATOM      7  O   UNL d   1     -43.973-122.926 -50.447  0.00  0.00    -0.267 OA
ATOM      8  C   UNL d   1     -41.123-122.395 -49.760  0.00  0.00     0.003 A 
ATOM      9  C   UNL d   1     -43.038-123.353 -48.526  0.00  0.00     0.083 A 
ATOM     10  C   UNL d   1     -41.217-122.145 -50.537  0.00  0.00     0.019 A 
ATOM     11  C   UNL d   1     -42.302-123.283 -48.158  0.00  0.00     0.019 A 
ATOM     12  C   UNL d   1     -41.667-122.965 -48.567  0.00  0.00     0.003 A 
ENDROOT
BRANCH   6  13
ATOM     13  N   UNL d   1     -42.050-121.963 -51.689  0.00  0.00    -0.204 NA
ATOM     14  C   UNL d   1     -41.636-122.339 -52.296  0.00  0.00     0.337 C 
ATOM     15  O   UNL d   1     -41.125-122.964 -52.121  0.00  0.00    -0.260 OA
BRANCH  14  16
ATOM     16  C   UNL d   1     -41.730-122.094 -53.075  0.00  0.00     0.337 C 
ATOM     17  N   UNL d   1     -41.837-122.650 -53.675  0.00  0.00    -0.204 NA
ATOM     18  O   UNL d   1     -41.718-121.288 -53.256  0.00  0.00    -0.260 OA
BRANCH  17  19
ATOM     19  C   UNL d   1     -41.932-122.401 -54.455  0.00  0.00     0.085 A 
ATOM     20  C   UNL d   1     -41.276-122.195 -54.898  0.00  0.00     0.019 A 
ATOM     21  C   UNL d   1     -41.367-121.943 -55.687  0.00  0.00     0.002 A 
ATOM     22  C   UNL d   1     -42.122-121.902 -56.018  0.00  0.00     0.000 A 
ATOM     23  C   UNL d   1     -42.786-122.114 -55.560  0.00  0.00     0.002 A 
ATOM     24  C   UNL d   1     -42.686-122.360 -54.786  0.00  0.00     0.019 A 
ENDBRANCH  17  19
ENDBRANCH  14  16
ENDBRANCH   6  13
BRANCH   2  25
ATOM     25  C   UNL d   1     -44.516-123.497 -49.254  0.00  0.00     0.057 A 
ATOM     26  C   UNL d   1     -45.155-123.817 -48.843  0.00  0.00     0.005 A 
ATOM     27  C   UNL d   1     -45.227-123.646 -49.647  0.00  0.00     0.005 A 
ENDBRANCH   2  25
TORSDOF 4
ENDMDL
MODEL 3
REMARK VINA RESULT:       5.5      1.417      5.360
REMARK  4 active torsions:
REMARK  status: ('A' for Active; 'I' for Inactive)
REMARK       I    between atoms: C_2  and  N_1 
REMARK    1  A    between atoms: C_6  and  C_2 
REMARK       I    between atoms: C_4  and  N_7 
REMARK    2  A    between atoms: C_5  and  C_4 
REMARK       I    between atoms: N_10  and  C_5 
REMARK    3  A    between atoms: N_7  and  C_13 
REMARK    4  A    between atoms: C_19  and  N_10 
ROOT
ATOM      1  N   UNL d   1     -42.931-122.749 -49.673  0.00  0.00    -0.273 N 
ATOM      2  C   UNL d   1     -43.581-122.356 -50.023  0.00  0.00     0.265 C 
ATOM      3  C   UNL d   1     -42.348-123.089 -50.138  0.00  0.00     0.068 A 
ATOM      4  C   UNL d   1     -42.399-123.046 -50.961  0.00  0.00     0.037 A 
ATOM      5  C   UNL d   1     -41.712-123.474 -49.787  0.00  0.00     0.016 A 
ATOM      6  C   UNL d   1     -41.813-123.389 -51.429  0.00  0.00     0.086 A 
ATOM      7  O   UNL d   1     -43.630-122.314 -50.842  0.00  0.00    -0.267 OA
ATOM      8  C   UNL d   1     -41.125-123.817 -50.255  0.00  0.00     0.003 A 
ATOM      9  C   UNL d   1     -42.882-122.791 -48.853  0.00  0.00     0.083 A 
ATOM     10  C   UNL d   1     -41.175-123.774 -51.074  0.00  0.00     0.019 A 
ATOM     11  C   UNL d   1     -42.244-123.177 -48.499  0.00  0.00     0.019 A 
ATOM     12  C   UNL d   1     -41.661-123.517 -48.964  0.00  0.00     0.003 A 
ENDROOT
BRANCH   6  13
ATOM     13  N   UNL d   1     -41.866-123.344 -52.255  0.00  0.00    -0.204 NA
ATOM     14  C   UNL d   1     -41.521-122.711 -52.655  0.00  0.00     0.337 C 
ATOM     15  O   UNL d   1     -41.123-122.123 -52.232  0.00  0.00    -0.260 OA
BRANCH  14  16
ATOM     16  C   UNL d   1     -41.571-122.662 -53.474  0.00  0.00     0.337 C 
ATOM     17  N   UNL d   1     -42.038-122.080 -53.827  0.00  0.00    -0.204 NA
ATOM     18  O   UNL d   1     -41.154-123.198 -53.944  0.00  0.00    -0.260 OA
BRANCH  17  19
ATOM     19  C   UNL d   1     -42.087-122.034 -54.649  0.00  0.00     0.085 A 
ATOM     20  C   UNL d   1     -41.411-121.903 -55.089  0.00  0.00     0.019 A 
ATOM     21  C   UNL d   1     -41.456-121.856 -55.920  0.00  0.00     0.002 A 
ATOM     22  C   UNL d   1     -42.186-121.941 -56.295  0.00  0.00     0.000 A 
ATOM     23  C   UNL d   1     -42.871-122.075 -55.839  0.00  0.00     0.002 A 
ATOM     24  C   UNL d   1     -42.817-122.120 -55.024  0.00  0.00     0.019 A 
ENDBRANCH  17  19
ENDBRANCH  14  16
ENDBRANCH   6  13
BRANCH   2  25
ATOM     25  C   UNL d   1     -44.165-122.015 -49.551  0.00  0.00     0.057 A 
ATOM     26  C   UNL d   1     -44.752-121.673 -49.083  0.00  0.00     0.005 A 
ATOM     27  C   UNL d   1     -44.846-121.706 -49.902  0.00  0.00     0.005 A 
ENDBRANCH   2  25
TORSDOF 4
ENDMDL
