MODEL 1
REMARK VINA RESULT:      13.5      0.000      0.000
REMARK  1 active torsions:
REMARK  status: ('A' for Active; 'I' for Inactive)
REMARK    1  A    between atoms: C_11  and  C_9 
ROOT
ATOM      1  C   UNL d   1      60.086  49.697  51.057  0.00  0.00     0.215 A 
ATOM      2  N   UNL d   1      59.900  49.697  50.258  0.00  0.00    -0.219 NA
ATOM      3  S   UNL d   1      59.388  49.698  51.486  0.00  0.00    -0.045 SA
ATOM      4  C   UNL d   1      58.759  49.699  50.945  0.00  0.00     0.050 A 
ATOM      5  C   UNL d   1      59.075  49.698  50.188  0.00  0.00     0.090 A 
ATOM      6  C   UNL d   1      57.941  49.700  51.055  0.00  0.00     0.008 A 
ATOM      7  N   UNL d   1      60.852  49.695  51.376  0.00  0.00    -0.120 N 
ATOM      8  C   UNL d   1      58.579  49.699  49.528  0.00  0.00     0.020 A 
ATOM      9  C   UNL d   1      57.460  49.701  50.403  0.00  0.00     0.001 A 
ATOM     10  C   UNL d   1      57.777  49.700  49.641  0.00  0.00     0.002 A 
ENDROOT
BRANCH   9  11
ATOM     11  C   UNL d   1      56.639  49.702  50.507  0.00  0.00     0.000 C 
ATOM     12  C   UNL d   1      56.145  49.634  49.856  0.00  0.00     0.000 C 
ENDBRANCH   9  11
TORSDOF 1
ENDMDL
MODEL 2
REMARK VINA RESULT:      14.2      1.625      2.996
REMARK  1 active torsions:
REMARK  status: ('A' for Active; 'I' for Inactive)
REMARK    1  A    between atoms: C_11  and  C_9 
ROOT
ATOM      1  C   UNL d   1      56.946  49.703  50.221  0.00  0.00     0.215 A 
ATOM      2  N   UNL d   1      57.189  49.704  51.004  0.00  0.00    -0.219 NA
ATOM      3  S   UNL d   1      57.611  49.704  49.743  0.00  0.00    -0.045 SA
ATOM      4  C   UNL d   1      58.278  49.705  50.237  0.00  0.00     0.050 A 
ATOM      5  C   UNL d   1      58.017  49.705  51.014  0.00  0.00     0.090 A 
ATOM      6  C   UNL d   1      59.085  49.706  50.068  0.00  0.00     0.008 A 
ATOM      7  N   UNL d   1      56.159  49.702  49.958  0.00  0.00    -0.120 N 
ATOM      8  C   UNL d   1      58.559  49.706  51.637  0.00  0.00     0.020 A 
ATOM      9  C   UNL d   1      59.613  49.707  50.684  0.00  0.00     0.001 A 
ATOM     10  C   UNL d   1      59.351  49.707  51.466  0.00  0.00     0.002 A 
ENDROOT
BRANCH   9  11
ATOM     11  C   UNL d   1      60.423  49.708  50.521  0.00  0.00     0.000 C 
ATOM     12  C   UNL d   1      60.964  49.682  51.137  0.00  0.00     0.000 C 
ENDBRANCH   9  11
TORSDOF 1
ENDMDL
MODEL 3
REMARK VINA RESULT:      14.5      1.484      2.803
REMARK  1 active torsions:
REMARK  status: ('A' for Active; 'I' for Inactive)
REMARK    1  A    between atoms: C_11  and  C_9 
ROOT
ATOM      1  C   UNL d   1      57.044  49.697  50.187  0.00  0.00     0.215 A 
ATOM      2  N   UNL d   1      57.648  49.700  49.633  0.00  0.00    -0.219 NA
ATOM      3  S   UNL d   1      57.379  49.697  50.935  0.00  0.00    -0.045 SA
ATOM      4  C   UNL d   1      58.204  49.701  50.843  0.00  0.00     0.050 A 
ATOM      5  C   UNL d   1      58.369  49.703  50.040  0.00  0.00     0.090 A 
ATOM      6  C   UNL d   1      58.817  49.702  51.395  0.00  0.00     0.008 A 
ATOM      7  N   UNL d   1      56.231  49.694  50.020  0.00  0.00    -0.120 N 
ATOM      8  C   UNL d   1      59.151  49.706  49.774  0.00  0.00     0.020 A 
ATOM      9  C   UNL d   1      59.583  49.706  51.127  0.00  0.00     0.001 A 
ATOM     10  C   UNL d   1      59.749  49.708  50.319  0.00  0.00     0.002 A 
ENDROOT
BRANCH   9  11
ATOM     11  C   UNL d   1      60.202  49.708  51.675  0.00  0.00     0.000 C 
ATOM     12  C   UNL d   1      60.964  49.531  51.431  0.00  0.00     0.000 C 
ENDBRANCH   9  11
TORSDOF 1
ENDMDL
