MODEL 1
REMARK VINA RESULT:     -10.1      0.000      0.000
REMARK  5 active torsions:
REMARK  status: ('A' for Active; 'I' for Inactive)
REMARK    1  A    between atoms: C_6  and  C_1 
REMARK    2  A    between atoms: C_14  and  N_3 
REMARK    3  A    between atoms: O_9  and  C_6 
REMARK    4  A    between atoms: C_15  and  O_9 
REMARK    5  A    between atoms: C_16  and  C_14 
ROOT
ATOM      1  C   UNL d   1      52.561  33.556  53.448  0.00  0.00     0.120 A 
ATOM      2  C   UNL d   1      53.019  33.947  54.014  0.00  0.00     0.177 A 
ATOM      3  N   UNL d   1      53.509  33.387  54.369  0.00  0.00    -0.273 N 
ATOM      4  C   UNL d   1      53.358  32.654  54.027  0.00  0.00     0.167 A 
ATOM      5  C   UNL d   1      52.773  32.760  53.460  0.00  0.00     0.124 A 
ATOM      6  N   UNL d   1      53.679  31.912  54.163  0.00  0.00    -0.225 NA
ATOM      7  N   UNL d   1      52.509  32.116  53.026  0.00  0.00    -0.241 NA
ATOM      8  C   UNL d   1      53.414  31.268  53.729  0.00  0.00     0.101 A 
ATOM      9  C   UNL d   1      52.828  31.367  53.159  0.00  0.00     0.099 A 
ATOM     10  N   UNL d   1      52.996  34.752  54.197  0.00  0.00    -0.128 N 
ATOM     11  C   UNL d   1      53.736  30.527  53.866  0.00  0.00     0.021 A 
ATOM     12  C   UNL d   1      52.566  30.722  52.727  0.00  0.00     0.021 A 
ATOM     13  C   UNL d   1      53.468  29.873  53.426  0.00  0.00     0.002 A 
ATOM     14  C   UNL d   1      52.887  29.980  52.863  0.00  0.00     0.002 A 
ENDROOT
BRANCH   1  15
ATOM     15  C   UNL d   1      51.993  33.910  52.963  0.00  0.00     0.300 C 
ATOM     16  O   UNL d   1      52.229  34.453  52.391  0.00  0.00    -0.259 OA
BRANCH  15  17
ATOM     17  O   UNL d   1      51.192  33.722  53.048  0.00  0.00    -0.303 OA
BRANCH  17  18
ATOM     18  C   UNL d   1      50.630  34.174  52.667  0.00  0.00     0.102 C 
ATOM     19  C   UNL d   1      50.946  33.968  51.932  0.00  0.00     0.030 C 
ATOM     20  C   UNL d   1      50.306  34.386  53.398  0.00  0.00     0.030 C 
ATOM     21  C   UNL d   1      50.048  34.641  52.283  0.00  0.00     0.030 C 
ENDBRANCH  17  18
ENDBRANCH  15  17
ENDBRANCH   1  15
BRANCH   3  22
ATOM     22  C   UNL d   1      54.058  33.532  54.964  0.00  0.00     0.083 C 
BRANCH  22  23
ATOM     23  C   UNL d   1      54.808  33.815  54.764  0.00  0.00     0.019 C 
ATOM     24  C   UNL d   1      55.378  33.915  55.356  0.00  0.00     0.002 C 
ENDBRANCH  22  23
ENDBRANCH   3  22
TORSDOF 5
ENDMDL
MODEL 2
REMARK VINA RESULT:      -9.1      1.080      3.156
REMARK  5 active torsions:
REMARK  status: ('A' for Active; 'I' for Inactive)
REMARK    1  A    between atoms: C_6  and  C_1 
REMARK    2  A    between atoms: C_14  and  N_3 
REMARK    3  A    between atoms: O_9  and  C_6 
REMARK    4  A    between atoms: C_15  and  O_9 
REMARK    5  A    between atoms: C_16  and  C_14 
ROOT
ATOM      1  C   UNL d   1      53.300  33.314  53.966  0.00  0.00     0.120 A 
ATOM      2  C   UNL d   1      52.825  33.806  53.503  0.00  0.00     0.177 A 
ATOM      3  N   UNL d   1      52.410  33.328  52.975  0.00  0.00    -0.273 N 
ATOM      4  C   UNL d   1      52.625  32.545  53.108  0.00  0.00     0.167 A 
ATOM      5  C   UNL d   1      53.174  32.538  53.719  0.00  0.00     0.124 A 
ATOM      6  N   UNL d   1      52.390  31.846  52.749  0.00  0.00    -0.225 NA
ATOM      7  N   UNL d   1      53.489  31.824  53.973  0.00  0.00    -0.241 NA
ATOM      8  C   UNL d   1      52.705  31.132  53.004  0.00  0.00     0.101 A 
ATOM      9  C   UNL d   1      53.255  31.118  53.616  0.00  0.00     0.099 A 
ATOM     10  N   UNL d   1      52.770  34.629  53.554  0.00  0.00    -0.128 N 
ATOM     11  C   UNL d   1      52.469  30.435  52.645  0.00  0.00     0.021 A 
ATOM     12  C   UNL d   1      53.568  30.403  53.867  0.00  0.00     0.021 A 
ATOM     13  C   UNL d   1      52.787  29.709  52.901  0.00  0.00     0.002 A 
ATOM     14  C   UNL d   1      53.332  29.705  53.509  0.00  0.00     0.002 A 
ENDROOT
BRANCH   1  15
ATOM     15  C   UNL d   1      53.808  33.566  54.568  0.00  0.00     0.300 C 
ATOM     16  O   UNL d   1      53.505  33.987  55.206  0.00  0.00    -0.259 OA
BRANCH  15  17
ATOM     17  O   UNL d   1      54.618  33.397  54.531  0.00  0.00    -0.303 OA
BRANCH  17  18
ATOM     18  C   UNL d   1      55.126  33.748  55.062  0.00  0.00     0.102 C 
ATOM     19  C   UNL d   1      54.722  33.406  55.696  0.00  0.00     0.030 C 
ATOM     20  C   UNL d   1      55.539  34.097  54.435  0.00  0.00     0.030 C 
ATOM     21  C   UNL d   1      55.654  34.115  55.602  0.00  0.00     0.030 C 
ENDBRANCH  17  18
ENDBRANCH  15  17
ENDBRANCH   1  15
BRANCH   3  22
ATOM     22  C   UNL d   1      51.872  33.586  52.409  0.00  0.00     0.083 C 
BRANCH  22  23
ATOM     23  C   UNL d   1      51.176  33.959  52.651  0.00  0.00     0.019 C 
ATOM     24  C   UNL d   1      50.601  34.155  52.089  0.00  0.00     0.002 C 
ENDBRANCH  22  23
ENDBRANCH   3  22
TORSDOF 5
ENDMDL
MODEL 3
REMARK VINA RESULT:      -9.0      1.220      3.419
REMARK  5 active torsions:
REMARK  status: ('A' for Active; 'I' for Inactive)
REMARK    1  A    between atoms: C_6  and  C_1 
REMARK    2  A    between atoms: C_14  and  N_3 
REMARK    3  A    between atoms: O_9  and  C_6 
REMARK    4  A    between atoms: C_15  and  O_9 
REMARK    5  A    between atoms: C_16  and  C_14 
ROOT
ATOM      1  C   UNL d   1      53.252  32.006  53.375  0.00  0.00     0.120 A 
ATOM      2  C   UNL d   1      53.957  32.300  53.689  0.00  0.00     0.177 A 
ATOM      3  N   UNL d   1      53.853  33.106  53.829  0.00  0.00    -0.273 N 
ATOM      4  C   UNL d   1      53.089  33.313  53.602  0.00  0.00     0.167 A 
ATOM      5  C   UNL d   1      52.720  32.634  53.323  0.00  0.00     0.124 A 
ATOM      6  N   UNL d   1      52.692  34.030  53.617  0.00  0.00    -0.225 NA
ATOM      7  N   UNL d   1      51.945  32.676  53.056  0.00  0.00    -0.241 NA
ATOM      8  C   UNL d   1      51.917  34.070  53.350  0.00  0.00     0.101 A 
ATOM      9  C   UNL d   1      51.540  33.394  53.069  0.00  0.00     0.099 A 
ATOM     10  N   UNL d   1      54.646  31.870  53.841  0.00  0.00    -0.128 N 
ATOM     11  C   UNL d   1      51.520  34.787  53.366  0.00  0.00     0.021 A 
ATOM     12  C   UNL d   1      50.767  33.439  52.803  0.00  0.00     0.021 A 
ATOM     13  C   UNL d   1      50.734  34.830  53.096  0.00  0.00     0.002 A 
ATOM     14  C   UNL d   1      50.369  34.155  52.818  0.00  0.00     0.002 A 
ENDROOT
BRANCH   1  15
ATOM     15  C   UNL d   1      53.114  31.222  53.154  0.00  0.00     0.300 C 
ATOM     16  O   UNL d   1      53.169  31.007  52.363  0.00  0.00    -0.259 OA
BRANCH  15  17
ATOM     17  O   UNL d   1      52.923  30.653  53.725  0.00  0.00    -0.303 OA
BRANCH  17  18
ATOM     18  C   UNL d   1      52.807  29.880  53.498  0.00  0.00     0.102 C 
ATOM     19  C   UNL d   1      52.009  30.031  53.341  0.00  0.00     0.030 C 
ATOM     20  C   UNL d   1      53.603  29.715  53.651  0.00  0.00     0.030 C 
ATOM     21  C   UNL d   1      52.696  29.080  53.265  0.00  0.00     0.030 C 
ENDBRANCH  17  18
ENDBRANCH  15  17
ENDBRANCH   1  15
BRANCH   3  22
ATOM     22  C   UNL d   1      54.414  33.620  54.141  0.00  0.00     0.083 C 
BRANCH  22  23
ATOM     23  C   UNL d   1      54.672  33.515  54.918  0.00  0.00     0.019 C 
ATOM     24  C   UNL d   1      55.248  34.023  55.229  0.00  0.00     0.002 C 
ENDBRANCH  22  23
ENDBRANCH   3  22
TORSDOF 5
ENDMDL
MODEL 4
REMARK VINA RESULT:      -8.9      0.648      2.812
REMARK  5 active torsions:
REMARK  status: ('A' for Active; 'I' for Inactive)
REMARK    1  A    between atoms: C_6  and  C_1 
REMARK    2  A    between atoms: C_14  and  N_3 
REMARK    3  A    between atoms: O_9  and  C_6 
REMARK    4  A    between atoms: C_15  and  O_9 
REMARK    5  A    between atoms: C_16  and  C_14 
ROOT
ATOM      1  C   UNL d   1      52.166  32.780  53.332  0.00  0.00     0.120 A 
ATOM      2  C   UNL d   1      52.295  32.015  53.051  0.00  0.00     0.177 A 
ATOM      3  N   UNL d   1      53.042  31.776  53.308  0.00  0.00    -0.273 N 
ATOM      4  C   UNL d   1      53.375  32.389  53.745  0.00  0.00     0.167 A 
ATOM      5  C   UNL d   1      52.834  33.007  53.759  0.00  0.00     0.124 A 
ATOM      6  N   UNL d   1      54.097  32.456  54.128  0.00  0.00    -0.225 NA
ATOM      7  N   UNL d   1      53.019  33.698  54.161  0.00  0.00    -0.241 NA
ATOM      8  C   UNL d   1      54.281  33.148  54.529  0.00  0.00     0.101 A 
ATOM      9  C   UNL d   1      53.744  33.772  54.547  0.00  0.00     0.099 A 
ATOM     10  N   UNL d   1      51.776  31.562  52.594  0.00  0.00    -0.128 N 
ATOM     11  C   UNL d   1      55.003  33.214  54.911  0.00  0.00     0.021 A 
ATOM     12  C   UNL d   1      53.932  34.460  54.949  0.00  0.00     0.021 A 
ATOM     13  C   UNL d   1      55.193  33.915  55.318  0.00  0.00     0.002 A 
ATOM     14  C   UNL d   1      54.654  34.528  55.331  0.00  0.00     0.002 A 
ENDROOT
BRANCH   1  15
ATOM     15  C   UNL d   1      51.485  33.230  53.202  0.00  0.00     0.300 C 
ATOM     16  O   UNL d   1      50.781  33.018  53.571  0.00  0.00    -0.259 OA
BRANCH  15  17
ATOM     17  O   UNL d   1      51.507  33.892  52.705  0.00  0.00    -0.303 OA
BRANCH  17  18
ATOM     18  C   UNL d   1      50.810  34.243  52.471  0.00  0.00     0.102 C 
ATOM     19  C   UNL d   1      50.632  34.438  53.254  0.00  0.00     0.030 C 
ATOM     20  C   UNL d   1      50.979  34.053  51.684  0.00  0.00     0.030 C 
ATOM     21  C   UNL d   1      50.094  34.603  52.222  0.00  0.00     0.030 C 
ENDBRANCH  17  18
ENDBRANCH  15  17
ENDBRANCH   1  15
BRANCH   3  22
ATOM     22  C   UNL d   1      53.398  31.051  53.155  0.00  0.00     0.083 C 
BRANCH  22  23
ATOM     23  C   UNL d   1      53.082  30.365  53.491  0.00  0.00     0.019 C 
ATOM     24  C   UNL d   1      53.510  29.658  53.453  0.00  0.00     0.002 C 
ENDBRANCH  22  23
ENDBRANCH   3  22
TORSDOF 5
ENDMDL
MODEL 5
REMARK VINA RESULT:      -8.8      1.228      3.834
REMARK  5 active torsions:
REMARK  status: ('A' for Active; 'I' for Inactive)
REMARK    1  A    between atoms: C_6  and  C_1 
REMARK    2  A    between atoms: C_14  and  N_3 
REMARK    3  A    between atoms: O_9  and  C_6 
REMARK    4  A    between atoms: C_15  and  O_9 
REMARK    5  A    between atoms: C_16  and  C_14 
ROOT
ATOM      1  C   UNL d   1      53.664  32.555  53.627  0.00  0.00     0.120 A 
ATOM      2  C   UNL d   1      53.654  31.745  53.467  0.00  0.00     0.177 A 
ATOM      3  N   UNL d   1      52.920  31.563  53.140  0.00  0.00    -0.273 N 
ATOM      4  C   UNL d   1      52.475  32.254  53.097  0.00  0.00     0.167 A 
ATOM      5  C   UNL d   1      52.935  32.864  53.397  0.00  0.00     0.124 A 
ATOM      6  N   UNL d   1      51.715  32.397  52.823  0.00  0.00    -0.225 NA
ATOM      7  N   UNL d   1      52.630  33.626  53.423  0.00  0.00    -0.241 NA
ATOM      8  C   UNL d   1      51.411  33.159  52.849  0.00  0.00     0.101 A 
ATOM      9  C   UNL d   1      51.866  33.776  53.149  0.00  0.00     0.099 A 
ATOM     10  N   UNL d   1      54.266  31.208  53.606  0.00  0.00    -0.128 N 
ATOM     11  C   UNL d   1      50.652  33.302  52.576  0.00  0.00     0.021 A 
ATOM     12  C   UNL d   1      51.559  34.535  53.174  0.00  0.00     0.021 A 
ATOM     13  C   UNL d   1      50.341  34.074  52.601  0.00  0.00     0.002 A 
ATOM     14  C   UNL d   1      50.800  34.679  52.900  0.00  0.00     0.002 A 
ENDROOT
BRANCH   1  15
ATOM     15  C   UNL d   1      54.296  32.972  53.958  0.00  0.00     0.300 C 
ATOM     16  O   UNL d   1      55.019  32.990  53.568  0.00  0.00    -0.259 OA
BRANCH  15  17
ATOM     17  O   UNL d   1      54.205  33.370  54.678  0.00  0.00    -0.303 OA
BRANCH  17  18
ATOM     18  C   UNL d   1      54.864  33.636  55.076  0.00  0.00     0.102 C 
ATOM     19  C   UNL d   1      55.090  34.090  54.423  0.00  0.00     0.030 C 
ATOM     20  C   UNL d   1      54.647  33.187  55.736  0.00  0.00     0.030 C 
ATOM     21  C   UNL d   1      55.541  33.907  55.493  0.00  0.00     0.030 C 
ENDBRANCH  17  18
ENDBRANCH  15  17
ENDBRANCH   1  15
BRANCH   3  22
ATOM     22  C   UNL d   1      52.669  30.818  52.896  0.00  0.00     0.083 C 
BRANCH  22  23
ATOM     23  C   UNL d   1      52.702  30.186  53.427  0.00  0.00     0.019 C 
ATOM     24  C   UNL d   1      52.422  29.442  53.194  0.00  0.00     0.002 C 
ENDBRANCH  22  23
ENDBRANCH   3  22
TORSDOF 5
ENDMDL
MODEL 6
REMARK VINA RESULT:      -8.6      1.325      3.913
REMARK  5 active torsions:
REMARK  status: ('A' for Active; 'I' for Inactive)
REMARK    1  A    between atoms: C_6  and  C_1 
REMARK    2  A    between atoms: C_14  and  N_3 
REMARK    3  A    between atoms: O_9  and  C_6 
REMARK    4  A    between atoms: C_15  and  O_9 
REMARK    5  A    between atoms: C_16  and  C_14 
ROOT
ATOM      1  C   UNL d   1      53.042  31.808  53.421  0.00  0.00     0.120 A 
ATOM      2  C   UNL d   1      52.414  32.120  52.985  0.00  0.00     0.177 A 
ATOM      3  N   UNL d   1      52.388  32.932  53.128  0.00  0.00    -0.273 N 
ATOM      4  C   UNL d   1      52.995  33.124  53.649  0.00  0.00     0.167 A 
ATOM      5  C   UNL d   1      53.397  32.430  53.829  0.00  0.00     0.124 A 
ATOM      6  N   UNL d   1      53.227  33.839  53.977  0.00  0.00    -0.225 NA
ATOM      7  N   UNL d   1      54.037  32.455  54.342  0.00  0.00    -0.241 NA
ATOM      8  C   UNL d   1      53.867  33.862  54.490  0.00  0.00     0.101 A 
ATOM      9  C   UNL d   1      54.274  33.171  54.675  0.00  0.00     0.099 A 
ATOM     10  N   UNL d   1      51.900  31.701  52.492  0.00  0.00    -0.128 N 
ATOM     11  C   UNL d   1      54.097  34.577  54.818  0.00  0.00     0.021 A 
ATOM     12  C   UNL d   1      54.913  33.199  55.188  0.00  0.00     0.021 A 
ATOM     13  C   UNL d   1      54.746  34.603  55.339  0.00  0.00     0.002 A 
ATOM     14  C   UNL d   1      55.144  33.913  55.516  0.00  0.00     0.002 A 
ENDROOT
BRANCH   1  15
ATOM     15  C   UNL d   1      53.266  31.013  53.439  0.00  0.00     0.300 C 
ATOM     16  O   UNL d   1      53.927  30.767  53.016  0.00  0.00    -0.259 OA
BRANCH  15  17
ATOM     17  O   UNL d   1      52.829  30.464  53.878  0.00  0.00    -0.303 OA
BRANCH  17  18
ATOM     18  C   UNL d   1      53.111  29.705  53.967  0.00  0.00     0.102 C 
ATOM     19  C   UNL d   1      53.001  29.555  53.162  0.00  0.00     0.030 C 
ATOM     20  C   UNL d   1      53.226  29.842  54.775  0.00  0.00     0.030 C 
ATOM     21  C   UNL d   1      53.403  28.924  54.068  0.00  0.00     0.030 C 
ENDBRANCH  17  18
ENDBRANCH  15  17
ENDBRANCH   1  15
BRANCH   3  22
ATOM     22  C   UNL d   1      51.849  33.463  52.806  0.00  0.00     0.083 C 
BRANCH  22  23
ATOM     23  C   UNL d   1      51.084  33.501  53.114  0.00  0.00     0.019 C 
ATOM     24  C   UNL d   1      50.563  34.085  52.844  0.00  0.00     0.002 C 
ENDBRANCH  22  23
ENDBRANCH   3  22
TORSDOF 5
ENDMDL
