MODEL 1
REMARK VINA RESULT:      41.7      0.000      0.000
REMARK  4 active torsions:
REMARK  status: ('A' for Active; 'I' for Inactive)
REMARK    1  A    between atoms: C_4  and  C_1 
REMARK    2  A    between atoms: N_7  and  C_4 
REMARK    3  A    between atoms: C_10  and  C_4 
REMARK    4  A    between atoms: C_8  and  N_7 
ROOT
ATOM      1  C   UNL d   1      14.319  12.995  -1.693  0.00  0.00     0.085 C 
ENDROOT
BRANCH   1   2
ATOM      2  C   UNL d   1      13.762  12.584  -2.145  0.00  0.00     0.037 A 
ATOM      3  C   UNL d   1      13.192  12.043  -1.892  0.00  0.00     0.083 A 
ATOM      4  N   UNL d   1      12.778  11.779  -2.478  0.00  0.00    -0.245 NA
ATOM      5  C   UNL d   1      13.085  11.818  -1.105  0.00  0.00     0.021 C 
ATOM      6  C   UNL d   1      13.050  12.136  -3.190  0.00  0.00     0.081 A 
ATOM      7  C   UNL d   1      13.667  12.642  -2.981  0.00  0.00     0.021 A 
ATOM      8  C   UNL d   1      12.813  12.063  -3.986  0.00  0.00     0.019 A 
ATOM      9  C   UNL d   1      14.052  13.076  -3.567  0.00  0.00     0.002 A 
ATOM     10  C   UNL d   1      13.828  13.012  -4.354  0.00  0.00     0.000 A 
ATOM     11  C   UNL d   1      13.210  12.507  -4.562  0.00  0.00     0.002 A 
ENDBRANCH   1   2
BRANCH   1  12
ATOM     12  N   UNL d   1      14.309  13.809  -1.708  0.00  0.00    -0.227 NA
BRANCH  12  13
ATOM     13  C   UNL d   1      14.709  14.243  -1.153  0.00  0.00     0.162 A 
ATOM     14  N   UNL d   1      15.268  13.896  -0.668  0.00  0.00    -0.225 NA
ATOM     15  C   UNL d   1      15.681  14.369  -0.089  0.00  0.00     0.101 A 
ATOM     16  C   UNL d   1      15.500  15.155  -0.042  0.00  0.00     0.021 A 
ATOM     17  C   UNL d   1      14.946  15.507  -0.521  0.00  0.00     0.005 A 
ATOM     18  C   UNL d   1      14.543  15.064  -1.080  0.00  0.00     0.039 A 
ATOM     19  C   UNL d   1      14.793  16.317  -0.438  0.00  0.00     0.000 C 
ENDBRANCH  12  13
ENDBRANCH   1  12
BRANCH   1  20
ATOM     20  C   UNL d   1      14.875  12.586  -1.234  0.00  0.00     0.021 A 
ATOM     21  C   UNL d   1      15.595  12.396  -1.582  0.00  0.00     0.022 A 
ATOM     22  C   UNL d   1      16.152  11.988  -1.123  0.00  0.00     0.099 A 
ATOM     23  N   UNL d   1      15.973  11.784  -0.339  0.00  0.00    -0.242 NA
ATOM     24  C   UNL d   1      15.251  11.984  -0.017  0.00  0.00     0.099 A 
ATOM     25  C   UNL d   1      14.696  12.382  -0.450  0.00  0.00     0.022 A 
ENDBRANCH   1  20
TORSDOF 4
ENDMDL
