MODEL 1
REMARK VINA RESULT:      21.1      0.000      0.000
REMARK  4 active torsions:
REMARK  status: ('A' for Active; 'I' for Inactive)
REMARK    1  A    between atoms: C_6  and  N_1 
REMARK    2  A    between atoms: C_3  and  C_4 
REMARK    3  A    between atoms: C_5  and  C_3 
REMARK       I    between atoms: C_4  and  N_10 
REMARK    4  A    between atoms: N_10  and  C_13 
ROOT
ATOM      1  C   UNL d   1     -57.279 -99.024 -44.986  0.00  0.00     0.281 C 
ATOM      2  N   UNL d   1     -57.032 -99.360 -44.273  0.00  0.00    -0.208 NA
ATOM      3  O   UNL d   1     -56.745 -98.958 -45.612  0.00  0.00    -0.265 OA
ENDROOT
BRANCH   1   4
ATOM      4  C   UNL d   1     -58.053 -98.756 -45.070  0.00  0.00     0.086 C 
BRANCH   4   5
ATOM      5  C   UNL d   1     -58.569 -98.758 -44.419  0.00  0.00     0.144 A 
ATOM      6  C   UNL d   1     -59.384 -98.758 -44.543  0.00  0.00     0.297 A 
ATOM      7  N   UNL d   1     -59.908 -98.760 -43.903  0.00  0.00    -0.204 NA
ATOM      8  O   UNL d   1     -59.683 -98.757 -45.318  0.00  0.00    -0.264 OA
ATOM      9  C   UNL d   1     -59.598 -98.761 -43.142  0.00  0.00     0.123 A 
ATOM     10  C   UNL d   1     -58.782 -98.760 -43.018  0.00  0.00     0.120 A 
ATOM     11  N   UNL d   1     -58.277 -98.759 -43.654  0.00  0.00    -0.237 NA
ENDBRANCH   4   5
ENDBRANCH   1   4
BRANCH   2  12
ATOM     12  C   UNL d   1     -56.258 -99.627 -44.189  0.00  0.00     0.086 A 
ATOM     13  C   UNL d   1     -56.106-100.438 -44.173  0.00  0.00     0.043 A 
ATOM     14  C   UNL d   1     -55.331-100.705 -44.089  0.00  0.00     0.128 A 
ATOM     15  C   UNL d   1     -54.712-100.163 -44.021  0.00  0.00     0.024 A 
ATOM     16  C   UNL d   1     -54.869 -99.355 -44.037  0.00  0.00     0.003 A 
ATOM     17  C   UNL d   1     -55.642 -99.088 -44.121  0.00  0.00     0.019 A 
BRANCH  14  18
ATOM     18  N   UNL d   1     -55.176-101.513 -44.072  0.00  0.00    -0.114 N 
ATOM     19  O   UNL d   1     -55.314-101.982 -44.737  0.00  0.00    -0.532 OA
ATOM     20  O   UNL d   1     -54.877-101.869 -43.380  0.00  0.00    -0.532 OA
ENDBRANCH  14  18
ENDBRANCH   2  12
TORSDOF 4
ENDMDL
