MODEL 1
REMARK VINA RESULT:      -5.1      0.000      0.000
REMARK  2 active torsions:
REMARK  status: ('A' for Active; 'I' for Inactive)
REMARK    1  A    between atoms: N_2  and  S_1 
REMARK    2  A    between atoms: C_3  and  S_1 
ROOT
ATOM      1  N   UNL d   1     -41.481-122.872 -53.545  0.00  0.00    -0.231 N 
ATOM      2  C   UNL d   1     -41.849-122.393 -54.102  0.00  0.00     0.075 A 
ATOM      3  C   UNL d   1     -41.863-122.626 -54.893  0.00  0.00     0.017 A 
ATOM      4  C   UNL d   1     -41.123-123.588 -53.768  0.00  0.00     0.092 A 
ATOM      5  C   UNL d   1     -42.208-121.676 -53.882  0.00  0.00     0.018 A 
ATOM      6  C   UNL d   1     -41.138-123.817 -54.555  0.00  0.00     0.020 A 
ATOM      7  C   UNL d   1     -41.511-123.334 -55.122  0.00  0.00     0.003 A 
ATOM      8  C   UNL d   1     -42.239-122.135 -55.457  0.00  0.00     0.002 A 
ATOM      9  C   UNL d   1     -42.581-121.187 -54.436  0.00  0.00     0.002 A 
ATOM     10  C   UNL d   1     -42.597-121.417 -55.228  0.00  0.00     0.000 A 
ENDROOT
BRANCH   1  11
ATOM     11  S   UNL d   1     -41.467-122.637 -52.755  0.00  0.00     0.277 S 
ATOM     12  O   UNL d   1     -41.813-123.354 -52.537  0.00  0.00    -0.199 OA
ATOM     13  O   UNL d   1     -41.126-121.930 -52.971  0.00  0.00    -0.199 OA
BRANCH  11  14
ATOM     14  C   UNL d   1     -41.454-122.406 -51.979  0.00  0.00     0.133 A 
ATOM     15  S   UNL d   1     -41.757-122.843 -51.352  0.00  0.00    -0.074 SA
ATOM     16  C   UNL d   1     -41.624-122.391 -50.640  0.00  0.00     0.036 A 
ATOM     17  C   UNL d   1     -41.246-121.702 -50.874  0.00  0.00     0.008 A 
ATOM     18  C   UNL d   1     -41.128-121.676 -51.665  0.00  0.00     0.020 A 
ENDBRANCH  11  14
ENDBRANCH   1  11
TORSDOF 2
ENDMDL
MODEL 2
REMARK VINA RESULT:      -4.7      2.180      2.961
REMARK  2 active torsions:
REMARK  status: ('A' for Active; 'I' for Inactive)
REMARK    1  A    between atoms: N_2  and  S_1 
REMARK    2  A    between atoms: C_3  and  S_1 
ROOT
ATOM      1  N   UNL d   1     -41.713-123.122 -50.946  0.00  0.00    -0.231 N 
ATOM      2  C   UNL d   1     -41.518-122.398 -51.282  0.00  0.00     0.075 A 
ATOM      3  C   UNL d   1     -41.325-122.360 -52.083  0.00  0.00     0.017 A 
ATOM      4  C   UNL d   1     -41.719-123.817 -51.403  0.00  0.00     0.092 A 
ATOM      5  C   UNL d   1     -41.511-121.702 -50.828  0.00  0.00     0.018 A 
ATOM      6  C   UNL d   1     -41.527-123.776 -52.199  0.00  0.00     0.020 A 
ATOM      7  C   UNL d   1     -41.329-123.044 -52.543  0.00  0.00     0.003 A 
ATOM      8  C   UNL d   1     -41.127-121.621 -52.422  0.00  0.00     0.002 A 
ATOM      9  C   UNL d   1     -41.316-120.969 -51.158  0.00  0.00     0.002 A 
ATOM     10  C   UNL d   1     -41.123-120.927 -51.959  0.00  0.00     0.000 A 
ENDROOT
BRANCH   1  11
ATOM     11  S   UNL d   1     -41.906-123.158 -50.146  0.00  0.00     0.277 S 
ATOM     12  O   UNL d   1     -42.699-123.029 -50.331  0.00  0.00    -0.199 OA
ATOM     13  O   UNL d   1     -41.123-123.286 -49.964  0.00  0.00    -0.199 OA
BRANCH  11  14
ATOM     14  C   UNL d   1     -42.094-123.194 -49.359  0.00  0.00     0.133 A 
ATOM     15  S   UNL d   1     -41.574-123.412 -48.760  0.00  0.00    -0.074 SA
ATOM     16  C   UNL d   1     -42.004-123.371 -48.024  0.00  0.00     0.036 A 
ATOM     17  C   UNL d   1     -42.764-123.130 -48.216  0.00  0.00     0.008 A 
ATOM     18  C   UNL d   1     -42.854-123.015 -49.003  0.00  0.00     0.020 A 
ENDBRANCH  11  14
ENDBRANCH   1  11
TORSDOF 2
ENDMDL
MODEL 3
REMARK VINA RESULT:      -3.7      1.111      3.416
REMARK  2 active torsions:
REMARK  status: ('A' for Active; 'I' for Inactive)
REMARK    1  A    between atoms: N_2  and  S_1 
REMARK    2  A    between atoms: C_3  and  S_1 
ROOT
ATOM      1  N   UNL d   1     -41.608-121.780 -52.638  0.00  0.00    -0.231 N 
ATOM      2  C   UNL d   1     -41.604-122.414 -52.115  0.00  0.00     0.075 A 
ATOM      3  C   UNL d   1     -41.360-122.298 -51.336  0.00  0.00     0.017 A 
ATOM      4  C   UNL d   1     -41.370-121.022 -52.391  0.00  0.00     0.092 A 
ATOM      5  C   UNL d   1     -41.841-123.173 -52.359  0.00  0.00     0.018 A 
ATOM      6  C   UNL d   1     -41.128-120.909 -51.616  0.00  0.00     0.020 A 
ATOM      7  C   UNL d   1     -41.123-121.550 -51.084  0.00  0.00     0.003 A 
ATOM      8  C   UNL d   1     -41.357-122.946 -50.807  0.00  0.00     0.002 A 
ATOM      9  C   UNL d   1     -41.840-123.817 -51.840  0.00  0.00     0.002 A 
ATOM     10  C   UNL d   1     -41.597-123.704 -51.059  0.00  0.00     0.000 A 
ENDROOT
BRANCH   1  11
ATOM     11  S   UNL d   1     -41.852-121.898 -53.416  0.00  0.00     0.277 S 
ATOM     12  O   UNL d   1     -42.576-121.542 -53.243  0.00  0.00    -0.199 OA
ATOM     13  O   UNL d   1     -41.138-122.250 -53.586  0.00  0.00    -0.199 OA
BRANCH  11  14
ATOM     14  C   UNL d   1     -42.091-122.015 -54.181  0.00  0.00     0.133 A 
ATOM     15  S   UNL d   1     -41.639-122.378 -54.765  0.00  0.00    -0.074 SA
ATOM     16  C   UNL d   1     -42.106-122.382 -55.480  0.00  0.00     0.036 A 
ATOM     17  C   UNL d   1     -42.817-122.021 -55.291  0.00  0.00     0.008 A 
ATOM     18  C   UNL d   1     -42.844-121.789 -54.525  0.00  0.00     0.020 A 
ENDBRANCH  11  14
ENDBRANCH   1  11
TORSDOF 2
ENDMDL
