MODEL 1
REMARK VINA RESULT:       7.6      0.000      0.000
REMARK  7 active torsions:
REMARK  status: ('A' for Active; 'I' for Inactive)
REMARK    1  A    between atoms: N_2  and  C_1 
REMARK    2  A    between atoms: C_5  and  C_1 
REMARK    3  A    between atoms: O_4  and  N_2 
REMARK    4  A    between atoms: C_3  and  O_4 
REMARK    5  A    between atoms: C_6  and  C_3 
REMARK    6  A    between atoms: C_17  and  C_14 
REMARK    7  A    between atoms: C_18  and  C_17 
ROOT
ATOM      1  C   UNL d   1      45.543 -16.098  44.516  0.00  0.00     0.319 C 
ATOM      2  O   UNL d   1      44.942 -16.470  44.950  0.00  0.00    -0.257 OA
ENDROOT
BRANCH   1   3
ATOM      3  O   UNL d   1      46.105 -16.549  44.120  0.00  0.00    -0.168 OA
BRANCH   3   4
ATOM      4  N   UNL d   1      46.116 -17.369  44.209  0.00  0.00    -0.100 NA
BRANCH   4   5
ATOM      5  C   UNL d   1      46.304 -17.851  43.569  0.00  0.00     0.228 C 
ATOM      6  N   UNL d   1      46.389 -17.523  42.819  0.00  0.00    -0.123 N 
BRANCH   5   7
ATOM      7  C   UNL d   1      46.407 -18.662  43.678  0.00  0.00     0.121 A 
ATOM      8  N   UNL d   1      46.374 -19.175  43.025  0.00  0.00    -0.241 NA
ATOM      9  C   UNL d   1      46.478 -19.994  43.136  0.00  0.00     0.099 A 
ATOM     10  C   UNL d   1      46.615 -20.293  43.899  0.00  0.00     0.021 A 
ATOM     11  C   UNL d   1      46.647 -19.782  44.544  0.00  0.00     0.003 A 
ATOM     12  C   UNL d   1      46.544 -18.971  44.434  0.00  0.00     0.022 A 
ENDBRANCH   5   7
ENDBRANCH   4   5
ENDBRANCH   3   4
ENDBRANCH   1   3
BRANCH   1  13
ATOM     13  C   UNL d   1      45.575 -15.268  44.483  0.00  0.00     0.065 A 
ATOM     14  C   UNL d   1      46.265 -14.903  44.216  0.00  0.00     0.005 A 
ATOM     15  C   UNL d   1      46.301 -14.081  44.181  0.00  0.00     0.000 A 
ATOM     16  C   UNL d   1      45.647 -13.625  44.414  0.00  0.00     0.000 A 
ATOM     17  C   UNL d   1      44.961 -13.998  44.680  0.00  0.00     0.000 A 
ATOM     18  C   UNL d   1      44.929 -14.827  44.714  0.00  0.00     0.005 A 
BRANCH  16  19
ATOM     19  C   UNL d   1      45.690 -12.800  44.377  0.00  0.00     0.000 C 
BRANCH  19  20
ATOM     20  C   UNL d   1      45.228 -12.388  43.832  0.00  0.00     0.000 C 
ATOM     21  C   UNL d   1      45.556 -12.109  43.130  0.00  0.00     0.000 C 
ENDBRANCH  19  20
ENDBRANCH  16  19
ENDBRANCH   1  13
TORSDOF 7
ENDMDL
