MODEL 1
REMARK VINA RESULT:      13.5      0.000      0.000
REMARK  6 active torsions:
REMARK  status: ('A' for Active; 'I' for Inactive)
REMARK    1  A    between atoms: C_3  and  N_1 
REMARK    2  A    between atoms: N_7  and  C_3 
REMARK    3  A    between atoms: C_10  and  C_4 
REMARK    4  A    between atoms: C_9  and  C_5 
REMARK    5  A    between atoms: C_13  and  N_7 
REMARK    6  A    between atoms: O_17  and  C_14 
ROOT
ATOM      1  N   UNL d   1     -41.916-122.067 -52.030  0.00  0.00    -0.203 N 
ATOM      2  N   UNL d   1     -41.930-122.146 -52.843  0.00  0.00    -0.163 NA
ATOM      3  C   UNL d   1     -42.032-122.924 -53.020  0.00  0.00     0.103 A 
ATOM      4  C   UNL d   1     -42.012-122.812 -51.682  0.00  0.00     0.087 A 
ATOM      5  C   UNL d   1     -42.083-123.340 -52.306  0.00  0.00     0.040 A 
ENDROOT
BRANCH   1   6
ATOM      6  C   UNL d   1     -41.818-121.327 -51.630  0.00  0.00     0.222 C 
ATOM      7  S   UNL d   1     -42.425-121.029 -51.145  0.00  0.00    -0.037 SA
BRANCH   6   8
ATOM      8  N   UNL d   1     -41.126-120.898 -51.715  0.00  0.00    -0.217 NA
BRANCH   8   9
ATOM      9  C   UNL d   1     -41.125-120.071 -51.647  0.00  0.00     0.084 A 
ATOM     10  C   UNL d   1     -41.126-119.609 -52.323  0.00  0.00     0.019 A 
ATOM     11  C   UNL d   1     -41.125-118.777 -52.255  0.00  0.00     0.002 A 
ATOM     12  C   UNL d   1     -41.123-118.432 -51.506  0.00  0.00     0.000 A 
ATOM     13  C   UNL d   1     -41.123-118.914 -50.847  0.00  0.00     0.002 A 
ATOM     14  C   UNL d   1     -41.124-119.737 -50.908  0.00  0.00     0.019 A 
ENDBRANCH   8   9
ENDBRANCH   6   8
ENDBRANCH   1   6
BRANCH   4  15
ATOM     15  C   UNL d   1     -42.033-123.005 -50.880  0.00  0.00     0.018 A 
ATOM     16  C   UNL d   1     -41.448-123.501 -50.564  0.00  0.00     0.004 A 
ATOM     17  C   UNL d   1     -41.464-123.693 -49.780  0.00  0.00     0.024 A 
ATOM     18  C   UNL d   1     -42.063-123.400 -49.274  0.00  0.00     0.094 A 
ATOM     19  C   UNL d   1     -42.630-122.914 -49.597  0.00  0.00     0.024 A 
ATOM     20  C   UNL d   1     -42.622-122.709 -50.406  0.00  0.00     0.004 A 
BRANCH  18  21
ATOM     21  O   UNL d   1     -42.071-123.604 -48.465  0.00  0.00    -0.328 OA
ATOM     22  C   UNL d   1     -41.821-123.072 -47.873  0.00  0.00     0.181 C 
ENDBRANCH  18  21
ENDBRANCH   4  15
BRANCH   3  23
ATOM     23  C   UNL d   1     -42.073-123.213 -53.778  0.00  0.00     0.019 A 
ATOM     24  C   UNL d   1     -41.382-123.416 -54.188  0.00  0.00     0.002 A 
ATOM     25  C   UNL d   1     -41.429-123.711 -54.962  0.00  0.00     0.000 A 
ATOM     26  C   UNL d   1     -42.159-123.802 -55.321  0.00  0.00     0.000 A 
ATOM     27  C   UNL d   1     -42.850-123.599 -54.909  0.00  0.00     0.000 A 
ATOM     28  C   UNL d   1     -42.803-123.304 -54.136  0.00  0.00     0.002 A 
ENDBRANCH   3  23
TORSDOF 6
ENDMDL
MODEL 2
REMARK VINA RESULT:      14.5      1.627      3.838
REMARK  6 active torsions:
REMARK  status: ('A' for Active; 'I' for Inactive)
REMARK    1  A    between atoms: C_3  and  N_1 
REMARK    2  A    between atoms: N_7  and  C_3 
REMARK    3  A    between atoms: C_10  and  C_4 
REMARK    4  A    between atoms: C_9  and  C_5 
REMARK    5  A    between atoms: C_13  and  N_7 
REMARK    6  A    between atoms: O_17  and  C_14 
ROOT
ATOM      1  N   UNL d   1     -41.714-121.571 -51.912  0.00  0.00    -0.203 N 
ATOM      2  N   UNL d   1     -41.744-121.757 -51.117  0.00  0.00    -0.163 NA
ATOM      3  C   UNL d   1     -41.909-122.540 -51.046  0.00  0.00     0.103 A 
ATOM      4  C   UNL d   1     -41.864-122.254 -52.356  0.00  0.00     0.087 A 
ATOM      5  C   UNL d   1     -41.984-122.853 -51.809  0.00  0.00     0.040 A 
ENDROOT
BRANCH   1   6
ATOM      6  C   UNL d   1     -41.554-120.795 -52.210  0.00  0.00     0.222 C 
ATOM      7  S   UNL d   1     -41.834-120.567 -52.960  0.00  0.00    -0.037 SA
BRANCH   6   8
ATOM      8  N   UNL d   1     -41.123-120.261 -51.765  0.00  0.00    -0.217 NA
BRANCH   8   9
ATOM      9  C   UNL d   1     -41.123-119.452 -51.949  0.00  0.00     0.084 A 
ATOM     10  C   UNL d   1     -41.123-118.899 -51.345  0.00  0.00     0.019 A 
ATOM     11  C   UNL d   1     -41.124-118.085 -51.531  0.00  0.00     0.002 A 
ATOM     12  C   UNL d   1     -41.124-117.849 -52.321  0.00  0.00     0.000 A 
ATOM     13  C   UNL d   1     -41.124-118.420 -52.906  0.00  0.00     0.002 A 
ATOM     14  C   UNL d   1     -41.124-119.226 -52.729  0.00  0.00     0.019 A 
ENDBRANCH   8   9
ENDBRANCH   6   8
ENDBRANCH   1   6
BRANCH   4  15
ATOM     15  C   UNL d   1     -41.892-122.336 -53.177  0.00  0.00     0.018 A 
ATOM     16  C   UNL d   1     -41.315-122.793 -53.561  0.00  0.00     0.004 A 
ATOM     17  C   UNL d   1     -41.337-122.877 -54.364  0.00  0.00     0.024 A 
ATOM     18  C   UNL d   1     -41.934-122.509 -54.822  0.00  0.00     0.094 A 
ATOM     19  C   UNL d   1     -42.493-122.063 -54.432  0.00  0.00     0.024 A 
ATOM     20  C   UNL d   1     -42.479-121.971 -53.603  0.00  0.00     0.004 A 
BRANCH  18  21
ATOM     21  O   UNL d   1     -41.948-122.601 -55.651  0.00  0.00    -0.328 OA
ATOM     22  C   UNL d   1     -42.555-122.275 -56.122  0.00  0.00     0.181 C 
ENDBRANCH  18  21
ENDBRANCH   4  15
BRANCH   3  23
ATOM     23  C   UNL d   1     -41.981-122.924 -50.334  0.00  0.00     0.019 A 
ATOM     24  C   UNL d   1     -42.719-123.202 -50.079  0.00  0.00     0.002 A 
ATOM     25  C   UNL d   1     -42.788-123.593 -49.351  0.00  0.00     0.000 A 
ATOM     26  C   UNL d   1     -42.126-123.704 -48.883  0.00  0.00     0.000 A 
ATOM     27  C   UNL d   1     -41.387-123.426 -49.138  0.00  0.00     0.000 A 
ATOM     28  C   UNL d   1     -41.319-123.035 -49.866  0.00  0.00     0.002 A 
ENDBRANCH   3  23
TORSDOF 6
ENDMDL
