MODEL 1
REMARK VINA RESULT:      80.6      0.000      0.000
REMARK  6 active torsions:
REMARK  status: ('A' for Active; 'I' for Inactive)
REMARK    1  A    between atoms: C_7  and  C_1 
REMARK    2  A    between atoms: C_10  and  C_2 
REMARK    3  A    between atoms: C_9  and  C_5 
REMARK    4  A    between atoms: O_15  and  C_7 
REMARK    5  A    between atoms: N_14  and  C_9 
REMARK    6  A    between atoms: C_21  and  O_15 
ROOT
ATOM      1  C   UNL d   1      58.799  48.461  50.665  0.00  0.00     0.088 A 
ATOM      2  C   UNL d   1      58.423  49.187  50.766  0.00  0.00     0.105 A 
ATOM      3  C   UNL d   1      59.576  48.554  50.882  0.00  0.00     0.034 A 
ATOM      4  O   UNL d   1      58.990  49.707  51.047  0.00  0.00    -0.307 OA
ATOM      5  C   UNL d   1      60.214  48.023  50.898  0.00  0.00     0.059 A 
ATOM      6  C   UNL d   1      59.711  49.318  51.121  0.00  0.00     0.100 A 
ATOM      7  C   UNL d   1      60.950  48.255  51.143  0.00  0.00     0.197 A 
ATOM      8  C   UNL d   1      60.442  49.571  51.370  0.00  0.00     0.028 A 
ATOM      9  C   UNL d   1      61.076  49.042  51.385  0.00  0.00     0.044 A 
ATOM     10  O   UNL d   1      61.588  47.720  51.158  0.00  0.00    -0.286 OA
ENDROOT
BRANCH   2  11
ATOM     11  C   UNL d   1      57.632  49.348  50.613  0.00  0.00     0.023 A 
ATOM     12  C   UNL d   1      57.363  49.369  49.825  0.00  0.00     0.002 A 
ATOM     13  C   UNL d   1      56.562  49.531  49.657  0.00  0.00     0.000 A 
ATOM     14  C   UNL d   1      56.046  49.669  50.289  0.00  0.00     0.000 A 
ATOM     15  C   UNL d   1      56.313  49.647  51.064  0.00  0.00     0.000 A 
ATOM     16  C   UNL d   1      57.102  49.487  51.226  0.00  0.00     0.002 A 
ENDBRANCH   2  11
BRANCH   1  17
ATOM     17  C   UNL d   1      58.155  48.020  50.387  0.00  0.00     0.302 C 
ATOM     18  O   UNL d   1      57.846  48.175  49.638  0.00  0.00    -0.259 OA
BRANCH  17  19
ATOM     19  O   UNL d   1      57.819  47.430  50.846  0.00  0.00    -0.271 OA
BRANCH  19  20
ATOM     20  C   UNL d   1      57.488  46.761  50.505  0.00  0.00     0.126 C 
ATOM     21  C   UNL d   1      57.130  46.174  50.969  0.00  0.00     0.029 C 
ENDBRANCH  19  20
ENDBRANCH  17  19
ENDBRANCH   1  17
BRANCH   5  22
ATOM     22  C   UNL d   1      60.101  47.238  50.660  0.00  0.00     0.084 C 
BRANCH  22  23
ATOM     23  N   UNL d   1      60.704  46.680  50.741  0.00  0.00    -0.300 N 
ATOM     24  C   UNL d   1      60.873  46.382  51.486  0.00  0.00     0.100 C 
ATOM     25  C   UNL d   1      61.127  46.426  50.096  0.00  0.00     0.100 C 
ENDBRANCH  22  23
ENDBRANCH   5  22
TORSDOF 6
ENDMDL
