MODEL 1
REMARK VINA RESULT:      26.0      0.000      0.000
REMARK  5 active torsions:
REMARK  status: ('A' for Active; 'I' for Inactive)
REMARK    1  A    between atoms: C_2  and  S_1 
REMARK    2  A    between atoms: N_5  and  S_1 
REMARK    3  A    between atoms: O_14  and  C_4 
REMARK    4  A    between atoms: C_11  and  N_5 
REMARK    5  A    between atoms: C_15  and  C_11 
ROOT
ATOM      1  C   UNL d   1     -57.444 -98.762 -44.878  0.00  0.00     0.128 A 
ATOM      2  C   UNL d   1     -57.807 -98.764 -45.617  0.00  0.00     0.026 A 
ATOM      3  C   UNL d   1     -57.904 -98.759 -44.195  0.00  0.00     0.106 A 
ATOM      4  C   UNL d   1     -58.630 -98.762 -45.673  0.00  0.00     0.059 A 
ATOM      5  C   UNL d   1     -58.727 -98.756 -44.252  0.00  0.00     0.026 A 
ATOM      6  C   UNL d   1     -59.091 -98.758 -44.991  0.00  0.00     0.013 A 
ATOM      7 CL   UNL d   1     -58.993 -98.763 -46.413  0.00  0.00    -0.082 Cl
ATOM      8  C   UNL d   1     -59.914 -98.756 -45.048  0.00  0.00     0.001 C 
ENDROOT
BRANCH   1   9
ATOM      9  S   UNL d   1     -56.621 -98.765 -44.821  0.00  0.00     0.287 S 
ATOM     10  O   UNL d   1     -56.678 -98.770 -43.998  0.00  0.00    -0.198 OA
ATOM     11  O   UNL d   1     -56.565 -98.759 -45.644  0.00  0.00    -0.198 OA
BRANCH   9  12
ATOM     12  N   UNL d   1     -55.798 -98.767 -44.765  0.00  0.00    -0.155 NA
BRANCH  12  13
ATOM     13  C   UNL d   1     -55.363 -99.379 -45.103  0.00  0.00     0.137 C 
BRANCH  13  14
ATOM     14  C   UNL d   1     -55.198-100.059 -44.666  0.00  0.00     0.120 A 
ATOM     15  O   UNL d   1     -55.352-100.836 -44.897  0.00  0.00    -0.304 OA
ATOM     16  C   UNL d   1     -55.100-101.335 -44.298  0.00  0.00     0.123 A 
ATOM     17  C   UNL d   1     -54.786-100.878 -43.687  0.00  0.00     0.029 A 
ATOM     18  C   UNL d   1     -54.849-100.087 -43.921  0.00  0.00     0.028 A 
ENDBRANCH  13  14
ENDBRANCH  12  13
ENDBRANCH   9  12
ENDBRANCH   1   9
BRANCH   3  19
ATOM     19  O   UNL d   1     -57.543 -98.757 -43.451  0.00  0.00    -0.327 OA
ATOM     20  C   UNL d   1     -58.003 -98.759 -42.769  0.00  0.00     0.181 C 
ENDBRANCH   3  19
TORSDOF 5
ENDMDL
MODEL 2
REMARK VINA RESULT:      26.5      0.946      1.622
REMARK  5 active torsions:
REMARK  status: ('A' for Active; 'I' for Inactive)
REMARK    1  A    between atoms: C_2  and  S_1 
REMARK    2  A    between atoms: N_5  and  S_1 
REMARK    3  A    between atoms: O_14  and  C_4 
REMARK    4  A    between atoms: C_11  and  N_5 
REMARK    5  A    between atoms: C_15  and  C_11 
ROOT
ATOM      1  C   UNL d   1     -57.398 -98.766 -44.465  0.00  0.00     0.128 A 
ATOM      2  C   UNL d   1     -57.808 -98.769 -43.752  0.00  0.00     0.026 A 
ATOM      3  C   UNL d   1     -57.813 -98.759 -45.177  0.00  0.00     0.106 A 
ATOM      4  C   UNL d   1     -58.633 -98.766 -43.749  0.00  0.00     0.059 A 
ATOM      5  C   UNL d   1     -58.638 -98.756 -45.174  0.00  0.00     0.026 A 
ATOM      6  C   UNL d   1     -59.048 -98.760 -44.460  0.00  0.00     0.013 A 
ATOM      7 CL   UNL d   1     -59.043 -98.769 -43.035  0.00  0.00    -0.082 Cl
ATOM      8  C   UNL d   1     -59.873 -98.757 -44.457  0.00  0.00     0.001 C 
ENDROOT
BRANCH   1   9
ATOM      9  S   UNL d   1     -56.573 -98.769 -44.468  0.00  0.00     0.287 S 
ATOM     10  O   UNL d   1     -56.576 -98.780 -45.293  0.00  0.00    -0.198 OA
ATOM     11  O   UNL d   1     -56.570 -98.758 -43.643  0.00  0.00    -0.198 OA
BRANCH   9  12
ATOM     12  N   UNL d   1     -55.748 -98.772 -44.471  0.00  0.00    -0.155 NA
BRANCH  12  13
ATOM     13  C   UNL d   1     -55.339 -99.321 -44.930  0.00  0.00     0.137 C 
BRANCH  13  14
ATOM     14  C   UNL d   1     -55.107-100.042 -44.603  0.00  0.00     0.120 A 
ATOM     15  O   UNL d   1     -55.031-100.210 -43.799  0.00  0.00    -0.304 OA
ATOM     16  C   UNL d   1     -54.789-100.990 -43.724  0.00  0.00     0.123 A 
ATOM     17  C   UNL d   1     -54.712-101.316 -44.477  0.00  0.00     0.029 A 
ATOM     18  C   UNL d   1     -54.911-100.724 -45.019  0.00  0.00     0.028 A 
ENDBRANCH  13  14
ENDBRANCH  12  13
ENDBRANCH   9  12
ENDBRANCH   1   9
BRANCH   3  19
ATOM     19  O   UNL d   1     -57.403 -98.756 -45.895  0.00  0.00    -0.327 OA
ATOM     20  C   UNL d   1     -57.814 -98.833 -46.604  0.00  0.00     0.181 C 
ENDBRANCH   3  19
TORSDOF 5
ENDMDL
