MODEL 1
REMARK VINA RESULT:      -5.9      0.000      0.000
REMARK  5 active torsions:
REMARK  status: ('A' for Active; 'I' for Inactive)
REMARK    1  A    between atoms: C_7  and  C_1 
REMARK    2  A    between atoms: C_6  and  O_13 
REMARK    3  A    between atoms: C_12  and  C_6 
REMARK    4  A    between atoms: O_13  and  C_10 
REMARK    5  A    between atoms: C_28  and  C_14 
ROOT
ATOM      1  C   UNL d   1     -47.584  13.634  22.668  0.00  0.00     0.064 A 
ATOM      2  C   UNL d   1     -46.426  12.807  22.743  0.00  0.00     0.062 A 
ATOM      3  C   UNL d   1     -47.220  12.940  22.919  0.00  0.00     0.199 A 
ATOM      4  C   UNL d   1     -47.155  14.194  22.242  0.00  0.00     0.126 A 
ATOM      5  C   UNL d   1     -45.998  13.367  22.317  0.00  0.00     0.105 A 
ATOM      6  O   UNL d   1     -46.362  14.062  22.066  0.00  0.00    -0.305 OA
ATOM      7  C   UNL d   1     -46.062  12.112  22.995  0.00  0.00     0.007 A 
ATOM      8  C   UNL d   1     -44.837  12.537  22.393  0.00  0.00     0.105 A 
ATOM      9  C   UNL d   1     -45.205  13.234  22.141  0.00  0.00     0.050 A 
ATOM     10  C   UNL d   1     -45.265  11.977  22.819  0.00  0.00     0.023 A 
ATOM     11  O   UNL d   1     -47.649  12.379  23.346  0.00  0.00    -0.286 OA
ENDROOT
BRANCH   1  12
ATOM     12  C   UNL d   1     -48.377  13.767  22.844  0.00  0.00     0.007 A 
ATOM     13  C   UNL d   1     -48.631  14.521  23.097  0.00  0.00     0.027 A 
ATOM     14  C   UNL d   1     -49.416  14.657  23.272  0.00  0.00     0.123 A 
ATOM     15  O   UNL d   1     -49.660  15.402  23.521  0.00  0.00    -0.301 OA
ATOM     16  C   UNL d   1     -49.975  14.038  23.199  0.00  0.00     0.123 A 
ATOM     17  C   UNL d   1     -50.457  15.538  23.698  0.00  0.00     0.149 A 
ATOM     18  C   UNL d   1     -51.011  14.931  23.627  0.00  0.00     0.149 A 
ATOM     19  O   UNL d   1     -50.766  14.174  23.375  0.00  0.00    -0.301 OA
ATOM     20  C   UNL d   1     -49.721  13.285  22.946  0.00  0.00     0.027 A 
ATOM     21  C   UNL d   1     -48.928  13.152  22.770  0.00  0.00     0.002 A 
ENDBRANCH   1  12
BRANCH  10  22
ATOM     22  C   UNL d   1     -44.894  11.277  23.071  0.00  0.00     0.002 C 
ATOM     23  C   UNL d   1     -45.208  10.846  23.698  0.00  0.00     0.000 C 
ENDBRANCH  10  22
BRANCH   8  24
ATOM     24  O   UNL d   1     -44.036  12.399  22.217  0.00  0.00    -0.271 OA
BRANCH  24  25
ATOM     25  C   UNL d   1     -43.730  12.619  21.484  0.00  0.00     0.323 C 
ATOM     26  O   UNL d   1     -44.176  12.530  20.801  0.00  0.00    -0.257 OA
BRANCH  25  27
ATOM     27  C   UNL d   1     -42.965  12.934  21.435  0.00  0.00     0.163 A 
ATOM     28  O   UNL d   1     -42.296  12.650  21.820  0.00  0.00    -0.300 OA
ATOM     29  C   UNL d   1     -41.653  13.125  21.618  0.00  0.00     0.123 A 
ATOM     30  C   UNL d   1     -41.931  13.711  21.100  0.00  0.00     0.029 A 
ATOM     31  C   UNL d   1     -42.745  13.588  20.989  0.00  0.00     0.032 A 
ENDBRANCH  25  27
ENDBRANCH  24  25
ENDBRANCH   8  24
TORSDOF 5
ENDMDL
MODEL 2
REMARK VINA RESULT:      -5.7      0.838      1.203
REMARK  5 active torsions:
REMARK  status: ('A' for Active; 'I' for Inactive)
REMARK    1  A    between atoms: C_7  and  C_1 
REMARK    2  A    between atoms: C_6  and  O_13 
REMARK    3  A    between atoms: C_12  and  C_6 
REMARK    4  A    between atoms: O_13  and  C_10 
REMARK    5  A    between atoms: C_28  and  C_14 
ROOT
ATOM      1  C   UNL d   1     -47.343  13.144  22.716  0.00  0.00     0.064 A 
ATOM      2  C   UNL d   1     -46.078  12.491  22.789  0.00  0.00     0.062 A 
ATOM      3  C   UNL d   1     -46.870  12.540  23.014  0.00  0.00     0.199 A 
ATOM      4  C   UNL d   1     -47.026  13.699  22.196  0.00  0.00     0.126 A 
ATOM      5  C   UNL d   1     -45.762  13.046  22.269  0.00  0.00     0.105 A 
ATOM      6  O   UNL d   1     -46.236  13.651  21.971  0.00  0.00    -0.305 OA
ATOM      7  C   UNL d   1     -45.605  11.887  23.087  0.00  0.00     0.007 A 
ATOM      8  C   UNL d   1     -44.494  12.391  22.342  0.00  0.00     0.105 A 
ATOM      9  C   UNL d   1     -44.971  12.998  22.044  0.00  0.00     0.050 A 
ATOM     10  C   UNL d   1     -44.810  11.836  22.863  0.00  0.00     0.023 A 
ATOM     11  O   UNL d   1     -47.187  11.985  23.535  0.00  0.00    -0.286 OA
ENDROOT
BRANCH   1  12
ATOM     12  C   UNL d   1     -48.134  13.193  22.941  0.00  0.00     0.007 A 
ATOM     13  C   UNL d   1     -48.686  12.635  22.658  0.00  0.00     0.027 A 
ATOM     14  C   UNL d   1     -49.471  12.680  22.877  0.00  0.00     0.123 A 
ATOM     15  O   UNL d   1     -50.011  12.127  22.595  0.00  0.00    -0.301 OA
ATOM     16  C   UNL d   1     -49.728  13.289  23.391  0.00  0.00     0.123 A 
ATOM     17  C   UNL d   1     -50.806  12.174  22.819  0.00  0.00     0.149 A 
ATOM     18  C   UNL d   1     -51.063  12.773  23.325  0.00  0.00     0.149 A 
ATOM     19  O   UNL d   1     -50.518  13.335  23.613  0.00  0.00    -0.301 OA
ATOM     20  C   UNL d   1     -49.176  13.847  23.674  0.00  0.00     0.027 A 
ATOM     21  C   UNL d   1     -48.385  13.797  23.449  0.00  0.00     0.002 A 
ENDBRANCH   1  12
BRANCH  10  22
ATOM     22  C   UNL d   1     -44.329  11.228  23.161  0.00  0.00     0.002 C 
ATOM     23  C   UNL d   1     -44.671  10.544  23.466  0.00  0.00     0.000 C 
ENDBRANCH  10  22
BRANCH   8  24
ATOM     24  O   UNL d   1     -43.695  12.339  22.118  0.00  0.00    -0.271 OA
BRANCH  24  25
ATOM     25  C   UNL d   1     -43.447  12.649  21.395  0.00  0.00     0.323 C 
ATOM     26  O   UNL d   1     -43.932  12.609  20.735  0.00  0.00    -0.257 OA
BRANCH  25  27
ATOM     27  C   UNL d   1     -42.702  13.006  21.334  0.00  0.00     0.163 A 
ATOM     28  O   UNL d   1     -42.070  12.903  21.850  0.00  0.00    -0.300 OA
ATOM     29  C   UNL d   1     -41.435  13.359  21.585  0.00  0.00     0.123 A 
ATOM     30  C   UNL d   1     -41.682  13.749  20.895  0.00  0.00     0.029 A 
ATOM     31  C   UNL d   1     -42.468  13.526  20.743  0.00  0.00     0.032 A 
ENDBRANCH  25  27
ENDBRANCH  24  25
ENDBRANCH   8  24
TORSDOF 5
ENDMDL
MODEL 3
REMARK VINA RESULT:      -3.3      0.970      5.787
REMARK  5 active torsions:
REMARK  status: ('A' for Active; 'I' for Inactive)
REMARK    1  A    between atoms: C_7  and  C_1 
REMARK    2  A    between atoms: C_6  and  O_13 
REMARK    3  A    between atoms: C_12  and  C_6 
REMARK    4  A    between atoms: O_13  and  C_10 
REMARK    5  A    between atoms: C_28  and  C_14 
ROOT
ATOM      1  C   UNL d   1     -45.497  13.234  22.386  0.00  0.00     0.064 A 
ATOM      2  C   UNL d   1     -46.848  12.928  22.720  0.00  0.00     0.062 A 
ATOM      3  C   UNL d   1     -46.087  12.678  22.530  0.00  0.00     0.199 A 
ATOM      4  C   UNL d   1     -45.669  14.039  22.431  0.00  0.00     0.126 A 
ATOM      5  C   UNL d   1     -47.020  13.733  22.765  0.00  0.00     0.105 A 
ATOM      6  O   UNL d   1     -46.430  14.289  22.621  0.00  0.00    -0.305 OA
ATOM      7  C   UNL d   1     -47.438  12.372  22.864  0.00  0.00     0.007 A 
ATOM      8  C   UNL d   1     -48.374  13.426  23.100  0.00  0.00     0.105 A 
ATOM      9  C   UNL d   1     -47.780  13.983  22.955  0.00  0.00     0.050 A 
ATOM     10  C   UNL d   1     -48.203  12.621  23.055  0.00  0.00     0.023 A 
ATOM     11  O   UNL d   1     -45.915  11.872  22.484  0.00  0.00    -0.286 OA
ENDROOT
BRANCH   1  12
ATOM     12  C   UNL d   1     -44.736  12.984  22.196  0.00  0.00     0.007 A 
ATOM     13  C   UNL d   1     -44.259  13.439  21.683  0.00  0.00     0.027 A 
ATOM     14  C   UNL d   1     -43.505  13.195  21.493  0.00  0.00     0.123 A 
ATOM     15  O   UNL d   1     -43.040  13.648  20.987  0.00  0.00    -0.301 OA
ATOM     16  C   UNL d   1     -43.202  12.483  21.811  0.00  0.00     0.123 A 
ATOM     17  C   UNL d   1     -42.275  13.399  20.795  0.00  0.00     0.149 A 
ATOM     18  C   UNL d   1     -41.972  12.698  21.107  0.00  0.00     0.149 A 
ATOM     19  O   UNL d   1     -42.441  12.237  21.620  0.00  0.00    -0.301 OA
ATOM     20  C   UNL d   1     -43.678  12.028  22.324  0.00  0.00     0.027 A 
ATOM     21  C   UNL d   1     -44.439  12.279  22.513  0.00  0.00     0.002 A 
ENDBRANCH   1  12
BRANCH  10  22
ATOM     22  C   UNL d   1     -48.801  12.063  23.201  0.00  0.00     0.002 C 
ATOM     23  C   UNL d   1     -48.649  11.412  23.682  0.00  0.00     0.000 C 
ENDBRANCH  10  22
BRANCH   8  24
ATOM     24  O   UNL d   1     -49.144  13.674  23.292  0.00  0.00    -0.271 OA
BRANCH  24  25
ATOM     25  C   UNL d   1     -49.329  14.478  23.300  0.00  0.00     0.323 C 
ATOM     26  O   UNL d   1     -48.844  15.014  23.689  0.00  0.00    -0.257 OA
BRANCH  25  27
ATOM     27  C   UNL d   1     -50.010  14.747  22.913  0.00  0.00     0.163 A 
ATOM     28  O   UNL d   1     -50.393  14.376  22.288  0.00  0.00    -0.300 OA
ATOM     29  C   UNL d   1     -51.046  14.831  22.070  0.00  0.00     0.123 A 
ATOM     30  C   UNL d   1     -51.064  15.493  22.570  0.00  0.00     0.029 A 
ATOM     31  C   UNL d   1     -50.420  15.437  23.091  0.00  0.00     0.032 A 
ENDBRANCH  25  27
ENDBRANCH  24  25
ENDBRANCH   8  24
TORSDOF 5
ENDMDL
MODEL 4
REMARK VINA RESULT:      -3.0      1.947      6.207
REMARK  5 active torsions:
REMARK  status: ('A' for Active; 'I' for Inactive)
REMARK    1  A    between atoms: C_7  and  C_1 
REMARK    2  A    between atoms: C_6  and  O_13 
REMARK    3  A    between atoms: C_12  and  C_6 
REMARK    4  A    between atoms: O_13  and  C_10 
REMARK    5  A    between atoms: C_28  and  C_14 
ROOT
ATOM      1  C   UNL d   1     -42.995  13.347  21.436  0.00  0.00     0.064 A 
ATOM      2  C   UNL d   1     -43.724  12.369  22.173  0.00  0.00     0.062 A 
ATOM      3  C   UNL d   1     -43.024  12.617  21.816  0.00  0.00     0.199 A 
ATOM      4  C   UNL d   1     -43.663  13.828  21.413  0.00  0.00     0.126 A 
ATOM      5  C   UNL d   1     -44.392  12.850  22.150  0.00  0.00     0.105 A 
ATOM      6  O   UNL d   1     -44.362  13.581  21.770  0.00  0.00    -0.305 OA
ATOM      7  C   UNL d   1     -43.753  11.639  22.553  0.00  0.00     0.007 A 
ATOM      8  C   UNL d   1     -45.123  11.870  22.890  0.00  0.00     0.105 A 
ATOM      9  C   UNL d   1     -45.091  12.603  22.508  0.00  0.00     0.050 A 
ATOM     10  C   UNL d   1     -44.455  11.389  22.913  0.00  0.00     0.023 A 
ATOM     11  O   UNL d   1     -42.355  12.135  21.838  0.00  0.00    -0.286 OA
ENDROOT
BRANCH   1  12
ATOM     12  C   UNL d   1     -42.295  13.594  21.078  0.00  0.00     0.007 A 
ATOM     13  C   UNL d   1     -42.227  13.600  20.247  0.00  0.00     0.027 A 
ATOM     14  C   UNL d   1     -41.536  13.844  19.889  0.00  0.00     0.123 A 
ATOM     15  O   UNL d   1     -41.475  13.847  19.068  0.00  0.00    -0.301 OA
ATOM     16  C   UNL d   1     -40.887  14.093  20.356  0.00  0.00     0.123 A 
ATOM     17  C   UNL d   1     -40.773  14.096  18.707  0.00  0.00     0.149 A 
ATOM     18  C   UNL d   1     -40.131  14.341  19.164  0.00  0.00     0.149 A 
ATOM     19  O   UNL d   1     -40.190  14.339  19.996  0.00  0.00    -0.301 OA
ATOM     20  C   UNL d   1     -40.955  14.088  21.187  0.00  0.00     0.027 A 
ATOM     21  C   UNL d   1     -41.654  13.840  21.544  0.00  0.00     0.002 A 
ENDBRANCH   1  12
BRANCH  10  22
ATOM     22  C   UNL d   1     -44.488  10.653  23.297  0.00  0.00     0.002 C 
ATOM     23  C   UNL d   1     -43.795  10.242  23.462  0.00  0.00     0.000 C 
ENDBRANCH  10  22
BRANCH   8  24
ATOM     24  O   UNL d   1     -45.827  11.617  23.252  0.00  0.00    -0.271 OA
BRANCH  24  25
ATOM     25  C   UNL d   1     -46.396  12.169  23.480  0.00  0.00     0.323 C 
ATOM     26  O   UNL d   1     -46.178  12.928  23.698  0.00  0.00    -0.257 OA
BRANCH  25  27
ATOM     27  C   UNL d   1     -47.196  11.954  23.489  0.00  0.00     0.163 A 
ATOM     28  O   UNL d   1     -47.497  11.201  23.623  0.00  0.00    -0.300 OA
ATOM     29  C   UNL d   1     -48.320  11.233  23.583  0.00  0.00     0.123 A 
ATOM     30  C   UNL d   1     -48.530  12.020  23.422  0.00  0.00     0.029 A 
ATOM     31  C   UNL d   1     -47.829  12.463  23.365  0.00  0.00     0.032 A 
ENDBRANCH  25  27
ENDBRANCH  24  25
ENDBRANCH   8  24
TORSDOF 5
ENDMDL
MODEL 5
REMARK VINA RESULT:      -2.9      2.912      5.920
REMARK  5 active torsions:
REMARK  status: ('A' for Active; 'I' for Inactive)
REMARK    1  A    between atoms: C_7  and  C_1 
REMARK    2  A    between atoms: C_6  and  O_13 
REMARK    3  A    between atoms: C_12  and  C_6 
REMARK    4  A    between atoms: O_13  and  C_10 
REMARK    5  A    between atoms: C_28  and  C_14 
ROOT
ATOM      1  C   UNL d   1     -42.397  13.315  20.923  0.00  0.00     0.064 A 
ATOM      2  C   UNL d   1     -41.171  14.033  20.823  0.00  0.00     0.062 A 
ATOM      3  C   UNL d   1     -41.757  13.684  21.285  0.00  0.00     0.199 A 
ATOM      4  C   UNL d   1     -42.452  13.294  20.101  0.00  0.00     0.126 A 
ATOM      5  C   UNL d   1     -41.225  14.013  20.001  0.00  0.00     0.105 A 
ATOM      6  O   UNL d   1     -41.867  13.643  19.639  0.00  0.00    -0.305 OA
ATOM      7  C   UNL d   1     -40.530  14.403  21.185  0.00  0.00     0.007 A 
ATOM      8  C   UNL d   1     -39.995  14.733  19.901  0.00  0.00     0.105 A 
ATOM      9  C   UNL d   1     -40.640  14.361  19.539  0.00  0.00     0.050 A 
ATOM     10  C   UNL d   1     -39.940  14.754  20.723  0.00  0.00     0.023 A 
ATOM     11  O   UNL d   1     -41.702  13.705  22.108  0.00  0.00    -0.286 OA
ENDROOT
BRANCH   1  12
ATOM     12  C   UNL d   1     -42.983  12.966  21.385  0.00  0.00     0.007 A 
ATOM     13  C   UNL d   1     -43.729  13.332  21.465  0.00  0.00     0.027 A 
ATOM     14  C   UNL d   1     -44.312  12.990  21.921  0.00  0.00     0.123 A 
ATOM     15  O   UNL d   1     -45.046  13.356  21.997  0.00  0.00    -0.301 OA
ATOM     16  C   UNL d   1     -44.166  12.265  22.314  0.00  0.00     0.123 A 
ATOM     17  C   UNL d   1     -45.636  13.007  22.460  0.00  0.00     0.149 A 
ATOM     18  C   UNL d   1     -45.495  12.293  22.849  0.00  0.00     0.149 A 
ATOM     19  O   UNL d   1     -44.753  11.920  22.774  0.00  0.00    -0.301 OA
ATOM     20  C   UNL d   1     -43.420  11.899  22.234  0.00  0.00     0.027 A 
ATOM     21  C   UNL d   1     -42.835  12.248  21.773  0.00  0.00     0.002 A 
ENDBRANCH   1  12
BRANCH  10  22
ATOM     22  C   UNL d   1     -39.292  15.128  21.084  0.00  0.00     0.002 C 
ATOM     23  C   UNL d   1     -38.990  14.836  21.792  0.00  0.00     0.000 C 
ENDBRANCH  10  22
BRANCH   8  24
ATOM     24  O   UNL d   1     -39.402  15.086  19.439  0.00  0.00    -0.271 OA
BRANCH  24  25
ATOM     25  C   UNL d   1     -39.603  15.495  18.751  0.00  0.00     0.323 C 
ATOM     26  O   UNL d   1     -40.327  15.874  18.686  0.00  0.00    -0.257 OA
BRANCH  25  27
ATOM     27  C   UNL d   1     -39.068  15.523  18.118  0.00  0.00     0.163 A 
ATOM     28  O   UNL d   1     -38.265  15.691  18.167  0.00  0.00    -0.300 OA
ATOM     29  C   UNL d   1     -37.941  15.662  17.409  0.00  0.00     0.123 A 
ATOM     30  C   UNL d   1     -38.556  15.472  16.885  0.00  0.00     0.029 A 
ATOM     31  C   UNL d   1     -39.253  15.387  17.329  0.00  0.00     0.032 A 
ENDBRANCH  25  27
ENDBRANCH  24  25
ENDBRANCH   8  24
TORSDOF 5
ENDMDL
