MODEL 1
REMARK VINA RESULT:      -3.4      0.000      0.000
REMARK  4 active torsions:
REMARK  status: ('A' for Active; 'I' for Inactive)
REMARK    1  A    between atoms: S_9  and  C_1 
REMARK    2  A    between atoms: N_3  and  C_7 
REMARK    3  A    between atoms: C_13  and  S_9 
REMARK    4  A    between atoms: C_14  and  C_13 
ROOT
ATOM      1  S   UNL d   1      32.968  19.657 -22.084  0.00  0.00    -0.042 SA
ENDROOT
BRANCH   1   2
ATOM      2  C   UNL d   1      32.880  20.437 -21.847  0.00  0.00     0.215 A 
ATOM      3  N   UNL d   1      32.440  20.677 -21.199  0.00  0.00    -0.214 NA
ATOM      4  C   UNL d   1      32.496  21.482 -21.160  0.00  0.00     0.107 A 
ATOM      5  C   UNL d   1      32.175  22.031 -20.634  0.00  0.00     0.021 A 
ATOM      6  C   UNL d   1      32.966  21.743 -21.777  0.00  0.00     0.120 A 
ATOM      7  C   UNL d   1      32.321  22.839 -20.718  0.00  0.00     0.002 A 
ATOM      8  C   UNL d   1      32.791  23.100 -21.335  0.00  0.00     0.002 A 
ATOM      9  C   UNL d   1      33.111  22.551 -21.860  0.00  0.00     0.026 A 
ATOM     10  O   UNL d   1      33.208  21.105 -22.207  0.00  0.00    -0.283 OA
ENDBRANCH   1   2
BRANCH   1  11
ATOM     11  C   UNL d   1      32.921  19.491 -22.890  0.00  0.00     0.039 C 
BRANCH  11  12
ATOM     12  C   UNL d   1      32.802  18.723 -23.132  0.00  0.00     0.007 A 
ATOM     13  C   UNL d   1      33.241  18.127 -22.817  0.00  0.00     0.002 A 
ATOM     14  C   UNL d   1      33.119  17.336 -23.067  0.00  0.00     0.024 A 
ATOM     15  C   UNL d   1      32.561  17.158 -23.626  0.00  0.00     0.127 A 
ATOM     16  C   UNL d   1      32.089  17.779 -23.967  0.00  0.00     0.024 A 
ATOM     17  C   UNL d   1      32.228  18.562 -23.703  0.00  0.00     0.002 A 
BRANCH  15  18
ATOM     18  N   UNL d   1      32.478  16.375 -23.836  0.00  0.00    -0.114 N 
ATOM     19  O   UNL d   1      31.799  16.010 -23.610  0.00  0.00    -0.532 OA
ATOM     20  O   UNL d   1      33.077  15.976 -24.269  0.00  0.00    -0.532 OA
ENDBRANCH  15  18
ENDBRANCH  11  12
ENDBRANCH   1  11
TORSDOF 4
ENDMDL
MODEL 2
REMARK VINA RESULT:      -3.4      1.471      5.137
REMARK  4 active torsions:
REMARK  status: ('A' for Active; 'I' for Inactive)
REMARK    1  A    between atoms: S_9  and  C_1 
REMARK    2  A    between atoms: N_3  and  C_7 
REMARK    3  A    between atoms: C_13  and  S_9 
REMARK    4  A    between atoms: C_14  and  C_13 
ROOT
ATOM      1  S   UNL d   1      33.048  19.954 -22.544  0.00  0.00    -0.042 SA
ENDROOT
BRANCH   1   2
ATOM      2  C   UNL d   1      32.947  19.186 -22.811  0.00  0.00     0.215 A 
ATOM      3  N   UNL d   1      32.529  18.980 -23.485  0.00  0.00    -0.214 NA
ATOM      4  C   UNL d   1      32.564  18.176 -23.549  0.00  0.00     0.107 A 
ATOM      5  C   UNL d   1      32.251  17.655 -24.107  0.00  0.00     0.021 A 
ATOM      6  C   UNL d   1      33.000  17.880 -22.922  0.00  0.00     0.120 A 
ATOM      7  C   UNL d   1      32.369  16.840 -24.044  0.00  0.00     0.002 A 
ATOM      8  C   UNL d   1      32.805  16.544 -23.417  0.00  0.00     0.002 A 
ATOM      9  C   UNL d   1      33.117  17.066 -22.860  0.00  0.00     0.026 A 
ATOM     10  O   UNL d   1      33.241  18.496 -22.461  0.00  0.00    -0.283 OA
ENDBRANCH   1   2
BRANCH   1  11
ATOM     11  C   UNL d   1      32.862  20.117 -21.757  0.00  0.00     0.039 C 
BRANCH  11  12
ATOM     12  C   UNL d   1      32.766  20.890 -21.522  0.00  0.00     0.007 A 
ATOM     13  C   UNL d   1      32.216  21.080 -20.967  0.00  0.00     0.002 A 
ATOM     14  C   UNL d   1      32.118  21.876 -20.725  0.00  0.00     0.024 A 
ATOM     15  C   UNL d   1      32.571  22.466 -21.043  0.00  0.00     0.127 A 
ATOM     16  C   UNL d   1      33.157  22.280 -21.632  0.00  0.00     0.024 A 
ATOM     17  C   UNL d   1      33.238  21.477 -21.859  0.00  0.00     0.002 A 
BRANCH  15  18
ATOM     18  N   UNL d   1      32.439  23.225 -20.777  0.00  0.00    -0.114 N 
ATOM     19  O   UNL d   1      32.982  23.528 -20.269  0.00  0.00    -0.532 OA
ATOM     20  O   UNL d   1      31.767  23.662 -21.026  0.00  0.00    -0.532 OA
ENDBRANCH  15  18
ENDBRANCH  11  12
ENDBRANCH   1  11
TORSDOF 4
ENDMDL
MODEL 3
REMARK VINA RESULT:      -2.3      1.332      5.110
REMARK  4 active torsions:
REMARK  status: ('A' for Active; 'I' for Inactive)
REMARK    1  A    between atoms: S_9  and  C_1 
REMARK    2  A    between atoms: N_3  and  C_7 
REMARK    3  A    between atoms: C_13  and  S_9 
REMARK    4  A    between atoms: C_14  and  C_13 
ROOT
ATOM      1  S   UNL d   1      32.484  18.810 -22.902  0.00  0.00    -0.042 SA
ENDROOT
BRANCH   1   2
ATOM      2  C   UNL d   1      32.504  18.131 -23.361  0.00  0.00     0.215 A 
ATOM      3  N   UNL d   1      32.022  17.479 -23.246  0.00  0.00    -0.214 NA
ATOM      4  C   UNL d   1      32.218  16.937 -23.810  0.00  0.00     0.107 A 
ATOM      5  C   UNL d   1      31.927  16.182 -23.973  0.00  0.00     0.021 A 
ATOM      6  C   UNL d   1      32.817  17.245 -24.275  0.00  0.00     0.120 A 
ATOM      7  C   UNL d   1      32.228  15.732 -24.595  0.00  0.00     0.002 A 
ATOM      8  C   UNL d   1      32.828  16.041 -25.060  0.00  0.00     0.002 A 
ATOM      9  C   UNL d   1      33.118  16.795 -24.897  0.00  0.00     0.026 A 
ATOM     10  O   UNL d   1      33.001  17.983 -24.005  0.00  0.00    -0.283 OA
ENDBRANCH   1   2
BRANCH   1  11
ATOM     11  C   UNL d   1      33.201  19.120 -22.638  0.00  0.00     0.039 C 
BRANCH  11  12
ATOM     12  C   UNL d   1      33.204  19.820 -22.223  0.00  0.00     0.007 A 
ATOM     13  C   UNL d   1      33.237  20.522 -22.614  0.00  0.00     0.002 A 
ATOM     14  C   UNL d   1      33.241  21.243 -22.186  0.00  0.00     0.024 A 
ATOM     15  C   UNL d   1      33.211  21.246 -21.377  0.00  0.00     0.127 A 
ATOM     16  C   UNL d   1      33.175  20.511 -20.950  0.00  0.00     0.024 A 
ATOM     17  C   UNL d   1      33.173  19.802 -21.398  0.00  0.00     0.002 A 
BRANCH  15  18
ATOM     18  N   UNL d   1      33.216  21.972 -21.005  0.00  0.00    -0.114 N 
ATOM     19  O   UNL d   1      33.229  21.965 -20.202  0.00  0.00    -0.532 OA
ATOM     20  O   UNL d   1      33.208  22.686 -21.447  0.00  0.00    -0.532 OA
ENDBRANCH  15  18
ENDBRANCH  11  12
ENDBRANCH   1  11
TORSDOF 4
ENDMDL
MODEL 4
REMARK VINA RESULT:      -0.8      2.536      5.687
REMARK  4 active torsions:
REMARK  status: ('A' for Active; 'I' for Inactive)
REMARK    1  A    between atoms: S_9  and  C_1 
REMARK    2  A    between atoms: N_3  and  C_7 
REMARK    3  A    between atoms: C_13  and  S_9 
REMARK    4  A    between atoms: C_14  and  C_13 
ROOT
ATOM      1  S   UNL d   1      32.385  21.594 -20.614  0.00  0.00    -0.042 SA
ENDROOT
BRANCH   1   2
ATOM      2  C   UNL d   1      32.574  21.201 -21.307  0.00  0.00     0.215 A 
ATOM      3  N   UNL d   1      32.592  20.386 -21.388  0.00  0.00    -0.214 NA
ATOM      4  C   UNL d   1      32.801  20.228 -22.151  0.00  0.00     0.107 A 
ATOM      5  C   UNL d   1      32.908  19.517 -22.557  0.00  0.00     0.021 A 
ATOM      6  C   UNL d   1      32.914  20.936 -22.546  0.00  0.00     0.120 A 
ATOM      7  C   UNL d   1      33.128  19.507 -23.352  0.00  0.00     0.002 A 
ATOM      8  C   UNL d   1      33.241  20.215 -23.747  0.00  0.00     0.002 A 
ATOM      9  C   UNL d   1      33.133  20.925 -23.341  0.00  0.00     0.026 A 
ATOM     10  O   UNL d   1      32.776  21.543 -22.033  0.00  0.00    -0.283 OA
ENDBRANCH   1   2
BRANCH   1  11
ATOM     11  C   UNL d   1      32.884  22.203 -20.367  0.00  0.00     0.039 C 
BRANCH  11  12
ATOM     12  C   UNL d   1      32.833  22.474 -19.601  0.00  0.00     0.007 A 
ATOM     13  C   UNL d   1      32.575  21.987 -19.015  0.00  0.00     0.002 A 
ATOM     14  C   UNL d   1      32.522  22.266 -18.227  0.00  0.00     0.024 A 
ATOM     15  C   UNL d   1      32.730  23.026 -18.041  0.00  0.00     0.127 A 
ATOM     16  C   UNL d   1      33.005  23.552 -18.650  0.00  0.00     0.024 A 
ATOM     17  C   UNL d   1      33.049  23.252 -19.432  0.00  0.00     0.002 A 
BRANCH  15  18
ATOM     18  N   UNL d   1      32.662  23.252 -17.261  0.00  0.00    -0.114 N 
ATOM     19  O   UNL d   1      32.025  23.702 -17.069  0.00  0.00    -0.532 OA
ATOM     20  O   UNL d   1      33.234  23.022 -16.691  0.00  0.00    -0.532 OA
ENDBRANCH  15  18
ENDBRANCH  11  12
ENDBRANCH   1  11
TORSDOF 4
ENDMDL
