MODEL 1
REMARK VINA RESULT:      35.1      0.000      0.000
REMARK  2 active torsions:
REMARK  status: ('A' for Active; 'I' for Inactive)
REMARK    1  A    between atoms: N_9  and  C_3 
REMARK    2  A    between atoms: C_11  and  C_5 
ROOT
ATOM      1  N   UNL d   1      46.043 -17.451  43.243  0.00  0.00    -0.196 N 
ATOM      2  C   UNL d   1      46.238 -18.217  43.012  0.00  0.00     0.167 A 
ATOM      3  C   UNL d   1      46.028 -17.252  44.041  0.00  0.00     0.152 A 
ATOM      4  N   UNL d   1      45.894 -17.015  42.567  0.00  0.00    -0.163 NA
ATOM      5  C   UNL d   1      46.210 -18.255  42.192  0.00  0.00     0.055 A 
ATOM      6  C   UNL d   1      45.998 -17.514  41.915  0.00  0.00     0.104 A 
ATOM      7  N   UNL d   1      46.418 -18.786  43.579  0.00  0.00    -0.227 NA
ATOM      8  C   UNL d   1      46.208 -17.823  44.616  0.00  0.00     0.057 A 
ATOM      9  C   UNL d   1      46.404 -18.589  44.385  0.00  0.00     0.086 A 
ATOM     10  C   UNL d   1      45.903 -17.303  41.123  0.00  0.00     0.023 C 
ATOM     11  C   UNL d   1      46.587 -19.171  44.952  0.00  0.00     0.021 C 
ENDROOT
BRANCH   5  12
ATOM     12  C   UNL d   1      46.350 -18.869  41.657  0.00  0.00     0.004 A 
ATOM     13  C   UNL d   1      46.337 -18.715  40.842  0.00  0.00     0.000 A 
ATOM     14  C   UNL d   1      46.477 -19.328  40.307  0.00  0.00     0.000 A 
ATOM     15  C   UNL d   1      46.628 -20.092  40.580  0.00  0.00     0.000 A 
ATOM     16  C   UNL d   1      46.640 -20.243  41.398  0.00  0.00     0.000 A 
ATOM     17  C   UNL d   1      46.501 -19.632  41.930  0.00  0.00     0.000 A 
ENDBRANCH   5  12
BRANCH   3  18
ATOM     18  N   UNL d   1      45.832 -16.485  44.273  0.00  0.00    -0.289 N 
ATOM     19  C   UNL d   1      45.124 -16.274  44.636  0.00  0.00     0.082 A 
ATOM     20  C   UNL d   1      45.137 -15.459  44.781  0.00  0.00     0.021 A 
ATOM     21  C   UNL d   1      45.860 -15.174  44.503  0.00  0.00     0.021 A 
ATOM     22  C   UNL d   1      46.290 -15.790  44.193  0.00  0.00     0.082 A 
ENDBRANCH   3  18
TORSDOF 2
ENDMDL
MODEL 2
REMARK VINA RESULT:      35.4      0.803      3.784
REMARK  2 active torsions:
REMARK  status: ('A' for Active; 'I' for Inactive)
REMARK    1  A    between atoms: N_9  and  C_3 
REMARK    2  A    between atoms: C_11  and  C_5 
ROOT
ATOM      1  N   UNL d   1      46.263 -18.222  42.797  0.00  0.00    -0.196 N 
ATOM      2  C   UNL d   1      46.192 -17.851  43.530  0.00  0.00     0.167 A 
ATOM      3  C   UNL d   1      46.458 -19.020  42.757  0.00  0.00     0.152 A 
ATOM      4  N   UNL d   1      46.110 -17.664  42.219  0.00  0.00    -0.163 NA
ATOM      5  C   UNL d   1      45.995 -17.064  43.404  0.00  0.00     0.055 A 
ATOM      6  C   UNL d   1      45.944 -16.946  42.594  0.00  0.00     0.104 A 
ATOM      7  N   UNL d   1      46.316 -18.278  44.222  0.00  0.00    -0.227 NA
ATOM      8  C   UNL d   1      46.584 -19.454  43.452  0.00  0.00     0.057 A 
ATOM      9  C   UNL d   1      46.513 -19.083  44.185  0.00  0.00     0.086 A 
ATOM     10  C   UNL d   1      45.759 -16.234  42.221  0.00  0.00     0.023 C 
ATOM     11  C   UNL d   1      46.636 -19.508  44.890  0.00  0.00     0.021 C 
ENDROOT
BRANCH   5  12
ATOM     12  C   UNL d   1      45.854 -16.434  43.919  0.00  0.00     0.004 A 
ATOM     13  C   UNL d   1      46.481 -15.944  44.152  0.00  0.00     0.000 A 
ATOM     14  C   UNL d   1      46.341 -15.314  44.668  0.00  0.00     0.000 A 
ATOM     15  C   UNL d   1      45.579 -15.172  44.950  0.00  0.00     0.000 A 
ATOM     16  C   UNL d   1      44.952 -15.664  44.715  0.00  0.00     0.000 A 
ATOM     17  C   UNL d   1      45.093 -16.291  44.202  0.00  0.00     0.000 A 
ENDBRANCH   5  12
BRANCH   3  18
ATOM     18  N   UNL d   1      46.529 -19.391  42.023  0.00  0.00    -0.289 N 
ATOM     19  C   UNL d   1      46.579 -18.994  41.303  0.00  0.00     0.082 A 
ATOM     20  C   UNL d   1      46.644 -19.557  40.699  0.00  0.00     0.021 A 
ATOM     21  C   UNL d   1      46.635 -20.301  41.056  0.00  0.00     0.021 A 
ATOM     22  C   UNL d   1      46.566 -20.210  41.861  0.00  0.00     0.082 A 
ENDBRANCH   3  18
TORSDOF 2
ENDMDL
