MODEL 1
REMARK VINA RESULT:      -7.7      0.000      0.000
REMARK  4 active torsions:
REMARK  status: ('A' for Active; 'I' for Inactive)
REMARK    1  A    between atoms: C_2  and  N_1 
REMARK       I    between atoms: C_3  and  N_1 
REMARK    2  A    between atoms: N_5  and  C_2 
REMARK    3  A    between atoms: C_4  and  C_3 
REMARK    4  A    between atoms: C_7  and  N_5 
ROOT
ATOM      1  C   UNL d   1      52.798  32.551  53.163  0.00  0.00     0.224 C 
ATOM      2  S   UNL d   1      52.730  31.729  53.110  0.00  0.00    -0.037 SA
ENDROOT
BRANCH   1   3
ATOM      3  N   UNL d   1      53.198  32.893  53.797  0.00  0.00    -0.177 NA
ATOM      4  C   UNL d   1      53.998  32.730  53.923  0.00  0.00     0.304 C 
ATOM      5  O   UNL d   1      54.395  32.220  53.409  0.00  0.00    -0.263 OA
BRANCH   4   6
ATOM      6  C   UNL d   1      54.399  33.072  54.558  0.00  0.00     0.158 A 
ATOM      7  O   UNL d   1      54.203  32.974  55.359  0.00  0.00    -0.300 OA
ATOM      8  C   UNL d   1      54.753  33.416  55.797  0.00  0.00     0.123 A 
ATOM      9  C   UNL d   1      55.275  33.778  55.271  0.00  0.00     0.029 A 
ATOM     10  C   UNL d   1      55.055  33.565  54.505  0.00  0.00     0.032 A 
ENDBRANCH   4   6
ENDBRANCH   1   3
BRANCH   1  11
ATOM     11  N   UNL d   1      52.460  33.028  52.573  0.00  0.00    -0.215 NA
BRANCH  11  12
ATOM     12  C   UNL d   1      51.730  33.392  52.697  0.00  0.00     0.112 A 
ATOM     13  C   UNL d   1      51.527  34.079  52.267  0.00  0.00     0.156 A 
ATOM     14  N   UNL d   1      50.797  34.443  52.391  0.00  0.00    -0.231 NA
ATOM     15 CL   UNL d   1      52.063  34.393  51.714  0.00  0.00    -0.060 Cl
ATOM     16  C   UNL d   1      50.268  34.128  52.941  0.00  0.00     0.100 A 
ATOM     17  C   UNL d   1      50.470  33.448  53.366  0.00  0.00     0.022 A 
ATOM     18  C   UNL d   1      51.201  33.077  53.246  0.00  0.00     0.023 A 
ENDBRANCH  11  12
ENDBRANCH   1  11
TORSDOF 4
ENDMDL
MODEL 2
REMARK VINA RESULT:      -7.6      1.984      2.790
REMARK  4 active torsions:
REMARK  status: ('A' for Active; 'I' for Inactive)
REMARK    1  A    between atoms: C_2  and  N_1 
REMARK       I    between atoms: C_3  and  N_1 
REMARK    2  A    between atoms: N_5  and  C_2 
REMARK    3  A    between atoms: C_4  and  C_3 
REMARK    4  A    between atoms: C_7  and  N_5 
ROOT
ATOM      1  C   UNL d   1      53.865  32.898  53.824  0.00  0.00     0.224 C 
ATOM      2  S   UNL d   1      54.617  33.019  54.143  0.00  0.00    -0.037 SA
ENDROOT
BRANCH   1   3
ATOM      3  N   UNL d   1      53.501  32.161  53.891  0.00  0.00    -0.177 NA
ATOM      4  C   UNL d   1      53.815  31.503  53.504  0.00  0.00     0.304 C 
ATOM      5  O   UNL d   1      54.499  31.588  53.048  0.00  0.00    -0.263 OA
BRANCH   4   6
ATOM      6  C   UNL d   1      53.451  30.765  53.571  0.00  0.00     0.158 A 
ATOM      7  O   UNL d   1      53.564  30.229  54.195  0.00  0.00    -0.300 OA
ATOM      8  C   UNL d   1      53.090  29.567  54.031  0.00  0.00     0.123 A 
ATOM      9  C   UNL d   1      52.696  29.697  53.318  0.00  0.00     0.029 A 
ATOM     10  C   UNL d   1      52.920  30.439  53.034  0.00  0.00     0.032 A 
ENDBRANCH   4   6
ENDBRANCH   1   3
BRANCH   1  11
ATOM     11  N   UNL d   1      53.479  33.523  53.436  0.00  0.00    -0.215 NA
BRANCH  11  12
ATOM     12  C   UNL d   1      53.212  34.177  53.861  0.00  0.00     0.112 A 
ATOM     13  C   UNL d   1      52.689  34.722  53.504  0.00  0.00     0.156 A 
ATOM     14  N   UNL d   1      52.422  35.376  53.929  0.00  0.00    -0.231 NA
ATOM     15 CL   UNL d   1      52.439  34.601  52.719  0.00  0.00    -0.060 Cl
ATOM     16  C   UNL d   1      52.672  35.492  54.707  0.00  0.00     0.100 A 
ATOM     17  C   UNL d   1      53.190  34.953  55.060  0.00  0.00     0.022 A 
ATOM     18  C   UNL d   1      53.463  34.293  54.638  0.00  0.00     0.023 A 
ENDBRANCH  11  12
ENDBRANCH   1  11
TORSDOF 4
ENDMDL
MODEL 3
REMARK VINA RESULT:      -7.5      2.259      3.243
REMARK  4 active torsions:
REMARK  status: ('A' for Active; 'I' for Inactive)
REMARK    1  A    between atoms: C_2  and  N_1 
REMARK       I    between atoms: C_3  and  N_1 
REMARK    2  A    between atoms: N_5  and  C_2 
REMARK    3  A    between atoms: C_4  and  C_3 
REMARK    4  A    between atoms: C_7  and  N_5 
ROOT
ATOM      1  C   UNL d   1      52.981  32.597  53.290  0.00  0.00     0.224 C 
ATOM      2  S   UNL d   1      52.357  32.870  52.823  0.00  0.00    -0.037 SA
ENDROOT
BRANCH   1   3
ATOM      3  N   UNL d   1      52.970  31.828  53.587  0.00  0.00    -0.177 NA
ATOM      4  C   UNL d   1      52.944  31.182  53.073  0.00  0.00     0.304 C 
ATOM      5  O   UNL d   1      52.929  31.312  52.257  0.00  0.00    -0.263 OA
BRANCH   4   6
ATOM      6  C   UNL d   1      52.934  30.412  53.370  0.00  0.00     0.158 A 
ATOM      7  O   UNL d   1      52.294  29.885  53.315  0.00  0.00    -0.300 OA
ATOM      8  C   UNL d   1      52.530  29.181  53.686  0.00  0.00     0.123 A 
ATOM      9  C   UNL d   1      53.301  29.277  53.963  0.00  0.00     0.029 A 
ATOM     10  C   UNL d   1      53.550  30.039  53.766  0.00  0.00     0.032 A 
ENDBRANCH   4   6
ENDBRANCH   1   3
BRANCH   1  11
ATOM     11  N   UNL d   1      53.619  33.102  53.457  0.00  0.00    -0.215 NA
BRANCH  11  12
ATOM     12  C   UNL d   1      53.531  33.723  53.993  0.00  0.00     0.112 A 
ATOM     13  C   UNL d   1      54.129  33.878  54.554  0.00  0.00     0.156 A 
ATOM     14  N   UNL d   1      54.041  34.499  55.091  0.00  0.00    -0.231 NA
ATOM     15 CL   UNL d   1      54.814  33.405  54.569  0.00  0.00    -0.060 Cl
ATOM     16  C   UNL d   1      53.361  34.965  55.072  0.00  0.00     0.100 A 
ATOM     17  C   UNL d   1      52.768  34.811  54.517  0.00  0.00     0.022 A 
ATOM     18  C   UNL d   1      52.851  34.189  53.975  0.00  0.00     0.023 A 
ENDBRANCH  11  12
ENDBRANCH   1  11
TORSDOF 4
ENDMDL
MODEL 4
REMARK VINA RESULT:      -7.4      1.611      3.717
REMARK  4 active torsions:
REMARK  status: ('A' for Active; 'I' for Inactive)
REMARK    1  A    between atoms: C_2  and  N_1 
REMARK       I    between atoms: C_3  and  N_1 
REMARK    2  A    between atoms: N_5  and  C_2 
REMARK    3  A    between atoms: C_4  and  C_3 
REMARK    4  A    between atoms: C_7  and  N_5 
ROOT
ATOM      1  C   UNL d   1      53.321  32.305  53.556  0.00  0.00     0.224 C 
ATOM      2  S   UNL d   1      53.165  31.496  53.610  0.00  0.00    -0.037 SA
ENDROOT
BRANCH   1   3
ATOM      3  N   UNL d   1      52.699  32.843  53.501  0.00  0.00    -0.177 NA
ATOM      4  C   UNL d   1      52.176  32.815  52.863  0.00  0.00     0.304 C 
ATOM      5  O   UNL d   1      52.281  32.241  52.277  0.00  0.00    -0.263 OA
BRANCH   4   6
ATOM      6  C   UNL d   1      51.553  33.353  52.807  0.00  0.00     0.158 A 
ATOM      7  O   UNL d   1      50.861  33.335  53.266  0.00  0.00    -0.300 OA
ATOM      8  C   UNL d   1      50.395  33.978  53.023  0.00  0.00     0.123 A 
ATOM      9  C   UNL d   1      50.797  34.380  52.425  0.00  0.00     0.029 A 
ATOM     10  C   UNL d   1      51.513  33.993  52.293  0.00  0.00     0.032 A 
ENDBRANCH   4   6
ENDBRANCH   1   3
BRANCH   1  11
ATOM     11  N   UNL d   1      54.108  32.572  53.557  0.00  0.00    -0.215 NA
BRANCH  11  12
ATOM     12  C   UNL d   1      54.430  32.919  54.232  0.00  0.00     0.112 A 
ATOM     13  C   UNL d   1      55.134  33.365  54.176  0.00  0.00     0.156 A 
ATOM     14  N   UNL d   1      55.457  33.713  54.851  0.00  0.00    -0.231 NA
ATOM     15 CL   UNL d   1      55.508  33.456  53.438  0.00  0.00    -0.060 Cl
ATOM     16  C   UNL d   1      55.084  33.620  55.580  0.00  0.00     0.100 A 
ATOM     17  C   UNL d   1      54.386  33.178  55.635  0.00  0.00     0.022 A 
ATOM     18  C   UNL d   1      54.057  32.826  54.961  0.00  0.00     0.023 A 
ENDBRANCH  11  12
ENDBRANCH   1  11
TORSDOF 4
ENDMDL
MODEL 5
REMARK VINA RESULT:      -7.0      2.312      3.807
REMARK  4 active torsions:
REMARK  status: ('A' for Active; 'I' for Inactive)
REMARK    1  A    between atoms: C_2  and  N_1 
REMARK       I    between atoms: C_3  and  N_1 
REMARK    2  A    between atoms: N_5  and  C_2 
REMARK    3  A    between atoms: C_4  and  C_3 
REMARK    4  A    between atoms: C_7  and  N_5 
ROOT
ATOM      1  C   UNL d   1      53.275  32.050  53.520  0.00  0.00     0.224 C 
ATOM      2  S   UNL d   1      53.864  32.391  53.988  0.00  0.00    -0.037 SA
ENDROOT
BRANCH   1   3
ATOM      3  N   UNL d   1      52.546  32.425  53.433  0.00  0.00    -0.177 NA
ATOM      4  C   UNL d   1      52.503  33.186  53.114  0.00  0.00     0.304 C 
ATOM      5  O   UNL d   1      53.197  33.569  52.882  0.00  0.00    -0.263 OA
BRANCH   4   6
ATOM      6  C   UNL d   1      51.773  33.562  53.027  0.00  0.00     0.158 A 
ATOM      7  O   UNL d   1      51.067  33.330  53.396  0.00  0.00    -0.300 OA
ATOM      8  C   UNL d   1      50.480  33.864  53.150  0.00  0.00     0.123 A 
ATOM      9  C   UNL d   1      50.825  34.413  52.639  0.00  0.00     0.029 A 
ATOM     10  C   UNL d   1      51.625  34.225  52.564  0.00  0.00     0.032 A 
ENDBRANCH   4   6
ENDBRANCH   1   3
BRANCH   1  11
ATOM     11  N   UNL d   1      53.423  31.327  53.138  0.00  0.00    -0.215 NA
BRANCH  11  12
ATOM     12  C   UNL d   1      53.308  30.613  53.536  0.00  0.00     0.112 A 
ATOM     13  C   UNL d   1      53.022  29.946  53.123  0.00  0.00     0.156 A 
ATOM     14  N   UNL d   1      52.907  29.233  53.520  0.00  0.00    -0.231 NA
ATOM     15 CL   UNL d   1      52.852  30.005  52.310  0.00  0.00    -0.060 Cl
ATOM     16  C   UNL d   1      53.076  29.179  54.326  0.00  0.00     0.100 A 
ATOM     17  C   UNL d   1      53.360  29.839  54.734  0.00  0.00     0.022 A 
ATOM     18  C   UNL d   1      53.477  30.559  54.341  0.00  0.00     0.023 A 
ENDBRANCH  11  12
ENDBRANCH   1  11
TORSDOF 4
ENDMDL
