MODEL 1
REMARK VINA RESULT:      49.1      0.000      0.000
REMARK  6 active torsions:
REMARK  status: ('A' for Active; 'I' for Inactive)
REMARK    1  A    between atoms: C_19  and  N_1 
REMARK    2  A    between atoms: S_12  and  C_2 
REMARK       I    between atoms: N_7  and  C_10 
REMARK    3  A    between atoms: C_10  and  C_23 
REMARK    4  A    between atoms: C_23  and  S_12 
REMARK    5  A    between atoms: O_26  and  C_17 
REMARK    6  A    between atoms: O_27  and  C_18 
ROOT
ATOM      1  S   UNL d   1      45.512 -14.486  44.191  0.00  0.00    -0.044 SA
ENDROOT
BRANCH   1   2
ATOM      2  C   UNL d   1      45.405 -13.882  43.644  0.00  0.00     0.183 A 
ATOM      3  N   UNL d   1      44.661 -13.526  43.558  0.00  0.00    -0.254 N 
ATOM      4  C   UNL d   1      44.552 -12.919  43.010  0.00  0.00     0.271 A 
ATOM      5  C   UNL d   1      45.186 -12.664  42.544  0.00  0.00     0.115 A 
ATOM      6  O   UNL d   1      43.802 -12.566  42.929  0.00  0.00    -0.266 OA
ATOM      7  C   UNL d   1      45.931 -13.023  42.632  0.00  0.00     0.192 A 
ATOM      8  C   UNL d   1      45.249 -12.083  41.960  0.00  0.00     0.130 A 
ATOM      9  N   UNL d   1      46.446 -12.658  42.101  0.00  0.00    -0.128 NA
ATOM     10  N   UNL d   1      46.039 -13.627  43.178  0.00  0.00    -0.201 NA
ATOM     11  N   UNL d   1      46.030 -12.087  41.693  0.00  0.00    -0.145 NA
BRANCH   3  12
ATOM     12  C   UNL d   1      44.030 -13.779  44.022  0.00  0.00     0.069 A 
ATOM     13  C   UNL d   1      43.330 -13.344  44.037  0.00  0.00     0.018 A 
ATOM     14  C   UNL d   1      42.692 -13.600  44.506  0.00  0.00     0.002 A 
ATOM     15  C   UNL d   1      42.762 -14.289  44.954  0.00  0.00     0.000 A 
ATOM     16  C   UNL d   1      43.460 -14.721  44.938  0.00  0.00     0.002 A 
ATOM     17  C   UNL d   1      44.098 -14.465  44.470  0.00  0.00     0.018 A 
ENDBRANCH   3  12
ENDBRANCH   1   2
BRANCH   1  18
ATOM     18  C   UNL d   1      46.228 -14.895  44.218  0.00  0.00     0.099 C 
BRANCH  18  19
ATOM     19  C   UNL d   1      46.383 -15.489  43.672  0.00  0.00     0.271 C 
ATOM     20  N   UNL d   1      46.314 -16.285  43.894  0.00  0.00    -0.272 N 
ATOM     21  C   UNL d   1      46.469 -16.883  43.347  0.00  0.00     0.083 A 
ATOM     22  C   UNL d   1      46.090 -16.478  44.662  0.00  0.00     0.083 A 
ATOM     23  C   UNL d   1      46.399 -17.671  43.571  0.00  0.00     0.020 A 
ATOM     24  C   UNL d   1      46.554 -18.265  43.025  0.00  0.00     0.028 A 
ATOM     25  C   UNL d   1      46.176 -17.864  44.339  0.00  0.00     0.005 A 
ATOM     26  C   UNL d   1      46.485 -19.061  43.246  0.00  0.00     0.116 A 
ATOM     27  C   UNL d   1      46.261 -19.254  44.015  0.00  0.00     0.116 A 
ATOM     28  C   UNL d   1      46.107 -18.651  44.561  0.00  0.00     0.026 A 
ATOM     29  C   UNL d   1      46.021 -17.269  44.884  0.00  0.00     0.019 A 
ATOM     30  O   UNL d   1      46.606 -15.292  42.905  0.00  0.00    -0.266 OA
BRANCH  26  31
ATOM     31  O   UNL d   1      46.640 -19.660  42.700  0.00  0.00    -0.326 OA
ATOM     32  C   UNL d   1      46.643 -19.498  41.893  0.00  0.00     0.181 C 
ENDBRANCH  26  31
BRANCH  27  33
ATOM     33  O   UNL d   1      46.189 -20.049  44.248  0.00  0.00    -0.326 OA
ATOM     34  C   UNL d   1      46.529 -20.307  44.952  0.00  0.00     0.181 C 
ENDBRANCH  27  33
ENDBRANCH  18  19
ENDBRANCH   1  18
TORSDOF 6
ENDMDL
