MODEL 1
REMARK VINA RESULT:      42.6      0.000      0.000
REMARK  7 active torsions:
REMARK  status: ('A' for Active; 'I' for Inactive)
REMARK    1  A    between atoms: C_2  and  C_1 
REMARK    2  A    between atoms: C_16  and  N_4 
REMARK    3  A    between atoms: C_14  and  C_21 
REMARK    4  A    between atoms: C_22  and  C_16 
REMARK    5  A    between atoms: C_21  and  C_23 
REMARK    6  A    between atoms: C_25  and  C_22 
REMARK    7  A    between atoms: C_23  and  C_25 
ROOT
ATOM      1  C   UNL d   1      13.739  12.414  -3.047  0.00  0.00     0.093 A 
ATOM      2  N   UNL d   1      13.168  13.141  -3.977  0.00  0.00    -0.259 N 
ATOM      3  C   UNL d   1      13.163  12.368  -4.225  0.00  0.00     0.153 A 
ATOM      4  C   UNL d   1      13.523  13.166  -3.251  0.00  0.00     0.272 A 
ATOM      5  S   UNL d   1      13.519  11.916  -3.646  0.00  0.00    -0.053 SA
ATOM      6  S   UNL d   1      12.847  12.107  -4.947  0.00  0.00    -0.052 SA
ATOM      7  O   UNL d   1      13.645  13.865  -2.787  0.00  0.00    -0.266 OA
ENDROOT
BRANCH   1   8
ATOM      8  C   UNL d   1      14.121  12.274  -2.319  0.00  0.00     0.069 A 
ATOM      9  C   UNL d   1      14.940  12.276  -2.223  0.00  0.00     0.265 A 
ATOM     10  N   UNL d   1      15.115  12.121  -1.451  0.00  0.00    -0.272 N 
ATOM     11  O   UNL d   1      15.503  12.415  -2.826  0.00  0.00    -0.267 OA
ATOM     12  C   UNL d   1      15.888  12.074  -1.129  0.00  0.00     0.102 C 
ATOM     13  C   UNL d   1      14.409  12.019  -1.049  0.00  0.00     0.067 A 
ATOM     14  C   UNL d   1      13.784  12.115  -1.593  0.00  0.00     0.021 A 
ATOM     15  C   UNL d   1      14.242  11.854  -0.270  0.00  0.00     0.018 A 
ATOM     16  C   UNL d   1      13.003  12.042  -1.338  0.00  0.00     0.002 A 
ATOM     17  C   UNL d   1      12.810  11.875  -0.555  0.00  0.00     0.000 A 
ATOM     18  C   UNL d   1      13.452  11.781  -0.014  0.00  0.00     0.002 A 
ENDBRANCH   1   8
BRANCH   2  19
ATOM     19  C   UNL d   1      12.856  13.789  -4.404  0.00  0.00     0.084 C 
BRANCH  19  20
ATOM     20  C   UNL d   1      13.212  14.015  -5.095  0.00  0.00     0.019 C 
BRANCH  20  21
ATOM     21  C   UNL d   1      13.626  14.740  -5.124  0.00  0.00     0.002 C 
BRANCH  21  22
ATOM     22  C   UNL d   1      14.149  14.874  -5.727  0.00  0.00     0.006 C 
BRANCH  22  23
ATOM     23  C   UNL d   1      14.027  15.524  -6.239  0.00  0.00     0.070 C 
BRANCH  23  24
ATOM     24  C   UNL d   1      14.233  16.270  -6.002  0.00  0.00     0.211 C 
ATOM     25  O   UNL d   1      15.000  16.424  -5.728  0.00  0.00    -0.644 OA
ATOM     26  O   UNL d   1      13.694  16.888  -6.025  0.00  0.00    -0.644 OA
ENDBRANCH  23  24
ENDBRANCH  22  23
ENDBRANCH  21  22
ENDBRANCH  20  21
ENDBRANCH  19  20
ENDBRANCH   2  19
TORSDOF 7
ENDMDL
MODEL 2
REMARK VINA RESULT:      44.5      2.721      3.787
REMARK  7 active torsions:
REMARK  status: ('A' for Active; 'I' for Inactive)
REMARK    1  A    between atoms: C_2  and  C_1 
REMARK    2  A    between atoms: C_16  and  N_4 
REMARK    3  A    between atoms: C_14  and  C_21 
REMARK    4  A    between atoms: C_22  and  C_16 
REMARK    5  A    between atoms: C_21  and  C_23 
REMARK    6  A    between atoms: C_25  and  C_22 
REMARK    7  A    between atoms: C_23  and  C_25 
ROOT
ATOM      1  C   UNL d   1      15.097  13.672  -0.523  0.00  0.00     0.093 A 
ATOM      2  N   UNL d   1      14.230  12.838  -1.045  0.00  0.00    -0.259 N 
ATOM      3  C   UNL d   1      14.491  12.522  -0.344  0.00  0.00     0.153 A 
ATOM      4  C   UNL d   1      14.605  13.546  -1.152  0.00  0.00     0.272 A 
ATOM      5  S   UNL d   1      15.030  13.041  -0.020  0.00  0.00    -0.053 SA
ATOM      6  S   UNL d   1      14.238  11.795  -0.033  0.00  0.00    -0.052 SA
ATOM      7  O   UNL d   1      14.498  14.065  -1.814  0.00  0.00    -0.266 OA
ENDROOT
BRANCH   1   8
ATOM      8  C   UNL d   1      15.557  14.366  -0.486  0.00  0.00     0.069 A 
ATOM      9  C   UNL d   1      16.348  14.380  -0.249  0.00  0.00     0.265 A 
ATOM     10  N   UNL d   1      16.618  15.140  -0.280  0.00  0.00    -0.272 N 
ATOM     11  O   UNL d   1      16.800  13.718  -0.014  0.00  0.00    -0.267 OA
ATOM     12  C   UNL d   1      17.395  15.387  -0.082  0.00  0.00     0.102 C 
ATOM     13  C   UNL d   1      16.002  15.615  -0.537  0.00  0.00     0.067 A 
ATOM     14  C   UNL d   1      15.336  15.130  -0.666  0.00  0.00     0.021 A 
ATOM     15  C   UNL d   1      15.950  16.416  -0.671  0.00  0.00     0.018 A 
ATOM     16  C   UNL d   1      14.630  15.466  -0.930  0.00  0.00     0.002 A 
ATOM     17  C   UNL d   1      14.553  16.273  -1.072  0.00  0.00     0.000 A 
ATOM     18  C   UNL d   1      15.235  16.753  -0.937  0.00  0.00     0.002 A 
ENDBRANCH   1   8
BRANCH   2  19
ATOM     19  C   UNL d   1      13.672  12.485  -1.558  0.00  0.00     0.084 C 
BRANCH  19  20
ATOM     20  C   UNL d   1      13.856  12.395  -2.341  0.00  0.00     0.019 C 
BRANCH  20  21
ATOM     21  C   UNL d   1      13.315  12.007  -2.846  0.00  0.00     0.002 C 
BRANCH  21  22
ATOM     22  C   UNL d   1      13.549  11.799  -3.593  0.00  0.00     0.006 C 
BRANCH  22  23
ATOM     23  C   UNL d   1      13.103  12.061  -4.249  0.00  0.00     0.070 C 
BRANCH  23  24
ATOM     24  C   UNL d   1      13.270  12.777  -4.590  0.00  0.00     0.211 C 
ATOM     25  O   UNL d   1      13.934  12.863  -5.078  0.00  0.00    -0.644 OA
ATOM     26  O   UNL d   1      12.790  13.430  -4.463  0.00  0.00    -0.644 OA
ENDBRANCH  23  24
ENDBRANCH  22  23
ENDBRANCH  21  22
ENDBRANCH  20  21
ENDBRANCH  19  20
ENDBRANCH   2  19
TORSDOF 7
ENDMDL
