MODEL 1
REMARK VINA RESULT:      -6.2      0.000      0.000
REMARK  5 active torsions:
REMARK  status: ('A' for Active; 'I' for Inactive)
REMARK    1  A    between atoms: N_6  and  C_1 
REMARK    2  A    between atoms: C_10  and  C_2 
REMARK       I    between atoms: C_9  and  N_6 
REMARK    3  A    between atoms: C_14  and  C_9 
REMARK    4  A    between atoms: C_13  and  C_15 
REMARK    5  A    between atoms: C_19  and  C_13 
ROOT
ATOM      1  N   UNL d   1     -47.184  12.883  22.490  0.00  0.00    -0.201 NA
ATOM      2  C   UNL d   1     -46.519  13.306  22.733  0.00  0.00     0.280 C 
ATOM      3  O   UNL d   1     -46.603  13.989  23.184  0.00  0.00    -0.265 OA
ENDROOT
BRANCH   1   4
ATOM      4  C   UNL d   1     -47.942  13.143  22.699  0.00  0.00     0.118 A 
ATOM      5  C   UNL d   1     -48.582  12.667  22.910  0.00  0.00     0.083 A 
ATOM      6  C   UNL d   1     -49.216  13.161  23.071  0.00  0.00     0.008 A 
ATOM      7  C   UNL d   1     -49.992  12.991  23.306  0.00  0.00    -0.004 A 
ATOM      8  C   UNL d   1     -48.980  13.934  22.964  0.00  0.00     0.028 A 
ATOM      9  C   UNL d   1     -50.524  13.611  23.431  0.00  0.00     0.099 A 
ATOM     10  C   UNL d   1     -50.764  12.827  23.540  0.00  0.00     0.029 C 
ATOM     11  C   UNL d   1     -51.059  14.225  23.558  0.00  0.00     0.029 C 
ATOM     12  N   UNL d   1     -50.284  14.396  23.323  0.00  0.00    -0.294 NA
ATOM     13  C   UNL d   1     -49.512  14.559  23.089  0.00  0.00     0.104 A 
ATOM     14  C   UNL d   1     -49.882  15.295  23.161  0.00  0.00     0.029 C 
ATOM     15  C   UNL d   1     -48.808  14.925  22.865  0.00  0.00     0.029 C 
ATOM     16  S   UNL d   1     -48.186  13.932  22.731  0.00  0.00    -0.070 SA
BRANCH   5  17
ATOM     17  C   UNL d   1     -48.570  11.849  22.946  0.00  0.00     0.299 C 
ATOM     18  O   UNL d   1     -48.688  11.414  22.252  0.00  0.00    -0.264 OA
ATOM     19  N   UNL d   1     -48.443  11.460  23.664  0.00  0.00    -0.102 N 
ENDBRANCH   5  17
ENDBRANCH   1   4
BRANCH   2  20
ATOM     20  C   UNL d   1     -45.774  13.050  22.528  0.00  0.00     0.058 A 
ATOM     21  C   UNL d   1     -45.393  12.477  22.984  0.00  0.00     0.005 A 
ATOM     22  C   UNL d   1     -44.635  12.216  22.775  0.00  0.00     0.003 A 
ATOM     23  C   UNL d   1     -44.260  12.528  22.110  0.00  0.00     0.039 A 
ATOM     24  C   UNL d   1     -44.640  13.093  21.663  0.00  0.00     0.003 A 
ATOM     25  C   UNL d   1     -45.397  13.354  21.872  0.00  0.00     0.005 A 
BRANCH  23  26
ATOM     26  C   UNL d   1     -43.506  12.266  21.906  0.00  0.00     0.196 C 
ATOM     27  O   UNL d   1     -43.276  11.501  22.081  0.00  0.00    -0.287 OA
BRANCH  26  28
ATOM     28  C   UNL d   1     -42.985  12.776  21.525  0.00  0.00     0.039 A 
ATOM     29  C   UNL d   1     -42.428  13.198  21.949  0.00  0.00     0.003 A 
ATOM     30  C   UNL d   1     -41.908  13.707  21.568  0.00  0.00     0.000 A 
ATOM     31  C   UNL d   1     -41.950  13.794  20.747  0.00  0.00     0.000 A 
ATOM     32  C   UNL d   1     -42.511  13.370  20.314  0.00  0.00     0.000 A 
ATOM     33  C   UNL d   1     -43.027  12.863  20.704  0.00  0.00     0.003 A 
ENDBRANCH  26  28
ENDBRANCH  23  26
ENDBRANCH   2  20
TORSDOF 5
ENDMDL
MODEL 2
REMARK VINA RESULT:      -4.6      1.718      3.237
REMARK  5 active torsions:
REMARK  status: ('A' for Active; 'I' for Inactive)
REMARK    1  A    between atoms: N_6  and  C_1 
REMARK    2  A    between atoms: C_10  and  C_2 
REMARK       I    between atoms: C_9  and  N_6 
REMARK    3  A    between atoms: C_14  and  C_9 
REMARK    4  A    between atoms: C_13  and  C_15 
REMARK    5  A    between atoms: C_19  and  C_13 
ROOT
ATOM      1  N   UNL d   1     -44.659  13.281  22.175  0.00  0.00    -0.201 NA
ATOM      2  C   UNL d   1     -44.124  12.781  21.794  0.00  0.00     0.280 C 
ATOM      3  O   UNL d   1     -44.292  11.981  21.707  0.00  0.00    -0.265 OA
ENDROOT
BRANCH   1   4
ATOM      4  C   UNL d   1     -45.370  12.978  22.472  0.00  0.00     0.118 A 
ATOM      5  C   UNL d   1     -46.091  13.376  22.516  0.00  0.00     0.083 A 
ATOM      6  C   UNL d   1     -46.639  12.864  22.847  0.00  0.00     0.008 A 
ATOM      7  C   UNL d   1     -47.442  12.964  23.021  0.00  0.00    -0.004 A 
ATOM      8  C   UNL d   1     -46.269  12.155  23.009  0.00  0.00     0.028 A 
ATOM      9  C   UNL d   1     -47.866  12.341  23.360  0.00  0.00     0.099 A 
ATOM     10  C   UNL d   1     -48.241  13.059  23.196  0.00  0.00     0.029 C 
ATOM     11  C   UNL d   1     -48.294  11.723  23.698  0.00  0.00     0.029 C 
ATOM     12  N   UNL d   1     -47.491  11.621  23.524  0.00  0.00    -0.294 NA
ATOM     13  C   UNL d   1     -46.692  11.527  23.349  0.00  0.00     0.104 A 
ATOM     14  C   UNL d   1     -46.934  10.807  23.676  0.00  0.00     0.029 C 
ATOM     15  C   UNL d   1     -45.926  11.236  23.255  0.00  0.00     0.029 C 
ATOM     16  S   UNL d   1     -45.477  12.218  22.778  0.00  0.00    -0.070 SA
BRANCH   5  17
ATOM     17  C   UNL d   1     -46.221  14.146  22.268  0.00  0.00     0.299 C 
ATOM     18  O   UNL d   1     -46.550  14.278  21.520  0.00  0.00    -0.264 OA
ATOM     19  N   UNL d   1     -46.028  14.785  22.756  0.00  0.00    -0.102 N 
ENDBRANCH   5  17
ENDBRANCH   1   4
BRANCH   2  20
ATOM     20  C   UNL d   1     -43.424  13.079  21.502  0.00  0.00     0.058 A 
ATOM     21  C   UNL d   1     -42.737  12.623  21.527  0.00  0.00     0.005 A 
ATOM     22  C   UNL d   1     -42.026  12.926  21.230  0.00  0.00     0.003 A 
ATOM     23  C   UNL d   1     -42.003  13.685  20.908  0.00  0.00     0.039 A 
ATOM     24  C   UNL d   1     -42.684  14.131  20.885  0.00  0.00     0.003 A 
ATOM     25  C   UNL d   1     -43.395  13.828  21.182  0.00  0.00     0.005 A 
BRANCH  23  26
ATOM     26  C   UNL d   1     -41.294  13.983  20.613  0.00  0.00     0.196 C 
ATOM     27  O   UNL d   1     -41.053  13.792  19.855  0.00  0.00    -0.287 OA
BRANCH  26  28
ATOM     28  C   UNL d   1     -40.830  14.473  21.082  0.00  0.00     0.039 A 
ATOM     29  C   UNL d   1     -40.294  14.158  21.613  0.00  0.00     0.003 A 
ATOM     30  C   UNL d   1     -39.830  14.647  22.082  0.00  0.00     0.000 A 
ATOM     31  C   UNL d   1     -39.908  15.468  22.017  0.00  0.00     0.000 A 
ATOM     32  C   UNL d   1     -40.448  15.791  21.482  0.00  0.00     0.000 A 
ATOM     33  C   UNL d   1     -40.908  15.293  21.017  0.00  0.00     0.003 A 
ENDBRANCH  26  28
ENDBRANCH  23  26
ENDBRANCH   2  20
TORSDOF 5
ENDMDL
MODEL 3
REMARK VINA RESULT:      -4.5      3.259      7.628
REMARK  5 active torsions:
REMARK  status: ('A' for Active; 'I' for Inactive)
REMARK    1  A    between atoms: N_6  and  C_1 
REMARK    2  A    between atoms: C_10  and  C_2 
REMARK       I    between atoms: C_9  and  N_6 
REMARK    3  A    between atoms: C_14  and  C_9 
REMARK    4  A    between atoms: C_13  and  C_15 
REMARK    5  A    between atoms: C_19  and  C_13 
ROOT
ATOM      1  N   UNL d   1     -41.890  13.957  20.973  0.00  0.00    -0.201 NA
ATOM      2  C   UNL d   1     -42.424  13.382  20.717  0.00  0.00     0.280 C 
ATOM      3  O   UNL d   1     -42.313  13.003  19.997  0.00  0.00    -0.265 OA
ENDROOT
BRANCH   1   4
ATOM      4  C   UNL d   1     -41.239  14.157  20.503  0.00  0.00     0.118 A 
ATOM      5  C   UNL d   1     -40.482  14.348  20.771  0.00  0.00     0.083 A 
ATOM      6  C   UNL d   1     -40.017  14.506  20.114  0.00  0.00     0.008 A 
ATOM      7  C   UNL d   1     -39.221  14.724  20.051  0.00  0.00    -0.004 A 
ATOM      8  C   UNL d   1     -40.473  14.415  19.444  0.00  0.00     0.028 A 
ATOM      9  C   UNL d   1     -38.892  14.849  19.303  0.00  0.00     0.099 A 
ATOM     10  C   UNL d   1     -38.430  14.941  19.982  0.00  0.00     0.029 C 
ATOM     11  C   UNL d   1     -38.559  14.976  18.560  0.00  0.00     0.029 C 
ATOM     12  N   UNL d   1     -39.355  14.758  18.622  0.00  0.00    -0.294 NA
ATOM     13  C   UNL d   1     -40.146  14.541  18.691  0.00  0.00     0.104 A 
ATOM     14  C   UNL d   1     -40.007  14.618  17.880  0.00  0.00     0.029 C 
ATOM     15  C   UNL d   1     -40.931  14.336  18.546  0.00  0.00     0.029 C 
ATOM     16  S   UNL d   1     -41.236  14.198  19.678  0.00  0.00    -0.070 SA
BRANCH   5  17
ATOM     17  C   UNL d   1     -40.252  14.372  21.557  0.00  0.00     0.299 C 
ATOM     18  O   UNL d   1     -39.934  13.689  21.903  0.00  0.00    -0.264 OA
ATOM     19  N   UNL d   1     -40.333  15.064  22.000  0.00  0.00    -0.102 N 
ENDBRANCH   5  17
ENDBRANCH   1   4
BRANCH   2  20
ATOM     20  C   UNL d   1     -43.065  13.186  21.180  0.00  0.00     0.058 A 
ATOM     21  C   UNL d   1     -43.148  12.417  21.469  0.00  0.00     0.005 A 
ATOM     22  C   UNL d   1     -43.800  12.218  21.939  0.00  0.00     0.003 A 
ATOM     23  C   UNL d   1     -44.368  12.788  22.120  0.00  0.00     0.039 A 
ATOM     24  C   UNL d   1     -44.282  13.545  21.833  0.00  0.00     0.003 A 
ATOM     25  C   UNL d   1     -43.630  13.744  21.363  0.00  0.00     0.005 A 
BRANCH  23  26
ATOM     26  C   UNL d   1     -45.015  12.586  22.588  0.00  0.00     0.196 C 
ATOM     27  O   UNL d   1     -44.957  11.971  23.124  0.00  0.00    -0.287 OA
BRANCH  26  28
ATOM     28  C   UNL d   1     -45.719  13.004  22.515  0.00  0.00     0.039 A 
ATOM     29  C   UNL d   1     -46.274  12.793  21.953  0.00  0.00     0.003 A 
ATOM     30  C   UNL d   1     -46.977  13.212  21.879  0.00  0.00     0.000 A 
ATOM     31  C   UNL d   1     -47.125  13.853  22.380  0.00  0.00     0.000 A 
ATOM     32  C   UNL d   1     -46.567  14.070  22.950  0.00  0.00     0.000 A 
ATOM     33  C   UNL d   1     -45.866  13.646  23.016  0.00  0.00     0.003 A 
ENDBRANCH  26  28
ENDBRANCH  23  26
ENDBRANCH   2  20
TORSDOF 5
ENDMDL
MODEL 4
REMARK VINA RESULT:      -4.0      8.272     10.323
REMARK  5 active torsions:
REMARK  status: ('A' for Active; 'I' for Inactive)
REMARK    1  A    between atoms: N_6  and  C_1 
REMARK    2  A    between atoms: C_10  and  C_2 
REMARK       I    between atoms: C_9  and  N_6 
REMARK    3  A    between atoms: C_14  and  C_9 
REMARK    4  A    between atoms: C_13  and  C_15 
REMARK    5  A    between atoms: C_19  and  C_13 
ROOT
ATOM      1  N   UNL d   1     -39.112  14.570  18.053  0.00  0.00    -0.201 NA
ATOM      2  C   UNL d   1     -38.642  14.960  18.608  0.00  0.00     0.280 C 
ATOM      3  O   UNL d   1     -37.946  15.329  18.378  0.00  0.00    -0.265 OA
ENDROOT
BRANCH   1   4
ATOM      4  C   UNL d   1     -38.883  14.548  17.258  0.00  0.00     0.118 A 
ATOM      5  C   UNL d   1     -38.658  13.878  16.832  0.00  0.00     0.083 A 
ATOM      6  C   UNL d   1     -38.478  14.118  16.068  0.00  0.00     0.008 A 
ATOM      7  C   UNL d   1     -38.224  13.688  15.409  0.00  0.00    -0.004 A 
ATOM      8  C   UNL d   1     -38.588  14.924  16.015  0.00  0.00     0.028 A 
ATOM      9  C   UNL d   1     -38.082  14.081  14.696  0.00  0.00     0.099 A 
ATOM     10  C   UNL d   1     -37.971  13.264  14.750  0.00  0.00     0.029 C 
ATOM     11  C   UNL d   1     -37.940  14.468  13.982  0.00  0.00     0.029 C 
ATOM     12  N   UNL d   1     -38.194  14.900  14.642  0.00  0.00    -0.294 NA
ATOM     13  C   UNL d   1     -38.447  15.323  15.301  0.00  0.00     0.104 A 
ATOM     14  C   UNL d   1     -38.362  15.882  14.697  0.00  0.00     0.029 C 
ATOM     15  C   UNL d   1     -38.687  15.912  15.825  0.00  0.00     0.029 C 
ATOM     16  S   UNL d   1     -38.840  15.200  16.753  0.00  0.00    -0.070 SA
BRANCH   5  17
ATOM     17  C   UNL d   1     -38.625  13.117  17.131  0.00  0.00     0.299 C 
ATOM     18  O   UNL d   1     -37.953  12.880  17.554  0.00  0.00    -0.264 OA
ATOM     19  N   UNL d   1     -39.251  12.590  17.016  0.00  0.00    -0.102 N 
ENDBRANCH   5  17
ENDBRANCH   1   4
BRANCH   2  20
ATOM     20  C   UNL d   1     -38.868  14.981  19.391  0.00  0.00     0.058 A 
ATOM     21  C   UNL d   1     -39.210  14.316  19.741  0.00  0.00     0.005 A 
ATOM     22  C   UNL d   1     -39.440  14.338  20.537  0.00  0.00     0.003 A 
ATOM     23  C   UNL d   1     -39.326  15.023  20.981  0.00  0.00     0.039 A 
ATOM     24  C   UNL d   1     -38.988  15.676  20.631  0.00  0.00     0.003 A 
ATOM     25  C   UNL d   1     -38.759  15.655  19.836  0.00  0.00     0.005 A 
BRANCH  23  26
ATOM     26  C   UNL d   1     -39.556  15.041  21.772  0.00  0.00     0.196 C 
ATOM     27  O   UNL d   1     -40.262  15.394  21.986  0.00  0.00    -0.287 OA
BRANCH  26  28
ATOM     28  C   UNL d   1     -39.074  14.702  22.345  0.00  0.00     0.039 A 
ATOM     29  C   UNL d   1     -38.632  15.170  22.850  0.00  0.00     0.003 A 
ATOM     30  C   UNL d   1     -38.150  14.831  23.422  0.00  0.00     0.000 A 
ATOM     31  C   UNL d   1     -38.111  14.008  23.488  0.00  0.00     0.000 A 
ATOM     32  C   UNL d   1     -38.556  13.531  22.980  0.00  0.00     0.000 A 
ATOM     33  C   UNL d   1     -39.035  13.879  22.410  0.00  0.00     0.003 A 
ENDBRANCH  26  28
ENDBRANCH  23  26
ENDBRANCH   2  20
TORSDOF 5
ENDMDL
MODEL 5
REMARK VINA RESULT:      -3.5      0.825      1.737
REMARK  5 active torsions:
REMARK  status: ('A' for Active; 'I' for Inactive)
REMARK    1  A    between atoms: N_6  and  C_1 
REMARK    2  A    between atoms: C_10  and  C_2 
REMARK       I    between atoms: C_9  and  N_6 
REMARK    3  A    between atoms: C_14  and  C_9 
REMARK    4  A    between atoms: C_13  and  C_15 
REMARK    5  A    between atoms: C_19  and  C_13 
ROOT
ATOM      1  N   UNL d   1     -46.883  13.618  22.434  0.00  0.00    -0.201 NA
ATOM      2  C   UNL d   1     -46.520  12.930  22.708  0.00  0.00     0.280 C 
ATOM      3  O   UNL d   1     -46.930  12.407  23.192  0.00  0.00    -0.265 OA
ENDROOT
BRANCH   1   4
ATOM      4  C   UNL d   1     -47.666  13.786  22.646  0.00  0.00     0.118 A 
ATOM      5  C   UNL d   1     -48.018  14.532  22.662  0.00  0.00     0.083 A 
ATOM      6  C   UNL d   1     -48.796  14.435  22.905  0.00  0.00     0.008 A 
ATOM      7  C   UNL d   1     -49.403  14.986  23.020  0.00  0.00    -0.004 A 
ATOM      8  C   UNL d   1     -48.930  13.642  23.039  0.00  0.00     0.028 A 
ATOM      9  C   UNL d   1     -50.146  14.726  23.272  0.00  0.00     0.099 A 
ATOM     10  C   UNL d   1     -50.010  15.530  23.135  0.00  0.00     0.029 C 
ATOM     11  C   UNL d   1     -50.889  14.473  23.523  0.00  0.00     0.029 C 
ATOM     12  N   UNL d   1     -50.282  13.921  23.408  0.00  0.00    -0.294 NA
ATOM     13  C   UNL d   1     -49.675  13.377  23.292  0.00  0.00     0.104 A 
ATOM     14  C   UNL d   1     -50.327  12.932  23.539  0.00  0.00     0.029 C 
ATOM     15  C   UNL d   1     -49.218  12.693  23.238  0.00  0.00     0.029 C 
ATOM     16  S   UNL d   1     -48.230  13.230  22.880  0.00  0.00    -0.070 SA
BRANCH   5  17
ATOM     17  C   UNL d   1     -47.646  15.235  22.468  0.00  0.00     0.299 C 
ATOM     18  O   UNL d   1     -47.166  15.605  23.032  0.00  0.00    -0.264 OA
ATOM     19  N   UNL d   1     -47.745  15.573  21.720  0.00  0.00    -0.102 N 
ENDBRANCH   5  17
ENDBRANCH   1   4
BRANCH   2  20
ATOM     20  C   UNL d   1     -45.750  12.764  22.499  0.00  0.00     0.058 A 
ATOM     21  C   UNL d   1     -45.480  12.942  21.740  0.00  0.00     0.005 A 
ATOM     22  C   UNL d   1     -44.697  12.774  21.527  0.00  0.00     0.003 A 
ATOM     23  C   UNL d   1     -44.186  12.427  22.074  0.00  0.00     0.039 A 
ATOM     24  C   UNL d   1     -44.458  12.253  22.822  0.00  0.00     0.003 A 
ATOM     25  C   UNL d   1     -45.240  12.421  23.034  0.00  0.00     0.005 A 
BRANCH  23  26
ATOM     26  C   UNL d   1     -43.408  12.261  21.859  0.00  0.00     0.196 C 
ATOM     27  O   UNL d   1     -43.086  11.527  22.022  0.00  0.00    -0.287 OA
BRANCH  26  28
ATOM     28  C   UNL d   1     -42.958  12.834  21.481  0.00  0.00     0.039 A 
ATOM     29  C   UNL d   1     -42.521  13.375  21.912  0.00  0.00     0.003 A 
ATOM     30  C   UNL d   1     -42.071  13.948  21.533  0.00  0.00     0.000 A 
ATOM     31  C   UNL d   1     -42.059  13.978  20.707  0.00  0.00     0.000 A 
ATOM     32  C   UNL d   1     -42.499  13.434  20.267  0.00  0.00     0.000 A 
ATOM     33  C   UNL d   1     -42.946  12.864  20.654  0.00  0.00     0.003 A 
ENDBRANCH  26  28
ENDBRANCH  23  26
ENDBRANCH   2  20
TORSDOF 5
ENDMDL
MODEL 6
REMARK VINA RESULT:      -3.3      1.583      2.659
REMARK  5 active torsions:
REMARK  status: ('A' for Active; 'I' for Inactive)
REMARK    1  A    between atoms: N_6  and  C_1 
REMARK    2  A    between atoms: C_10  and  C_2 
REMARK       I    between atoms: C_9  and  N_6 
REMARK    3  A    between atoms: C_14  and  C_9 
REMARK    4  A    between atoms: C_13  and  C_15 
REMARK    5  A    between atoms: C_19  and  C_13 
ROOT
ATOM      1  N   UNL d   1     -44.816  12.835  22.442  0.00  0.00    -0.201 NA
ATOM      2  C   UNL d   1     -44.590  13.067  21.684  0.00  0.00     0.280 C 
ATOM      3  O   UNL d   1     -45.152  13.160  21.092  0.00  0.00    -0.265 OA
ENDROOT
BRANCH   1   4
ATOM      4  C   UNL d   1     -45.614  12.694  22.612  0.00  0.00     0.118 A 
ATOM      5  C   UNL d   1     -45.927  12.013  22.959  0.00  0.00     0.083 A 
ATOM      6  C   UNL d   1     -46.738  12.117  23.021  0.00  0.00     0.008 A 
ATOM      7  C   UNL d   1     -47.328  11.621  23.322  0.00  0.00    -0.004 A 
ATOM      8  C   UNL d   1     -46.932  12.849  22.719  0.00  0.00     0.028 A 
ATOM      9  C   UNL d   1     -48.115  11.873  23.314  0.00  0.00     0.099 A 
ATOM     10  C   UNL d   1     -47.919  11.131  23.620  0.00  0.00     0.029 C 
ATOM     11  C   UNL d   1     -48.902  12.119  23.308  0.00  0.00     0.029 C 
ATOM     12  N   UNL d   1     -48.312  12.617  23.007  0.00  0.00    -0.294 NA
ATOM     13  C   UNL d   1     -47.721  13.106  22.709  0.00  0.00     0.104 A 
ATOM     14  C   UNL d   1     -48.427  13.527  22.614  0.00  0.00     0.029 C 
ATOM     15  C   UNL d   1     -47.296  13.727  22.374  0.00  0.00     0.029 C 
ATOM     16  S   UNL d   1     -46.236  13.215  22.462  0.00  0.00    -0.070 SA
BRANCH   5  17
ATOM     17  C   UNL d   1     -45.492  11.360  23.194  0.00  0.00     0.299 C 
ATOM     18  O   UNL d   1     -44.840  11.469  23.692  0.00  0.00    -0.264 OA
ATOM     19  N   UNL d   1     -45.699  10.602  22.939  0.00  0.00    -0.102 N 
ENDBRANCH   5  17
ENDBRANCH   1   4
BRANCH   2  20
ATOM     20  C   UNL d   1     -43.804  13.207  21.517  0.00  0.00     0.058 A 
ATOM     21  C   UNL d   1     -43.442  13.901  21.777  0.00  0.00     0.005 A 
ATOM     22  C   UNL d   1     -42.644  14.042  21.607  0.00  0.00     0.003 A 
ATOM     23  C   UNL d   1     -42.209  13.489  21.177  0.00  0.00     0.039 A 
ATOM     24  C   UNL d   1     -42.571  12.805  20.923  0.00  0.00     0.003 A 
ATOM     25  C   UNL d   1     -43.369  12.664  21.092  0.00  0.00     0.005 A 
BRANCH  23  26
ATOM     26  C   UNL d   1     -41.415  13.633  21.010  0.00  0.00     0.196 C 
ATOM     27  O   UNL d   1     -40.831  13.265  21.449  0.00  0.00    -0.287 OA
BRANCH  26  28
ATOM     28  C   UNL d   1     -41.213  14.147  20.402  0.00  0.00     0.039 A 
ATOM     29  C   UNL d   1     -41.137  14.949  20.540  0.00  0.00     0.003 A 
ATOM     30  C   UNL d   1     -40.935  15.464  19.932  0.00  0.00     0.000 A 
ATOM     31  C   UNL d   1     -40.806  15.165  19.172  0.00  0.00     0.000 A 
ATOM     32  C   UNL d   1     -40.880  14.355  19.027  0.00  0.00     0.000 A 
ATOM     33  C   UNL d   1     -41.084  13.849  19.642  0.00  0.00     0.003 A 
ENDBRANCH  26  28
ENDBRANCH  23  26
ENDBRANCH   2  20
TORSDOF 5
ENDMDL
