MODEL 1
REMARK VINA RESULT:      -3.0      0.000      0.000
REMARK  5 active torsions:
REMARK  status: ('A' for Active; 'I' for Inactive)
REMARK    1  A    between atoms: C_2  and  C_1 
REMARK    2  A    between atoms: O_4  and  C_2 
REMARK    3  A    between atoms: C_9  and  O_4 
REMARK    4  A    between atoms: C_5  and  C_9 
REMARK    5  A    between atoms: C_12  and  C_5 
ROOT
ATOM      1  C   UNL d   1      32.980  19.934 -22.406  0.00  0.00     0.168 C 
ENDROOT
BRANCH   1   2
ATOM      2  C   UNL d   1      33.017  20.232 -21.632  0.00  0.00     0.220 C 
ATOM      3  O   UNL d   1      33.241  19.738 -21.013  0.00  0.00    -0.284 OA
BRANCH   2   4
ATOM      4  C   UNL d   1      32.828  21.023 -21.491  0.00  0.00     0.041 A 
ATOM      5  C   UNL d   1      32.216  21.204 -20.964  0.00  0.00     0.003 A 
ATOM      6  C   UNL d   1      32.026  21.990 -20.822  0.00  0.00     0.000 A 
ATOM      7  C   UNL d   1      32.439  22.591 -21.201  0.00  0.00     0.000 A 
ATOM      8  C   UNL d   1      33.051  22.402 -21.729  0.00  0.00     0.000 A 
ATOM      9  C   UNL d   1      33.241  21.615 -21.870  0.00  0.00     0.003 A 
ENDBRANCH   2   4
ENDBRANCH   1   2
BRANCH   1  10
ATOM     10  O   UNL d   1      32.935  19.125 -22.531  0.00  0.00    -0.267 OA
BRANCH  10  11
ATOM     11  C   UNL d   1      32.942  18.825 -23.296  0.00  0.00     0.306 C 
ATOM     12  O   UNL d   1      33.181  19.298 -23.924  0.00  0.00    -0.258 OA
BRANCH  11  13
ATOM     13  C   UNL d   1      32.707  18.043 -23.434  0.00  0.00     0.093 A 
ATOM     14  S   UNL d   1      33.205  17.388 -23.477  0.00  0.00    -0.081 SA
ATOM     15  C   UNL d   1      32.744  16.722 -23.622  0.00  0.00     0.036 A 
ATOM     16  C   UNL d   1      31.954  16.964 -23.669  0.00  0.00     0.008 A 
ATOM     17  C   UNL d   1      31.932  17.777 -23.553  0.00  0.00     0.012 A 
ENDBRANCH  11  13
ENDBRANCH  10  11
ENDBRANCH   1  10
TORSDOF 5
ENDMDL
MODEL 2
REMARK VINA RESULT:      -2.9      1.282      4.305
REMARK  5 active torsions:
REMARK  status: ('A' for Active; 'I' for Inactive)
REMARK    1  A    between atoms: C_2  and  C_1 
REMARK    2  A    between atoms: O_4  and  C_2 
REMARK    3  A    between atoms: C_9  and  O_4 
REMARK    4  A    between atoms: C_5  and  C_9 
REMARK    5  A    between atoms: C_12  and  C_5 
ROOT
ATOM      1  C   UNL d   1      32.998  19.338 -22.449  0.00  0.00     0.168 C 
ENDROOT
BRANCH   1   2
ATOM      2  C   UNL d   1      32.967  19.090 -23.241  0.00  0.00     0.220 C 
ATOM      3  O   UNL d   1      33.169  19.613 -23.843  0.00  0.00    -0.284 OA
BRANCH   2   4
ATOM      4  C   UNL d   1      32.732  18.319 -23.416  0.00  0.00     0.041 A 
ATOM      5  C   UNL d   1      32.040  18.197 -23.854  0.00  0.00     0.003 A 
ATOM      6  C   UNL d   1      31.803  17.431 -24.029  0.00  0.00     0.000 A 
ATOM      7  C   UNL d   1      32.250  16.790 -23.772  0.00  0.00     0.000 A 
ATOM      8  C   UNL d   1      32.942  16.920 -23.333  0.00  0.00     0.000 A 
ATOM      9  C   UNL d   1      33.178  17.688 -23.158  0.00  0.00     0.003 A 
ENDBRANCH   2   4
ENDBRANCH   1   2
BRANCH   1  10
ATOM     10  O   UNL d   1      33.029  20.139 -22.273  0.00  0.00    -0.267 OA
BRANCH  10  11
ATOM     11  C   UNL d   1      33.036  20.387 -21.490  0.00  0.00     0.306 C 
ATOM     12  O   UNL d   1      33.235  19.862 -20.890  0.00  0.00    -0.258 OA
BRANCH  11  13
ATOM     13  C   UNL d   1      32.843  21.171 -21.306  0.00  0.00     0.093 A 
ATOM     14  S   UNL d   1      32.240  21.416 -20.801  0.00  0.00    -0.081 SA
ATOM     15  C   UNL d   1      32.241  22.238 -20.775  0.00  0.00     0.036 A 
ATOM     16  C   UNL d   1      32.849  22.508 -21.266  0.00  0.00     0.008 A 
ATOM     17  C   UNL d   1      33.220  21.851 -21.593  0.00  0.00     0.012 A 
ENDBRANCH  11  13
ENDBRANCH  10  11
ENDBRANCH   1  10
TORSDOF 5
ENDMDL
MODEL 3
REMARK VINA RESULT:      -2.7      2.770      4.058
REMARK  5 active torsions:
REMARK  status: ('A' for Active; 'I' for Inactive)
REMARK    1  A    between atoms: C_2  and  C_1 
REMARK    2  A    between atoms: O_4  and  C_2 
REMARK    3  A    between atoms: C_9  and  O_4 
REMARK    4  A    between atoms: C_5  and  C_9 
REMARK    5  A    between atoms: C_12  and  C_5 
ROOT
ATOM      1  C   UNL d   1      31.113  17.409 -24.303  0.00  0.00     0.168 C 
ENDROOT
BRANCH   1   2
ATOM      2  C   UNL d   1      31.855  17.360 -23.932  0.00  0.00     0.220 C 
ATOM      3  O   UNL d   1      32.124  16.637 -23.649  0.00  0.00    -0.284 OA
BRANCH   2   4
ATOM      4  C   UNL d   1      32.315  18.041 -23.853  0.00  0.00     0.041 A 
ATOM      5  C   UNL d   1      32.643  18.387 -24.529  0.00  0.00     0.003 A 
ATOM      6  C   UNL d   1      33.101  19.064 -24.453  0.00  0.00     0.000 A 
ATOM      7  C   UNL d   1      33.232  19.395 -23.712  0.00  0.00     0.000 A 
ATOM      8  C   UNL d   1      32.900  19.042 -23.038  0.00  0.00     0.000 A 
ATOM      9  C   UNL d   1      32.442  18.364 -23.116  0.00  0.00     0.003 A 
ENDBRANCH   2   4
ENDBRANCH   1   2
BRANCH   1  10
ATOM     10  O   UNL d   1      30.510  16.900 -24.080  0.00  0.00    -0.267 OA
BRANCH  10  11
ATOM     11  C   UNL d   1      29.779  16.941 -24.450  0.00  0.00     0.306 C 
ATOM     12  O   UNL d   1      29.667  17.439 -25.095  0.00  0.00    -0.258 OA
BRANCH  11  13
ATOM     13  C   UNL d   1      29.150  16.480 -24.172  0.00  0.00     0.093 A 
ATOM     14  S   UNL d   1      28.922  15.744 -24.465  0.00  0.00    -0.081 SA
ATOM     15  C   UNL d   1      28.274  15.482 -24.030  0.00  0.00     0.036 A 
ATOM     16  C   UNL d   1      28.097  16.057 -23.463  0.00  0.00     0.008 A 
ATOM     17  C   UNL d   1      28.636  16.672 -23.550  0.00  0.00     0.012 A 
ENDBRANCH  11  13
ENDBRANCH  10  11
ENDBRANCH   1  10
TORSDOF 5
ENDMDL
MODEL 4
REMARK VINA RESULT:      -2.5      2.244      4.919
REMARK  5 active torsions:
REMARK  status: ('A' for Active; 'I' for Inactive)
REMARK    1  A    between atoms: C_2  and  C_1 
REMARK    2  A    between atoms: O_4  and  C_2 
REMARK    3  A    between atoms: C_9  and  O_4 
REMARK    4  A    between atoms: C_5  and  C_9 
REMARK    5  A    between atoms: C_12  and  C_5 
ROOT
ATOM      1  C   UNL d   1      31.391  16.773 -23.660  0.00  0.00     0.168 C 
ENDROOT
BRANCH   1   2
ATOM      2  C   UNL d   1      30.844  16.440 -24.190  0.00  0.00     0.220 C 
ATOM      3  O   UNL d   1      31.064  16.293 -24.968  0.00  0.00    -0.284 OA
BRANCH   2   4
ATOM      4  C   UNL d   1      30.083  16.259 -23.926  0.00  0.00     0.041 A 
ATOM      5  C   UNL d   1      29.445  16.715 -24.193  0.00  0.00     0.003 A 
ATOM      6  C   UNL d   1      28.687  16.537 -23.932  0.00  0.00     0.000 A 
ATOM      7  C   UNL d   1      28.563  15.912 -23.411  0.00  0.00     0.000 A 
ATOM      8  C   UNL d   1      29.207  15.461 -23.149  0.00  0.00     0.000 A 
ATOM      9  C   UNL d   1      29.966  15.639 -23.410  0.00  0.00     0.003 A 
ENDBRANCH   2   4
ENDBRANCH   1   2
BRANCH   1  10
ATOM     10  O   UNL d   1      31.986  17.262 -23.942  0.00  0.00    -0.267 OA
BRANCH  10  11
ATOM     11  C   UNL d   1      32.576  17.525 -23.436  0.00  0.00     0.306 C 
ATOM     12  O   UNL d   1      32.909  17.014 -22.885  0.00  0.00    -0.258 OA
BRANCH  11  13
ATOM     13  C   UNL d   1      32.839  18.309 -23.482  0.00  0.00     0.093 A 
ATOM     14  S   UNL d   1      32.993  18.806 -22.843  0.00  0.00    -0.081 SA
ATOM     15  C   UNL d   1      33.241  19.535 -23.136  0.00  0.00     0.036 A 
ATOM     16  C   UNL d   1      33.241  19.491 -23.962  0.00  0.00     0.008 A 
ATOM     17  C   UNL d   1      32.993  18.736 -24.175  0.00  0.00     0.012 A 
ENDBRANCH  11  13
ENDBRANCH  10  11
ENDBRANCH   1  10
TORSDOF 5
ENDMDL
MODEL 5
REMARK VINA RESULT:      -2.3      3.193      5.429
REMARK  5 active torsions:
REMARK  status: ('A' for Active; 'I' for Inactive)
REMARK    1  A    between atoms: C_2  and  C_1 
REMARK    2  A    between atoms: O_4  and  C_2 
REMARK    3  A    between atoms: C_9  and  O_4 
REMARK    4  A    between atoms: C_5  and  C_9 
REMARK    5  A    between atoms: C_12  and  C_5 
ROOT
ATOM      1  C   UNL d   1      32.918  22.230 -20.140  0.00  0.00     0.168 C 
ENDROOT
BRANCH   1   2
ATOM      2  C   UNL d   1      32.404  21.792 -20.624  0.00  0.00     0.220 C 
ATOM      3  O   UNL d   1      31.625  21.670 -20.390  0.00  0.00    -0.284 OA
BRANCH   2   4
ATOM      4  C   UNL d   1      32.682  21.484 -21.338  0.00  0.00     0.041 A 
ATOM      5  C   UNL d   1      32.765  21.989 -21.989  0.00  0.00     0.003 A 
ATOM      6  C   UNL d   1      33.042  21.685 -22.700  0.00  0.00     0.000 A 
ATOM      7  C   UNL d   1      33.233  20.887 -22.764  0.00  0.00     0.000 A 
ATOM      8  C   UNL d   1      33.147  20.389 -22.107  0.00  0.00     0.000 A 
ATOM      9  C   UNL d   1      32.870  20.694 -21.395  0.00  0.00     0.003 A 
ENDBRANCH   2   4
ENDBRANCH   1   2
BRANCH   1  10
ATOM     10  O   UNL d   1      32.719  22.373 -19.358  0.00  0.00    -0.267 OA
BRANCH  10  11
ATOM     11  C   UNL d   1      32.922  23.087 -19.006  0.00  0.00     0.306 C 
ATOM     12  O   UNL d   1      33.237  23.697 -19.457  0.00  0.00    -0.258 OA
BRANCH  11  13
ATOM     13  C   UNL d   1      32.807  23.193 -18.193  0.00  0.00     0.093 A 
ATOM     14  S   UNL d   1      32.257  23.696 -17.842  0.00  0.00    -0.081 SA
ATOM     15  C   UNL d   1      32.330  23.630 -17.025  0.00  0.00     0.036 A 
ATOM     16  C   UNL d   1      32.928  23.082 -16.866  0.00  0.00     0.008 A 
ATOM     17  C   UNL d   1      33.222  22.813 -17.585  0.00  0.00     0.012 A 
ENDBRANCH  11  13
ENDBRANCH  10  11
ENDBRANCH   1  10
TORSDOF 5
ENDMDL
MODEL 6
REMARK VINA RESULT:      -2.2      1.001      1.432
REMARK  5 active torsions:
REMARK  status: ('A' for Active; 'I' for Inactive)
REMARK    1  A    between atoms: C_2  and  C_1 
REMARK    2  A    between atoms: O_4  and  C_2 
REMARK    3  A    between atoms: C_9  and  O_4 
REMARK    4  A    between atoms: C_5  and  C_9 
REMARK    5  A    between atoms: C_12  and  C_5 
ROOT
ATOM      1  C   UNL d   1      32.640  19.102 -23.210  0.00  0.00     0.168 C 
ENDROOT
BRANCH   1   2
ATOM      2  C   UNL d   1      32.953  19.309 -22.468  0.00  0.00     0.220 C 
ATOM      3  O   UNL d   1      33.241  18.724 -21.967  0.00  0.00    -0.284 OA
BRANCH   2   4
ATOM      4  C   UNL d   1      32.970  20.102 -22.242  0.00  0.00     0.041 A 
ATOM      5  C   UNL d   1      32.729  20.309 -21.478  0.00  0.00     0.003 A 
ATOM      6  C   UNL d   1      32.745  21.098 -21.250  0.00  0.00     0.000 A 
ATOM      7  C   UNL d   1      32.999  21.677 -21.777  0.00  0.00     0.000 A 
ATOM      8  C   UNL d   1      33.239  21.461 -22.541  0.00  0.00     0.000 A 
ATOM      9  C   UNL d   1      33.222  20.671 -22.768  0.00  0.00     0.003 A 
ENDBRANCH   2   4
ENDBRANCH   1   2
BRANCH   1  10
ATOM     10  O   UNL d   1      32.514  18.313 -23.394  0.00  0.00    -0.267 OA
BRANCH  10  11
ATOM     11  C   UNL d   1      32.190  18.107 -24.120  0.00  0.00     0.306 C 
ATOM     12  O   UNL d   1      32.319  18.579 -24.781  0.00  0.00    -0.258 OA
BRANCH  11  13
ATOM     13  C   UNL d   1      31.733  17.420 -24.187  0.00  0.00     0.093 A 
ATOM     14  S   UNL d   1      30.931  17.388 -24.372  0.00  0.00    -0.081 SA
ATOM     15  C   UNL d   1      30.698  16.599 -24.380  0.00  0.00     0.036 A 
ATOM     16  C   UNL d   1      31.359  16.136 -24.198  0.00  0.00     0.008 A 
ATOM     17  C   UNL d   1      31.996  16.642 -24.079  0.00  0.00     0.012 A 
ENDBRANCH  11  13
ENDBRANCH  10  11
ENDBRANCH   1  10
TORSDOF 5
ENDMDL
MODEL 7
REMARK VINA RESULT:      -2.1      1.864      4.469
REMARK  5 active torsions:
REMARK  status: ('A' for Active; 'I' for Inactive)
REMARK    1  A    between atoms: C_2  and  C_1 
REMARK    2  A    between atoms: O_4  and  C_2 
REMARK    3  A    between atoms: C_9  and  O_4 
REMARK    4  A    between atoms: C_5  and  C_9 
REMARK    5  A    between atoms: C_12  and  C_5 
ROOT
ATOM      1  C   UNL d   1      32.649  20.521 -22.060  0.00  0.00     0.168 C 
ENDROOT
BRANCH   1   2
ATOM      2  C   UNL d   1      32.990  20.348 -22.797  0.00  0.00     0.220 C 
ATOM      3  O   UNL d   1      33.241  20.959 -23.287  0.00  0.00    -0.284 OA
BRANCH   2   4
ATOM      4  C   UNL d   1      33.073  19.560 -23.030  0.00  0.00     0.041 A 
ATOM      5  C   UNL d   1      33.156  19.385 -23.835  0.00  0.00     0.003 A 
ATOM      6  C   UNL d   1      33.240  18.602 -24.070  0.00  0.00     0.000 A 
ATOM      7  C   UNL d   1      33.240  17.999 -23.510  0.00  0.00     0.000 A 
ATOM      8  C   UNL d   1      33.157  18.184 -22.706  0.00  0.00     0.000 A 
ATOM      9  C   UNL d   1      33.073  18.967 -22.472  0.00  0.00     0.003 A 
ENDBRANCH   2   4
ENDBRANCH   1   2
BRANCH   1  10
ATOM     10  O   UNL d   1      32.817  21.234 -21.689  0.00  0.00    -0.267 OA
BRANCH  10  11
ATOM     11  C   UNL d   1      32.346  21.497 -21.071  0.00  0.00     0.306 C 
ATOM     12  O   UNL d   1      31.759  21.012 -20.760  0.00  0.00    -0.258 OA
BRANCH  11  13
ATOM     13  C   UNL d   1      32.463  22.255 -20.758  0.00  0.00     0.093 A 
ATOM     14  S   UNL d   1      32.946  22.445 -20.118  0.00  0.00    -0.081 SA
ATOM     15  C   UNL d   1      32.902  23.257 -19.993  0.00  0.00     0.036 A 
ATOM     16  C   UNL d   1      32.388  23.575 -20.558  0.00  0.00     0.008 A 
ATOM     17  C   UNL d   1      32.118  22.957 -21.029  0.00  0.00     0.012 A 
ENDBRANCH  11  13
ENDBRANCH  10  11
ENDBRANCH   1  10
TORSDOF 5
ENDMDL
MODEL 8
REMARK VINA RESULT:      -0.6      2.104      4.643
REMARK  5 active torsions:
REMARK  status: ('A' for Active; 'I' for Inactive)
REMARK    1  A    between atoms: C_2  and  C_1 
REMARK    2  A    between atoms: O_4  and  C_2 
REMARK    3  A    between atoms: C_9  and  O_4 
REMARK    4  A    between atoms: C_5  and  C_9 
REMARK    5  A    between atoms: C_12  and  C_5 
ROOT
ATOM      1  C   UNL d   1      32.838  20.867 -21.366  0.00  0.00     0.168 C 
ENDROOT
BRANCH   1   2
ATOM      2  C   UNL d   1      33.022  20.750 -22.168  0.00  0.00     0.220 C 
ATOM      3  O   UNL d   1      33.241  21.389 -22.636  0.00  0.00    -0.284 OA
BRANCH   2   4
ATOM      4  C   UNL d   1      32.982  19.989 -22.486  0.00  0.00     0.041 A 
ATOM      5  C   UNL d   1      32.940  19.340 -21.974  0.00  0.00     0.003 A 
ATOM      6  C   UNL d   1      32.900  18.582 -22.287  0.00  0.00     0.000 A 
ATOM      7  C   UNL d   1      32.902  18.469 -23.102  0.00  0.00     0.000 A 
ATOM      8  C   UNL d   1      32.945  19.125 -23.608  0.00  0.00     0.000 A 
ATOM      9  C   UNL d   1      32.985  19.884 -23.294  0.00  0.00     0.003 A 
ENDBRANCH   2   4
ENDBRANCH   1   2
BRANCH   1  10
ATOM     10  O   UNL d   1      32.732  21.628 -21.078  0.00  0.00    -0.267 OA
BRANCH  10  11
ATOM     11  C   UNL d   1      32.667  21.757 -20.270  0.00  0.00     0.306 C 
ATOM     12  O   UNL d   1      32.742  21.131 -19.743  0.00  0.00    -0.258 OA
BRANCH  11  13
ATOM     13  C   UNL d   1      32.525  22.521 -19.985  0.00  0.00     0.093 A 
ATOM     14  S   UNL d   1      31.837  22.960 -20.097  0.00  0.00    -0.081 SA
ATOM     15  C   UNL d   1      31.930  23.687 -19.723  0.00  0.00     0.036 A 
ATOM     16  C   UNL d   1      32.681  23.702 -19.376  0.00  0.00     0.008 A 
ATOM     17  C   UNL d   1      33.047  22.984 -19.538  0.00  0.00     0.012 A 
ENDBRANCH  11  13
ENDBRANCH  10  11
ENDBRANCH   1  10
TORSDOF 5
ENDMDL
MODEL 9
REMARK VINA RESULT:      -0.1      1.455      2.145
REMARK  5 active torsions:
REMARK  status: ('A' for Active; 'I' for Inactive)
REMARK    1  A    between atoms: C_2  and  C_1 
REMARK    2  A    between atoms: O_4  and  C_2 
REMARK    3  A    between atoms: C_9  and  O_4 
REMARK    4  A    between atoms: C_5  and  C_9 
REMARK    5  A    between atoms: C_12  and  C_5 
ROOT
ATOM      1  C   UNL d   1      32.636  21.236 -21.023  0.00  0.00     0.168 C 
ENDROOT
BRANCH   1   2
ATOM      2  C   UNL d   1      32.795  21.396 -20.223  0.00  0.00     0.220 C 
ATOM      3  O   UNL d   1      33.054  20.792 -19.728  0.00  0.00    -0.284 OA
BRANCH   2   4
ATOM      4  C   UNL d   1      32.690  22.162 -19.934  0.00  0.00     0.041 A 
ATOM      5  C   UNL d   1      32.051  22.612 -20.207  0.00  0.00     0.003 A 
ATOM      6  C   UNL d   1      31.945  23.374 -19.921  0.00  0.00     0.000 A 
ATOM      7  C   UNL d   1      32.468  23.687 -19.368  0.00  0.00     0.000 A 
ATOM      8  C   UNL d   1      33.106  23.229 -19.100  0.00  0.00     0.000 A 
ATOM      9  C   UNL d   1      33.212  22.466 -19.387  0.00  0.00     0.003 A 
ENDBRANCH   2   4
ENDBRANCH   1   2
BRANCH   1  10
ATOM     10  O   UNL d   1      33.128  20.734 -21.445  0.00  0.00    -0.267 OA
BRANCH  10  11
ATOM     11  C   UNL d   1      33.072  20.695 -22.263  0.00  0.00     0.306 C 
ATOM     12  O   UNL d   1      33.055  21.384 -22.711  0.00  0.00    -0.258 OA
BRANCH  11  13
ATOM     13  C   UNL d   1      33.034  19.958 -22.638  0.00  0.00     0.093 A 
ATOM     14  S   UNL d   1      32.781  19.820 -23.410  0.00  0.00    -0.081 SA
ATOM     15  C   UNL d   1      32.831  19.012 -23.559  0.00  0.00     0.036 A 
ATOM     16  C   UNL d   1      33.116  18.644 -22.875  0.00  0.00     0.008 A 
ATOM     17  C   UNL d   1      33.241  19.227 -22.308  0.00  0.00     0.012 A 
ENDBRANCH  11  13
ENDBRANCH  10  11
ENDBRANCH   1  10
TORSDOF 5
ENDMDL
