MODEL 1
REMARK VINA RESULT:     102.9      0.000      0.000
REMARK  4 active torsions:
REMARK  status: ('A' for Active; 'I' for Inactive)
REMARK    1  A    between atoms: S_5  and  C_2 
REMARK    2  A    between atoms: C_15  and  S_5 
REMARK    3  A    between atoms: N_11  and  C_8 
REMARK    4  A    between atoms: C_12  and  N_11 
ROOT
ATOM      1  C   UNL d   1     -50.594  26.025  34.308  0.00  0.00     0.197 A 
ATOM      2  C   UNL d   1     -50.708  25.416  33.757  0.00  0.00     0.227 A 
ATOM      3  N   UNL d   1     -49.834  26.330  34.195  0.00  0.00    -0.192 N 
ATOM      4  N   UNL d   1     -51.081  26.340  34.895  0.00  0.00    -0.206 NA
ATOM      5  N   UNL d   1     -50.019  25.346  33.306  0.00  0.00    -0.115 NA
ATOM      6  N   UNL d   1     -49.475  25.911  33.575  0.00  0.00    -0.058 NA
ATOM      7  C   UNL d   1     -50.810  26.962  35.372  0.00  0.00     0.166 A 
ATOM      8  C   UNL d   1     -50.050  27.262  35.254  0.00  0.00     0.054 A 
ATOM      9  C   UNL d   1     -49.558  26.952  34.670  0.00  0.00     0.089 A 
ATOM     10  C   UNL d   1     -49.773  27.885  35.730  0.00  0.00     0.005 A 
ATOM     11  C   UNL d   1     -48.800  27.254  34.556  0.00  0.00     0.019 A 
ATOM     12  C   UNL d   1     -49.016  28.186  35.615  0.00  0.00     0.000 A 
ATOM     13  C   UNL d   1     -48.530  27.871  35.028  0.00  0.00     0.002 A 
ENDROOT
BRANCH   2  14
ATOM     14  S   UNL d   1     -51.392  24.960  33.675  0.00  0.00     0.231 S 
ATOM     15  O   UNL d   1     -50.966  24.318  33.967  0.00  0.00    -0.215 OA
ATOM     16  O   UNL d   1     -51.813  25.604  33.385  0.00  0.00    -0.215 OA
BRANCH  14  17
ATOM     17  C   UNL d   1     -52.048  24.473  33.610  0.00  0.00     0.090 A 
ATOM     18  C   UNL d   1     -51.993  23.671  33.777  0.00  0.00     0.011 A 
ATOM     19  C   UNL d   1     -52.647  23.188  33.711  0.00  0.00     0.001 A 
ATOM     20  C   UNL d   1     -53.374  23.506  33.474  0.00  0.00     0.000 A 
ATOM     21  C   UNL d   1     -53.430  24.314  33.306  0.00  0.00     0.001 A 
ATOM     22  C   UNL d   1     -52.772  24.795  33.373  0.00  0.00     0.011 A 
ENDBRANCH  14  17
ENDBRANCH   2  14
BRANCH   7  23
ATOM     23  N   UNL d   1     -51.296  27.277  35.959  0.00  0.00    -0.227 NA
BRANCH  23  24
ATOM     24  C   UNL d   1     -51.421  26.862  36.658  0.00  0.00     0.083 A 
ATOM     25  C   UNL d   1     -50.965  27.031  37.326  0.00  0.00     0.019 A 
ATOM     26  C   UNL d   1     -51.090  26.615  38.026  0.00  0.00     0.002 A 
ATOM     27  C   UNL d   1     -50.635  26.783  38.693  0.00  0.00     0.000 C 
ATOM     28  C   UNL d   1     -51.673  26.026  38.062  0.00  0.00     0.000 A 
ATOM     29  C   UNL d   1     -52.127  25.862  37.387  0.00  0.00     0.002 A 
ATOM     30  C   UNL d   1     -52.000  26.278  36.691  0.00  0.00     0.019 A 
ATOM     31  C   UNL d   1     -52.706  25.278  37.420  0.00  0.00     0.000 C 
ENDBRANCH  23  24
ENDBRANCH   7  23
TORSDOF 4
ENDMDL
