MODEL 1
REMARK VINA RESULT:      -7.3      0.000      0.000
REMARK  5 active torsions:
REMARK  status: ('A' for Active; 'I' for Inactive)
REMARK    1  A    between atoms: N_8  and  C_1 
REMARK    2  A    between atoms: C_11  and  C_2 
REMARK    3  A    between atoms: C_4  and  C_6 
REMARK       I    between atoms: C_6  and  N_8 
REMARK    4  A    between atoms: O_17  and  C_11 
REMARK    5  A    between atoms: C_19  and  O_17 
ROOT
ATOM      1  C   UNL d   1     -48.838  11.945  23.095  0.00  0.00     0.114 A 
ATOM      2  C   UNL d   1     -49.701  12.946  22.991  0.00  0.00     0.094 A 
ATOM      3  S   UNL d   1     -49.220  12.550  23.499  0.00  0.00    -0.062 SA
ATOM      4  C   UNL d   1     -49.607  12.565  22.248  0.00  0.00     0.013 A 
ATOM      5  C   UNL d   1     -49.097  11.979  22.323  0.00  0.00     0.027 A 
ATOM      6  C   UNL d   1     -49.990  12.774  21.548  0.00  0.00     0.001 C 
ENDROOT
BRANCH   1   7
ATOM      7  N   UNL d   1     -48.276  11.383  23.412  0.00  0.00    -0.201 NA
ATOM      8  C   UNL d   1     -47.477  11.553  23.385  0.00  0.00     0.286 C 
ATOM      9  O   UNL d   1     -46.940  11.004  23.693  0.00  0.00    -0.265 OA
BRANCH   8  10
ATOM     10  C   UNL d   1     -47.217  12.260  23.054  0.00  0.00     0.088 A 
ATOM     11  S   UNL d   1     -46.955  12.909  23.469  0.00  0.00    -0.071 SA
ATOM     12  C   UNL d   1     -46.749  13.491  22.931  0.00  0.00     0.087 A 
ATOM     13 CL   UNL d   1     -46.466  14.214  23.141  0.00  0.00    -0.075 Cl
ATOM     14  C   UNL d   1     -46.894  13.178  22.158  0.00  0.00     0.019 A 
ATOM     15  C   UNL d   1     -47.176  12.434  22.244  0.00  0.00     0.013 A 
ENDBRANCH   8  10
ENDBRANCH   1   7
BRANCH   2  16
ATOM     16  C   UNL d   1     -50.191  13.596  23.161  0.00  0.00     0.306 C 
ATOM     17  O   UNL d   1     -50.988  13.463  23.262  0.00  0.00    -0.258 OA
BRANCH  16  18
ATOM     18  O   UNL d   1     -49.893  14.352  23.227  0.00  0.00    -0.271 OA
BRANCH  18  19
ATOM     19  C   UNL d   1     -50.333  14.944  23.584  0.00  0.00     0.126 C 
ATOM     20  C   UNL d   1     -50.033  15.711  23.596  0.00  0.00     0.029 C 
ENDBRANCH  18  19
ENDBRANCH  16  18
ENDBRANCH   2  16
TORSDOF 5
ENDMDL
MODEL 2
REMARK VINA RESULT:      -7.0      1.646      3.507
REMARK  5 active torsions:
REMARK  status: ('A' for Active; 'I' for Inactive)
REMARK    1  A    between atoms: N_8  and  C_1 
REMARK    2  A    between atoms: C_11  and  C_2 
REMARK    3  A    between atoms: C_4  and  C_6 
REMARK       I    between atoms: C_6  and  N_8 
REMARK    4  A    between atoms: O_17  and  C_11 
REMARK    5  A    between atoms: C_19  and  O_17 
ROOT
ATOM      1  C   UNL d   1     -49.166  12.729  22.008  0.00  0.00     0.114 A 
ATOM      2  C   UNL d   1     -47.992  12.775  22.622  0.00  0.00     0.094 A 
ATOM      3  S   UNL d   1     -48.432  13.099  22.033  0.00  0.00    -0.062 SA
ATOM      4  C   UNL d   1     -48.478  12.184  22.968  0.00  0.00     0.013 A 
ATOM      5  C   UNL d   1     -49.165  12.167  22.598  0.00  0.00     0.027 A 
ATOM      6  C   UNL d   1     -48.267  11.696  23.599  0.00  0.00     0.001 C 
ENDROOT
BRANCH   1   7
ATOM      7  N   UNL d   1     -49.813  12.893  21.472  0.00  0.00    -0.201 NA
ATOM      8  C   UNL d   1     -50.380  13.444  21.680  0.00  0.00     0.286 C 
ATOM      9  O   UNL d   1     -51.001  13.597  21.157  0.00  0.00    -0.265 OA
BRANCH   8  10
ATOM     10  C   UNL d   1     -50.327  13.837  22.401  0.00  0.00     0.088 A 
ATOM     11  S   UNL d   1     -50.036  14.588  22.511  0.00  0.00    -0.071 SA
ATOM     12  C   UNL d   1     -50.083  14.767  23.309  0.00  0.00     0.087 A 
ATOM     13 CL   UNL d   1     -49.844  15.467  23.625  0.00  0.00    -0.075 Cl
ATOM     14  C   UNL d   1     -50.418  14.093  23.696  0.00  0.00     0.019 A 
ATOM     15  C   UNL d   1     -50.561  13.536  23.138  0.00  0.00     0.013 A 
ENDBRANCH   8  10
ENDBRANCH   1   7
BRANCH   2  16
ATOM     16  C   UNL d   1     -47.217  12.978  22.844  0.00  0.00     0.306 C 
ATOM     17  O   UNL d   1     -47.082  13.192  23.618  0.00  0.00    -0.258 OA
BRANCH  16  18
ATOM     18  O   UNL d   1     -46.601  12.968  22.311  0.00  0.00    -0.271 OA
BRANCH  18  19
ATOM     19  C   UNL d   1     -45.898  13.356  22.478  0.00  0.00     0.126 C 
ATOM     20  C   UNL d   1     -45.240  13.208  22.005  0.00  0.00     0.029 C 
ENDBRANCH  18  19
ENDBRANCH  16  18
ENDBRANCH   2  16
TORSDOF 5
ENDMDL
MODEL 3
REMARK VINA RESULT:      -6.8      2.019      3.401
REMARK  5 active torsions:
REMARK  status: ('A' for Active; 'I' for Inactive)
REMARK    1  A    between atoms: N_8  and  C_1 
REMARK    2  A    between atoms: C_11  and  C_2 
REMARK    3  A    between atoms: C_4  and  C_6 
REMARK       I    between atoms: C_6  and  N_8 
REMARK    4  A    between atoms: O_17  and  C_11 
REMARK    5  A    between atoms: C_19  and  O_17 
ROOT
ATOM      1  C   UNL d   1     -49.777  14.071  21.875  0.00  0.00     0.114 A 
ATOM      2  C   UNL d   1     -48.696  14.591  22.438  0.00  0.00     0.094 A 
ATOM      3  S   UNL d   1     -48.955  14.070  21.883  0.00  0.00    -0.062 SA
ATOM      4  C   UNL d   1     -49.388  14.921  22.780  0.00  0.00     0.013 A 
ATOM      5  C   UNL d   1     -50.017  14.607  22.440  0.00  0.00     0.027 A 
ATOM      6  C   UNL d   1     -49.407  15.488  23.379  0.00  0.00     0.001 C 
ENDROOT
BRANCH   1   7
ATOM      7  N   UNL d   1     -50.292  13.604  21.374  0.00  0.00    -0.201 NA
ATOM      8  C   UNL d   1     -50.564  12.881  21.640  0.00  0.00     0.286 C 
ATOM      9  O   UNL d   1     -51.061  12.436  21.151  0.00  0.00    -0.265 OA
BRANCH   8  10
ATOM     10  C   UNL d   1     -50.343  12.604  22.383  0.00  0.00     0.088 A 
ATOM     11  S   UNL d   1     -49.758  12.059  22.531  0.00  0.00    -0.071 SA
ATOM     12  C   UNL d   1     -49.719  11.940  23.340  0.00  0.00     0.087 A 
ATOM     13 CL   UNL d   1     -49.201  11.435  23.693  0.00  0.00    -0.075 Cl
ATOM     14  C   UNL d   1     -50.306  12.435  23.694  0.00  0.00     0.019 A 
ATOM     15  C   UNL d   1     -50.678  12.832  23.107  0.00  0.00     0.013 A 
ENDBRANCH   8  10
ENDBRANCH   1   7
BRANCH   2  16
ATOM     16  C   UNL d   1     -47.908  14.769  22.635  0.00  0.00     0.306 C 
ATOM     17  O   UNL d   1     -47.621  15.507  22.447  0.00  0.00    -0.258 OA
BRANCH  16  18
ATOM     18  O   UNL d   1     -47.426  14.227  23.007  0.00  0.00    -0.271 OA
BRANCH  18  19
ATOM     19  C   UNL d   1     -46.612  14.259  22.914  0.00  0.00     0.126 C 
ATOM     20  C   UNL d   1     -46.150  13.661  23.242  0.00  0.00     0.029 C 
ENDBRANCH  18  19
ENDBRANCH  16  18
ENDBRANCH   2  16
TORSDOF 5
ENDMDL
MODEL 4
REMARK VINA RESULT:      -6.7      1.643      3.126
REMARK  5 active torsions:
REMARK  status: ('A' for Active; 'I' for Inactive)
REMARK    1  A    between atoms: N_8  and  C_1 
REMARK    2  A    between atoms: C_11  and  C_2 
REMARK    3  A    between atoms: C_4  and  C_6 
REMARK       I    between atoms: C_6  and  N_8 
REMARK    4  A    between atoms: O_17  and  C_11 
REMARK    5  A    between atoms: C_19  and  O_17 
ROOT
ATOM      1  C   UNL d   1     -50.264  13.582  22.955  0.00  0.00     0.114 A 
ATOM      2  C   UNL d   1     -49.533  12.477  22.997  0.00  0.00     0.094 A 
ATOM      3  S   UNL d   1     -49.805  13.095  23.432  0.00  0.00    -0.062 SA
ATOM      4  C   UNL d   1     -49.840  12.593  22.223  0.00  0.00     0.013 A 
ATOM      5  C   UNL d   1     -50.267  13.246  22.212  0.00  0.00     0.027 A 
ATOM      6  C   UNL d   1     -49.712  12.099  21.575  0.00  0.00     0.001 C 
ENDROOT
BRANCH   1   7
ATOM      7  N   UNL d   1     -50.665  14.303  23.181  0.00  0.00    -0.201 NA
ATOM      8  C   UNL d   1     -50.305  15.024  23.046  0.00  0.00     0.286 C 
ATOM      9  O   UNL d   1     -50.699  15.717  23.267  0.00  0.00    -0.265 OA
BRANCH   8  10
ATOM     10  C   UNL d   1     -49.562  15.055  22.694  0.00  0.00     0.088 A 
ATOM     11  S   UNL d   1     -48.859  15.182  23.082  0.00  0.00    -0.071 SA
ATOM     12  C   UNL d   1     -48.255  15.170  22.528  0.00  0.00     0.087 A 
ATOM     13 CL   UNL d   1     -47.479  15.277  22.711  0.00  0.00    -0.075 Cl
ATOM     14  C   UNL d   1     -48.611  15.029  21.774  0.00  0.00     0.019 A 
ATOM     15  C   UNL d   1     -49.401  14.961  21.885  0.00  0.00     0.013 A 
ENDBRANCH   8  10
ENDBRANCH   1   7
BRANCH   2  16
ATOM     16  C   UNL d   1     -49.050  11.851  23.254  0.00  0.00     0.306 C 
ATOM     17  O   UNL d   1     -49.409  11.177  23.534  0.00  0.00    -0.258 OA
BRANCH  16  18
ATOM     18  O   UNL d   1     -48.237  11.900  23.230  0.00  0.00    -0.271 OA
BRANCH  18  19
ATOM     19  C   UNL d   1     -47.776  11.393  23.680  0.00  0.00     0.126 C 
ATOM     20  C   UNL d   1     -46.959  11.501  23.690  0.00  0.00     0.029 C 
ENDBRANCH  18  19
ENDBRANCH  16  18
ENDBRANCH   2  16
TORSDOF 5
ENDMDL
MODEL 5
REMARK VINA RESULT:      -6.4      1.997      3.770
REMARK  5 active torsions:
REMARK  status: ('A' for Active; 'I' for Inactive)
REMARK    1  A    between atoms: N_8  and  C_1 
REMARK    2  A    between atoms: C_11  and  C_2 
REMARK    3  A    between atoms: C_4  and  C_6 
REMARK       I    between atoms: C_6  and  N_8 
REMARK    4  A    between atoms: O_17  and  C_11 
REMARK    5  A    between atoms: C_19  and  O_17 
ROOT
ATOM      1  C   UNL d   1     -49.194  14.444  22.506  0.00  0.00     0.114 A 
ATOM      2  C   UNL d   1     -48.180  13.592  22.439  0.00  0.00     0.094 A 
ATOM      3  S   UNL d   1     -48.587  14.084  22.928  0.00  0.00    -0.062 SA
ATOM      4  C   UNL d   1     -48.555  13.657  21.691  0.00  0.00     0.013 A 
ATOM      5  C   UNL d   1     -49.149  14.160  21.743  0.00  0.00     0.027 A 
ATOM      6  C   UNL d   1     -48.335  13.253  21.005  0.00  0.00     0.001 C 
ENDROOT
BRANCH   1   7
ATOM      7  N   UNL d   1     -49.767  15.009  22.799  0.00  0.00    -0.201 NA
ATOM      8  C   UNL d   1     -50.513  14.752  23.012  0.00  0.00     0.286 C 
ATOM      9  O   UNL d   1     -51.061  15.303  23.294  0.00  0.00    -0.265 OA
BRANCH   8  10
ATOM     10  C   UNL d   1     -50.710  13.956  22.945  0.00  0.00     0.088 A 
ATOM     11  S   UNL d   1     -50.740  13.422  23.558  0.00  0.00    -0.071 SA
ATOM     12  C   UNL d   1     -50.958  12.694  23.252  0.00  0.00     0.087 A 
ATOM     13 CL   UNL d   1     -51.045  12.030  23.697  0.00  0.00    -0.075 Cl
ATOM     14  C   UNL d   1     -51.064  12.795  22.419  0.00  0.00     0.019 A 
ATOM     15  C   UNL d   1     -50.911  13.561  22.243  0.00  0.00     0.013 A 
ENDBRANCH   8  10
ENDBRANCH   1   7
BRANCH   2  16
ATOM     16  C   UNL d   1     -47.525  13.117  22.631  0.00  0.00     0.306 C 
ATOM     17  O   UNL d   1     -46.783  13.388  22.435  0.00  0.00    -0.258 OA
BRANCH  16  18
ATOM     18  O   UNL d   1     -47.611  12.399  23.005  0.00  0.00    -0.271 OA
BRANCH  18  19
ATOM     19  C   UNL d   1     -47.016  12.106  23.487  0.00  0.00     0.126 C 
ATOM     20  C   UNL d   1     -47.028  11.308  23.694  0.00  0.00     0.029 C 
ENDBRANCH  18  19
ENDBRANCH  16  18
ENDBRANCH   2  16
TORSDOF 5
ENDMDL
MODEL 6
REMARK VINA RESULT:      -6.1      1.830      3.742
REMARK  5 active torsions:
REMARK  status: ('A' for Active; 'I' for Inactive)
REMARK    1  A    between atoms: N_8  and  C_1 
REMARK    2  A    between atoms: C_11  and  C_2 
REMARK    3  A    between atoms: C_4  and  C_6 
REMARK       I    between atoms: C_6  and  N_8 
REMARK    4  A    between atoms: O_17  and  C_11 
REMARK    5  A    between atoms: C_19  and  O_17 
ROOT
ATOM      1  C   UNL d   1     -47.153  12.382  23.397  0.00  0.00     0.114 A 
ATOM      2  C   UNL d   1     -46.194  12.995  22.718  0.00  0.00     0.094 A 
ATOM      3  S   UNL d   1     -46.557  12.288  22.839  0.00  0.00    -0.062 SA
ATOM      4  C   UNL d   1     -46.586  13.540  23.222  0.00  0.00     0.013 A 
ATOM      5  C   UNL d   1     -47.147  13.167  23.616  0.00  0.00     0.027 A 
ATOM      6  C   UNL d   1     -46.409  14.343  23.295  0.00  0.00     0.001 C 
ENDROOT
BRANCH   1   7
ATOM      7  N   UNL d   1     -47.682  11.781  23.698  0.00  0.00    -0.201 NA
ATOM      8  C   UNL d   1     -48.412  11.675  23.346  0.00  0.00     0.286 C 
ATOM      9  O   UNL d   1     -48.919  11.091  23.642  0.00  0.00    -0.265 OA
BRANCH   8  10
ATOM     10  C   UNL d   1     -48.635  12.144  22.708  0.00  0.00     0.088 A 
ATOM     11  S   UNL d   1     -49.105  12.807  22.748  0.00  0.00    -0.071 SA
ATOM     12  C   UNL d   1     -49.190  13.106  21.991  0.00  0.00     0.087 A 
ATOM     13 CL   UNL d   1     -49.620  13.763  21.816  0.00  0.00    -0.075 Cl
ATOM     14  C   UNL d   1     -48.751  12.602  21.472  0.00  0.00     0.019 A 
ATOM     15  C   UNL d   1     -48.420  12.023  21.916  0.00  0.00     0.013 A 
ENDBRANCH   8  10
ENDBRANCH   1   7
BRANCH   2  16
ATOM     16  C   UNL d   1     -45.562  13.158  22.201  0.00  0.00     0.306 C 
ATOM     17  O   UNL d   1     -45.635  13.787  21.690  0.00  0.00    -0.258 OA
BRANCH  16  18
ATOM     18  O   UNL d   1     -44.884  12.706  22.197  0.00  0.00    -0.271 OA
BRANCH  18  19
ATOM     19  C   UNL d   1     -44.295  12.844  21.645  0.00  0.00     0.126 C 
ATOM     20  C   UNL d   1     -43.567  12.468  21.738  0.00  0.00     0.029 C 
ENDBRANCH  18  19
ENDBRANCH  16  18
ENDBRANCH   2  16
TORSDOF 5
ENDMDL
MODEL 7
REMARK VINA RESULT:      -6.1      1.596      2.354
REMARK  5 active torsions:
REMARK  status: ('A' for Active; 'I' for Inactive)
REMARK    1  A    between atoms: N_8  and  C_1 
REMARK    2  A    between atoms: C_11  and  C_2 
REMARK    3  A    between atoms: C_4  and  C_6 
REMARK       I    between atoms: C_6  and  N_8 
REMARK    4  A    between atoms: O_17  and  C_11 
REMARK    5  A    between atoms: C_19  and  O_17 
ROOT
ATOM      1  C   UNL d   1     -47.937  13.254  23.205  0.00  0.00     0.114 A 
ATOM      2  C   UNL d   1     -48.397  14.476  22.976  0.00  0.00     0.094 A 
ATOM      3  S   UNL d   1     -48.564  13.771  23.324  0.00  0.00    -0.062 SA
ATOM      4  C   UNL d   1     -47.637  14.383  22.630  0.00  0.00     0.013 A 
ATOM      5  C   UNL d   1     -47.378  13.660  22.772  0.00  0.00     0.027 A 
ATOM      6  C   UNL d   1     -47.226  14.959  22.208  0.00  0.00     0.001 C 
ENDROOT
BRANCH   1   7
ATOM      7  N   UNL d   1     -47.872  12.445  23.476  0.00  0.00    -0.201 NA
ATOM      8  C   UNL d   1     -48.273  11.853  23.080  0.00  0.00     0.286 C 
ATOM      9  O   UNL d   1     -48.205  11.074  23.348  0.00  0.00    -0.265 OA
BRANCH   8  10
ATOM     10  C   UNL d   1     -48.736  12.036  22.424  0.00  0.00     0.088 A 
ATOM     11  S   UNL d   1     -49.542  12.141  22.428  0.00  0.00    -0.071 SA
ATOM     12  C   UNL d   1     -49.781  12.315  21.665  0.00  0.00     0.087 A 
ATOM     13 CL   UNL d   1     -50.546  12.454  21.456  0.00  0.00    -0.075 Cl
ATOM     14  C   UNL d   1     -49.088  12.314  21.180  0.00  0.00     0.019 A 
ATOM     15  C   UNL d   1     -48.461  12.145  21.649  0.00  0.00     0.013 A 
ENDBRANCH   8  10
ENDBRANCH   1   7
BRANCH   2  16
ATOM     16  C   UNL d   1     -48.874  15.157  22.958  0.00  0.00     0.306 C 
ATOM     17  O   UNL d   1     -48.766  15.687  22.349  0.00  0.00    -0.258 OA
BRANCH  16  18
ATOM     18  O   UNL d   1     -49.436  15.302  23.530  0.00  0.00    -0.271 OA
BRANCH  18  19
ATOM     19  C   UNL d   1     -49.966  15.922  23.445  0.00  0.00     0.126 C 
ATOM     20  C   UNL d   1     -50.745  15.816  23.694  0.00  0.00     0.029 C 
ENDBRANCH  18  19
ENDBRANCH  16  18
ENDBRANCH   2  16
TORSDOF 5
ENDMDL
MODEL 8
REMARK VINA RESULT:      -5.5      1.969      2.935
REMARK  5 active torsions:
REMARK  status: ('A' for Active; 'I' for Inactive)
REMARK    1  A    between atoms: N_8  and  C_1 
REMARK    2  A    between atoms: C_11  and  C_2 
REMARK    3  A    between atoms: C_4  and  C_6 
REMARK       I    between atoms: C_6  and  N_8 
REMARK    4  A    between atoms: O_17  and  C_11 
REMARK    5  A    between atoms: C_19  and  O_17 
ROOT
ATOM      1  C   UNL d   1     -47.733  13.399  22.253  0.00  0.00     0.114 A 
ATOM      2  C   UNL d   1     -48.544  12.378  22.490  0.00  0.00     0.094 A 
ATOM      3  S   UNL d   1     -48.031  12.896  22.830  0.00  0.00    -0.062 SA
ATOM      4  C   UNL d   1     -48.556  12.575  21.674  0.00  0.00     0.013 A 
ATOM      5  C   UNL d   1     -48.075  13.178  21.548  0.00  0.00     0.027 A 
ATOM      6  C   UNL d   1     -49.004  12.197  21.093  0.00  0.00     0.001 C 
ENDROOT
BRANCH   1   7
ATOM      7  N   UNL d   1     -47.171  14.037  22.360  0.00  0.00    -0.201 NA
ATOM      8  C   UNL d   1     -47.437  14.774  22.590  0.00  0.00     0.286 C 
ATOM      9  O   UNL d   1     -46.889  15.385  22.691  0.00  0.00    -0.265 OA
BRANCH   8  10
ATOM     10  C   UNL d   1     -48.240  14.902  22.717  0.00  0.00     0.088 A 
ATOM     11  S   UNL d   1     -48.765  15.202  22.173  0.00  0.00    -0.071 SA
ATOM     12  C   UNL d   1     -49.504  15.239  22.523  0.00  0.00     0.087 A 
ATOM     13 CL   UNL d   1     -50.163  15.509  22.149  0.00  0.00    -0.075 Cl
ATOM     14  C   UNL d   1     -49.421  14.948  23.313  0.00  0.00     0.019 A 
ATOM     15  C   UNL d   1     -48.653  14.747  23.420  0.00  0.00     0.013 A 
ENDBRANCH   8  10
ENDBRANCH   1   7
BRANCH   2  16
ATOM     16  C   UNL d   1     -48.973  11.772  22.864  0.00  0.00     0.306 C 
ATOM     17  O   UNL d   1     -48.560  11.147  23.182  0.00  0.00    -0.258 OA
BRANCH  16  18
ATOM     18  O   UNL d   1     -49.786  11.792  22.916  0.00  0.00    -0.271 OA
BRANCH  18  19
ATOM     19  C   UNL d   1     -50.171  11.442  23.550  0.00  0.00     0.126 C 
ATOM     20  C   UNL d   1     -50.957  11.644  23.698  0.00  0.00     0.029 C 
ENDBRANCH  18  19
ENDBRANCH  16  18
ENDBRANCH   2  16
TORSDOF 5
ENDMDL
MODEL 9
REMARK VINA RESULT:      -5.0      8.881     10.186
REMARK  5 active torsions:
REMARK  status: ('A' for Active; 'I' for Inactive)
REMARK    1  A    between atoms: N_8  and  C_1 
REMARK    2  A    between atoms: C_11  and  C_2 
REMARK    3  A    between atoms: C_4  and  C_6 
REMARK       I    between atoms: C_6  and  N_8 
REMARK    4  A    between atoms: O_17  and  C_11 
REMARK    5  A    between atoms: C_19  and  O_17 
ROOT
ATOM      1  C   UNL d   1     -38.848  15.238  19.483  0.00  0.00     0.114 A 
ATOM      2  C   UNL d   1     -39.379  15.183  18.269  0.00  0.00     0.094 A 
ATOM      3  S   UNL d   1     -39.141  15.680  18.854  0.00  0.00    -0.062 SA
ATOM      4  C   UNL d   1     -39.224  14.408  18.553  0.00  0.00     0.013 A 
ATOM      5  C   UNL d   1     -38.912  14.454  19.268  0.00  0.00     0.027 A 
ATOM      6  C   UNL d   1     -39.375  13.706  18.147  0.00  0.00     0.001 C 
ENDROOT
BRANCH   1   7
ATOM      7  N   UNL d   1     -38.535  15.532  20.223  0.00  0.00    -0.201 NA
ATOM      8  C   UNL d   1     -39.033  15.619  20.865  0.00  0.00     0.286 C 
ATOM      9  O   UNL d   1     -38.723  15.903  21.577  0.00  0.00    -0.265 OA
BRANCH   8  10
ATOM     10  C   UNL d   1     -39.830  15.426  20.798  0.00  0.00     0.088 A 
ATOM     11  S   UNL d   1     -40.164  14.713  21.005  0.00  0.00    -0.071 SA
ATOM     12  C   UNL d   1     -40.967  14.753  20.850  0.00  0.00     0.087 A 
ATOM     13 CL   UNL d   1     -41.479  14.147  20.987  0.00  0.00    -0.075 Cl
ATOM     14  C   UNL d   1     -41.123  15.523  20.537  0.00  0.00     0.019 A 
ATOM     15  C   UNL d   1     -40.429  15.922  20.510  0.00  0.00     0.013 A 
ENDBRANCH   8  10
ENDBRANCH   1   7
BRANCH   2  16
ATOM     16  C   UNL d   1     -39.709  15.389  17.534  0.00  0.00     0.306 C 
ATOM     17  O   UNL d   1     -39.204  15.550  16.916  0.00  0.00    -0.258 OA
BRANCH  16  18
ATOM     18  O   UNL d   1     -40.515  15.432  17.423  0.00  0.00    -0.271 OA
BRANCH  18  19
ATOM     19  C   UNL d   1     -40.825  15.777  16.747  0.00  0.00     0.126 C 
ATOM     20  C   UNL d   1     -41.641  15.874  16.689  0.00  0.00     0.029 C 
ENDBRANCH  18  19
ENDBRANCH  16  18
ENDBRANCH   2  16
TORSDOF 5
ENDMDL
