MODEL 1
REMARK VINA RESULT:      49.6      0.000      0.000
REMARK  7 active torsions:
REMARK  status: ('A' for Active; 'I' for Inactive)
REMARK    1  A    between atoms: C_7  and  C_1 
REMARK    2  A    between atoms: C_10  and  C_2 
REMARK    3  A    between atoms: S_12  and  C_5 
REMARK    4  A    between atoms: C_11  and  C_6 
REMARK    5  A    between atoms: O_15  and  C_7 
REMARK    6  A    between atoms: C_21  and  S_12 
REMARK    7  A    between atoms: C_22  and  O_15 
ROOT
ATOM      1  C   UNL d   1      46.098 -17.608  43.529  0.00  0.00     0.082 A 
ATOM      2  C   UNL d   1      46.141 -16.926  43.032  0.00  0.00     0.087 A 
ATOM      3  C   UNL d   1      46.391 -18.446  42.434  0.00  0.00     0.092 A 
ATOM      4  N   UNL d   1      46.316 -17.034  42.211  0.00  0.00    -0.238 NA
ATOM      5  C   UNL d   1      46.437 -17.793  41.932  0.00  0.00     0.120 A 
ATOM      6  C   UNL d   1      46.223 -18.355  43.227  0.00  0.00     0.020 A 
ATOM      7  C   UNL d   1      46.519 -19.223  42.126  0.00  0.00     0.103 C 
ATOM      8  N   UNL d   1      46.646 -20.003  41.820  0.00  0.00    -0.191 NA
ENDROOT
BRANCH   6   9
ATOM      9  C   UNL d   1      46.177 -19.008  43.729  0.00  0.00     0.020 A 
ATOM     10  C   UNL d   1      45.743 -19.669  43.495  0.00  0.00     0.099 A 
ATOM     11  N   UNL d   1      45.697 -20.322  43.997  0.00  0.00    -0.242 NA
ATOM     12  C   UNL d   1      46.084 -20.314  44.733  0.00  0.00     0.099 A 
ATOM     13  C   UNL d   1      46.515 -19.645  44.953  0.00  0.00     0.021 A 
ATOM     14  C   UNL d   1      46.561 -18.992  44.451  0.00  0.00     0.003 A 
ENDBRANCH   6   9
BRANCH   5  15
ATOM     15  S   UNL d   1      46.613 -17.890  41.101  0.00  0.00    -0.067 SA
BRANCH  15  16
ATOM     16  C   UNL d   1      46.048 -18.228  40.585  0.00  0.00     0.037 C 
ATOM     17  C   UNL d   1      45.904 -17.892  39.857  0.00  0.00     0.007 C 
ENDBRANCH  15  16
ENDBRANCH   5  15
BRANCH   1  18
ATOM     18  C   UNL d   1      45.923 -17.499  44.351  0.00  0.00     0.302 C 
ATOM     19  O   UNL d   1      46.561 -17.409  44.870  0.00  0.00    -0.259 OA
BRANCH  18  20
ATOM     20  O   UNL d   1      45.161 -17.487  44.600  0.00  0.00    -0.271 OA
BRANCH  20  21
ATOM     21  C   UNL d   1      44.780 -16.767  44.764  0.00  0.00     0.126 C 
ATOM     22  C   UNL d   1      43.977 -16.749  44.951  0.00  0.00     0.029 C 
ENDBRANCH  20  21
ENDBRANCH  18  20
ENDBRANCH   1  18
BRANCH   2  23
ATOM     23  C   UNL d   1      46.017 -16.175  43.332  0.00  0.00     0.018 A 
ATOM     24  C   UNL d   1      46.636 -15.747  43.627  0.00  0.00     0.002 A 
ATOM     25  C   UNL d   1      46.515 -14.987  43.932  0.00  0.00     0.000 A 
ATOM     26  C   UNL d   1      45.758 -14.659  43.936  0.00  0.00     0.000 A 
ATOM     27  C   UNL d   1      45.114 -15.109  43.627  0.00  0.00     0.000 A 
ATOM     28  C   UNL d   1      45.256 -15.856  43.332  0.00  0.00     0.002 A 
ENDBRANCH   2  23
TORSDOF 7
ENDMDL
