MODEL 1
REMARK VINA RESULT:      -0.5      0.000      0.000
REMARK  2 active torsions:
REMARK  status: ('A' for Active; 'I' for Inactive)
REMARK    1  A    between atoms: CA_3  and  C_1 
REMARK    2  A    between atoms: C_2  and  CA_3 
ROOT
ATOM      1  C   UNL d   1      23.680  12.890  -0.640  0.00  0.00     0.026 A 
ATOM      2  C   UNL d   1      23.662  12.825  -1.464  0.00  0.00     0.009 A 
ATOM      3  C   UNL d   1      24.194  12.331  -1.851  0.00  0.00     0.035 A 
ATOM      4 BR   UNL d   1      24.174  12.268  -2.671  0.00  0.00    -0.049 Br
ATOM      5  C   UNL d   1      24.234  12.458  -0.206  0.00  0.00     0.002 A 
ATOM      6  C   UNL d   1      24.768  11.962  -0.596  0.00  0.00     0.001 A 
ATOM      7  C   UNL d   1      24.747  11.899  -1.418  0.00  0.00     0.007 A 
ENDROOT
BRANCH   1   8
ATOM      8  CA  UNL d   1      23.145  13.386  -0.256  0.00  0.00     0.167 C 
ATOM      9  N   UNL d   1      23.379  14.134  -0.015  0.00  0.00    -0.142 N 
BRANCH   8  10
ATOM     10  C   UNL d   1      22.374  13.131  -0.113  0.00  0.00     0.231 C 
ATOM     11  O   UNL d   1      21.755  13.683  -0.068  0.00  0.00    -0.643 OA
ATOM     12  OXT UNL d   1      22.213  12.325  -0.015  0.00  0.00    -0.643 OA
ENDBRANCH   8  10
ENDBRANCH   1   8
TORSDOF 2
ENDMDL
MODEL 2
REMARK VINA RESULT:       0.7      2.164      2.671
REMARK  2 active torsions:
REMARK  status: ('A' for Active; 'I' for Inactive)
REMARK    1  A    between atoms: CA_3  and  C_1 
REMARK    2  A    between atoms: C_2  and  CA_3 
ROOT
ATOM      1  C   UNL d   1      24.185  12.927  -1.444  0.00  0.00     0.026 A 
ATOM      2  C   UNL d   1      23.454  12.871  -1.063  0.00  0.00     0.009 A 
ATOM      3  C   UNL d   1      23.302  13.324  -0.392  0.00  0.00     0.035 A 
ATOM      4 BR   UNL d   1      22.573  13.267  -0.015  0.00  0.00    -0.049 Br
ATOM      5  C   UNL d   1      24.763  13.438  -1.152  0.00  0.00     0.002 A 
ATOM      6  C   UNL d   1      24.609  13.893  -0.478  0.00  0.00     0.001 A 
ATOM      7  C   UNL d   1      23.880  13.835  -0.100  0.00  0.00     0.007 A 
ENDROOT
BRANCH   1   8
ATOM      8  CA  UNL d   1      24.333  12.472  -2.116  0.00  0.00     0.167 C 
ATOM      9  N   UNL d   1      24.768  11.779  -2.055  0.00  0.00    -0.142 N 
BRANCH   8  10
ATOM     10  C   UNL d   1      24.043  12.711  -2.850  0.00  0.00     0.231 C 
ATOM     11  O   UNL d   1      24.570  12.926  -3.455  0.00  0.00    -0.643 OA
ATOM     12  OXT UNL d   1      23.228  12.740  -2.987  0.00  0.00    -0.643 OA
ENDBRANCH   8  10
ENDBRANCH   1   8
TORSDOF 2
ENDMDL
