MODEL 1
REMARK VINA RESULT:      -6.1      0.000      0.000
REMARK  4 active torsions:
REMARK  status: ('A' for Active; 'I' for Inactive)
REMARK    1  A    between atoms: N_5  and  S_1 
REMARK    2  A    between atoms: C_8  and  S_1 
REMARK    3  A    between atoms: C_2  and  C_7 
REMARK    4  A    between atoms: C_11  and  N_5 
ROOT
ATOM      1  C   UNL d   1     -39.525  14.845  17.908  0.00  0.00     0.025 A 
ATOM      2  C   UNL d   1     -39.105  15.274  18.475  0.00  0.00     0.020 A 
ATOM      3  C   UNL d   1     -39.461  15.494  19.180  0.00  0.00     0.094 A 
ATOM      4  C   UNL d   1     -40.308  14.631  18.044  0.00  0.00     0.002 A 
ATOM      5  C   UNL d   1     -40.255  15.276  19.315  0.00  0.00     0.020 A 
ATOM      6  C   UNL d   1     -38.317  15.485  18.330  0.00  0.00     0.002 C 
ATOM      7  C   UNL d   1     -40.673  14.845  18.744  0.00  0.00     0.002 A 
ENDROOT
BRANCH   3   8
ATOM      8  N   UNL d   1     -39.049  15.918  19.743  0.00  0.00    -0.158 NA
BRANCH   8   9
ATOM      9  S   UNL d   1     -38.972  15.623  20.508  0.00  0.00     0.285 S 
ATOM     10  O   UNL d   1     -39.794  15.686  20.604  0.00  0.00    -0.198 OA
ATOM     11  O   UNL d   1     -38.152  15.564  20.404  0.00  0.00    -0.198 OA
BRANCH   9  12
ATOM     12  C   UNL d   1     -38.900  15.328  21.275  0.00  0.00     0.107 A 
ATOM     13  C   UNL d   1     -38.857  14.509  21.395  0.00  0.00     0.040 A 
ATOM     14  C   UNL d   1     -38.785  14.227  22.167  0.00  0.00     0.123 A 
ATOM     15  O   UNL d   1     -38.742  13.422  22.297  0.00  0.00    -0.301 OA
ATOM     16  C   UNL d   1     -38.754  14.746  22.808  0.00  0.00     0.123 A 
ATOM     17  C   UNL d   1     -38.669  13.124  23.061  0.00  0.00     0.149 A 
ATOM     18  C   UNL d   1     -38.640  13.649  23.697  0.00  0.00     0.149 A 
ATOM     19  O   UNL d   1     -38.682  14.455  23.567  0.00  0.00    -0.301 OA
ATOM     20  C   UNL d   1     -38.797  15.555  22.675  0.00  0.00     0.028 A 
ATOM     21  C   UNL d   1     -38.870  15.850  21.908  0.00  0.00     0.015 A 
ENDBRANCH   9  12
ENDBRANCH   8   9
ENDBRANCH   3   8
BRANCH   1  22
ATOM     22  C   UNL d   1     -39.150  14.627  17.193  0.00  0.00     0.112 A 
ATOM     23  S   UNL d   1     -38.929  13.865  16.978  0.00  0.00    -0.047 SA
ATOM     24  C   UNL d   1     -38.575  13.898  16.225  0.00  0.00     0.130 A 
ATOM     25  N   UNL d   1     -38.252  13.332  15.732  0.00  0.00    -0.236 NA
ATOM     26  C   UNL d   1     -38.587  14.699  15.986  0.00  0.00     0.106 A 
ATOM     27  C   UNL d   1     -37.940  13.547  15.005  0.00  0.00     0.100 A 
ATOM     28  C   UNL d   1     -37.948  14.334  14.764  0.00  0.00     0.022 A 
ATOM     29  C   UNL d   1     -38.271  14.910  15.252  0.00  0.00     0.023 A 
ATOM     30  N   UNL d   1     -38.943  15.151  16.585  0.00  0.00    -0.237 NA
ENDBRANCH   1  22
TORSDOF 4
ENDMDL
MODEL 2
REMARK VINA RESULT:      -6.0      8.289      9.834
REMARK  4 active torsions:
REMARK  status: ('A' for Active; 'I' for Inactive)
REMARK    1  A    between atoms: N_5  and  S_1 
REMARK    2  A    between atoms: C_8  and  S_1 
REMARK    3  A    between atoms: C_2  and  C_7 
REMARK    4  A    between atoms: C_11  and  N_5 
ROOT
ATOM      1  C   UNL d   1     -48.243  13.524  22.251  0.00  0.00     0.025 A 
ATOM      2  C   UNL d   1     -47.534  13.640  22.656  0.00  0.00     0.020 A 
ATOM      3  C   UNL d   1     -46.878  13.177  22.490  0.00  0.00     0.094 A 
ATOM      4  C   UNL d   1     -48.302  12.941  21.673  0.00  0.00     0.002 A 
ATOM      5  C   UNL d   1     -46.940  12.587  21.904  0.00  0.00     0.020 A 
ATOM      6  C   UNL d   1     -47.483  14.229  23.236  0.00  0.00     0.002 C 
ATOM      7  C   UNL d   1     -47.654  12.473  21.499  0.00  0.00     0.002 A 
ENDROOT
BRANCH   3   8
ATOM      8  N   UNL d   1     -46.174  13.288  22.888  0.00  0.00    -0.158 NA
BRANCH   8   9
ATOM      9  S   UNL d   1     -45.597  12.700  22.880  0.00  0.00     0.285 S 
ATOM     10  O   UNL d   1     -45.222  13.091  22.251  0.00  0.00    -0.198 OA
ATOM     11  O   UNL d   1     -45.978  12.317  23.509  0.00  0.00    -0.198 OA
BRANCH   9  12
ATOM     12  C   UNL d   1     -45.018  12.113  22.869  0.00  0.00     0.107 A 
ATOM     13  C   UNL d   1     -45.141  11.410  23.292  0.00  0.00     0.040 A 
ATOM     14  C   UNL d   1     -44.553  10.832  23.273  0.00  0.00     0.123 A 
ATOM     15  O   UNL d   1     -44.663  10.135  23.686  0.00  0.00    -0.301 OA
ATOM     16  C   UNL d   1     -43.858  10.946  22.844  0.00  0.00     0.123 A 
ATOM     17  C   UNL d   1     -44.087   9.547  23.677  0.00  0.00     0.149 A 
ATOM     18  C   UNL d   1     -43.394   9.668  23.246  0.00  0.00     0.149 A 
ATOM     19  O   UNL d   1     -43.284  10.365  22.833  0.00  0.00    -0.301 OA
ATOM     20  C   UNL d   1     -43.749  11.646  22.430  0.00  0.00     0.028 A 
ATOM     21  C   UNL d   1     -44.328  12.234  22.440  0.00  0.00     0.015 A 
ENDBRANCH   9  12
ENDBRANCH   8   9
ENDBRANCH   3   8
BRANCH   1  22
ATOM     22  C   UNL d   1     -48.905  14.003  22.430  0.00  0.00     0.112 A 
ATOM     23  S   UNL d   1     -49.332  14.455  21.892  0.00  0.00    -0.047 SA
ATOM     24  C   UNL d   1     -49.943  14.844  22.303  0.00  0.00     0.130 A 
ATOM     25  N   UNL d   1     -50.535  15.357  22.074  0.00  0.00    -0.236 NA
ATOM     26  C   UNL d   1     -49.877  14.618  23.106  0.00  0.00     0.106 A 
ATOM     27  C   UNL d   1     -51.064  15.652  22.627  0.00  0.00     0.100 A 
ATOM     28  C   UNL d   1     -51.005  15.433  23.418  0.00  0.00     0.022 A 
ATOM     29  C   UNL d   1     -50.413  14.917  23.659  0.00  0.00     0.023 A 
ATOM     30  N   UNL d   1     -49.234  14.097  23.184  0.00  0.00    -0.237 NA
ENDBRANCH   1  22
TORSDOF 4
ENDMDL
MODEL 3
REMARK VINA RESULT:      -5.8      8.517     10.051
REMARK  4 active torsions:
REMARK  status: ('A' for Active; 'I' for Inactive)
REMARK    1  A    between atoms: N_5  and  S_1 
REMARK    2  A    between atoms: C_8  and  S_1 
REMARK    3  A    between atoms: C_2  and  C_7 
REMARK    4  A    between atoms: C_11  and  N_5 
ROOT
ATOM      1  C   UNL d   1     -48.681  12.603  22.759  0.00  0.00     0.025 A 
ATOM      2  C   UNL d   1     -47.994  12.699  23.207  0.00  0.00     0.020 A 
ATOM      3  C   UNL d   1     -47.440  12.097  23.256  0.00  0.00     0.094 A 
ATOM      4  C   UNL d   1     -48.819  11.900  22.354  0.00  0.00     0.002 A 
ATOM      5  C   UNL d   1     -47.582  11.385  22.844  0.00  0.00     0.020 A 
ATOM      6  C   UNL d   1     -47.863  13.410  23.611  0.00  0.00     0.002 C 
ATOM      7  C   UNL d   1     -48.273  11.293  22.395  0.00  0.00     0.002 A 
ENDROOT
BRANCH   3   8
ATOM      8  N   UNL d   1     -46.760  12.188  23.698  0.00  0.00    -0.158 NA
BRANCH   8   9
ATOM      9  S   UNL d   1     -46.022  12.148  23.334  0.00  0.00     0.285 S 
ATOM     10  O   UNL d   1     -46.055  11.320  23.382  0.00  0.00    -0.198 OA
ATOM     11  O   UNL d   1     -45.999  12.975  23.290  0.00  0.00    -0.198 OA
BRANCH   9  12
ATOM     12  C   UNL d   1     -45.283  12.104  22.969  0.00  0.00     0.107 A 
ATOM     13  C   UNL d   1     -45.052  12.702  22.443  0.00  0.00     0.040 A 
ATOM     14  C   UNL d   1     -44.311  12.646  22.086  0.00  0.00     0.123 A 
ATOM     15  O   UNL d   1     -44.072  13.229  21.565  0.00  0.00    -0.301 OA
ATOM     16  C   UNL d   1     -43.808  12.011  22.245  0.00  0.00     0.123 A 
ATOM     17  C   UNL d   1     -43.335  13.188  21.200  0.00  0.00     0.149 A 
ATOM     18  C   UNL d   1     -42.838  12.550  21.365  0.00  0.00     0.149 A 
ATOM     19  O   UNL d   1     -43.077  11.967  21.885  0.00  0.00    -0.301 OA
ATOM     20  C   UNL d   1     -44.050  11.426  22.768  0.00  0.00     0.028 A 
ATOM     21  C   UNL d   1     -44.789  11.469  23.133  0.00  0.00     0.015 A 
ENDBRANCH   9  12
ENDBRANCH   8   9
ENDBRANCH   3   8
BRANCH   1  22
ATOM     22  C   UNL d   1     -49.238  13.226  22.717  0.00  0.00     0.112 A 
ATOM     23  S   UNL d   1     -49.510  13.583  22.028  0.00  0.00    -0.047 SA
ATOM     24  C   UNL d   1     -50.057  14.174  22.239  0.00  0.00     0.130 A 
ATOM     25  N   UNL d   1     -50.504  14.705  21.808  0.00  0.00    -0.236 NA
ATOM     26  C   UNL d   1     -50.112  14.169  23.074  0.00  0.00     0.106 A 
ATOM     27  C   UNL d   1     -51.004  15.231  22.188  0.00  0.00     0.100 A 
ATOM     28  C   UNL d   1     -51.062  15.230  23.009  0.00  0.00     0.022 A 
ATOM     29  C   UNL d   1     -50.617  14.701  23.453  0.00  0.00     0.023 A 
ATOM     30  N   UNL d   1     -49.604  13.581  23.370  0.00  0.00    -0.237 NA
ENDBRANCH   1  22
TORSDOF 4
ENDMDL
MODEL 4
REMARK VINA RESULT:      -4.8      7.573      9.191
REMARK  4 active torsions:
REMARK  status: ('A' for Active; 'I' for Inactive)
REMARK    1  A    between atoms: N_5  and  S_1 
REMARK    2  A    between atoms: C_8  and  S_1 
REMARK    3  A    between atoms: C_2  and  C_7 
REMARK    4  A    between atoms: C_11  and  N_5 
ROOT
ATOM      1  C   UNL d   1     -47.524  13.795  22.659  0.00  0.00     0.025 A 
ATOM      2  C   UNL d   1     -47.093  13.156  22.365  0.00  0.00     0.020 A 
ATOM      3  C   UNL d   1     -46.273  13.176  22.355  0.00  0.00     0.094 A 
ATOM      4  C   UNL d   1     -47.138  14.462  22.948  0.00  0.00     0.002 A 
ATOM      5  C   UNL d   1     -45.883  13.853  22.648  0.00  0.00     0.020 A 
ATOM      6  C   UNL d   1     -47.490  12.489  22.076  0.00  0.00     0.002 C 
ATOM      7  C   UNL d   1     -46.320  14.492  22.943  0.00  0.00     0.002 A 
ENDROOT
BRANCH   3   8
ATOM      8  N   UNL d   1     -45.842  12.546  22.065  0.00  0.00    -0.158 NA
BRANCH   8   9
ATOM      9  S   UNL d   1     -45.029  12.618  21.953  0.00  0.00     0.285 S 
ATOM     10  O   UNL d   1     -44.909  12.352  22.730  0.00  0.00    -0.198 OA
ATOM     11  O   UNL d   1     -45.158  12.884  21.179  0.00  0.00    -0.198 OA
BRANCH   9  12
ATOM     12  C   UNL d   1     -44.214  12.689  21.846  0.00  0.00     0.107 A 
ATOM     13  C   UNL d   1     -43.914  13.330  21.412  0.00  0.00     0.040 A 
ATOM     14  C   UNL d   1     -43.098  13.389  21.312  0.00  0.00     0.123 A 
ATOM     15  O   UNL d   1     -42.790  14.016  20.887  0.00  0.00    -0.301 OA
ATOM     16  C   UNL d   1     -42.588  12.826  21.634  0.00  0.00     0.123 A 
ATOM     17  C   UNL d   1     -41.978  14.089  20.778  0.00  0.00     0.149 A 
ATOM     18  C   UNL d   1     -41.474  13.522  21.103  0.00  0.00     0.149 A 
ATOM     19  O   UNL d   1     -41.781  12.895  21.528  0.00  0.00    -0.301 OA
ATOM     20  C   UNL d   1     -42.898  12.197  22.061  0.00  0.00     0.028 A 
ATOM     21  C   UNL d   1     -43.712  12.125  22.169  0.00  0.00     0.015 A 
ENDBRANCH   9  12
ENDBRANCH   8   9
ENDBRANCH   3   8
BRANCH   1  22
ATOM     22  C   UNL d   1     -48.360  13.762  22.663  0.00  0.00     0.112 A 
ATOM     23  S   UNL d   1     -48.858  14.115  22.112  0.00  0.00    -0.047 SA
ATOM     24  C   UNL d   1     -49.645  13.944  22.324  0.00  0.00     0.130 A 
ATOM     25  N   UNL d   1     -50.369  14.138  21.998  0.00  0.00    -0.236 NA
ATOM     26  C   UNL d   1     -49.615  13.478  23.018  0.00  0.00     0.106 A 
ATOM     27  C   UNL d   1     -51.063  13.878  22.347  0.00  0.00     0.100 A 
ATOM     28  C   UNL d   1     -51.039  13.419  23.030  0.00  0.00     0.022 A 
ATOM     29  C   UNL d   1     -50.317  13.218  23.366  0.00  0.00     0.023 A 
ATOM     30  N   UNL d   1     -48.819  13.366  23.227  0.00  0.00    -0.237 NA
ENDBRANCH   1  22
TORSDOF 4
ENDMDL
MODEL 5
REMARK VINA RESULT:      -4.0      3.641      4.321
REMARK  4 active torsions:
REMARK  status: ('A' for Active; 'I' for Inactive)
REMARK    1  A    between atoms: N_5  and  S_1 
REMARK    2  A    between atoms: C_8  and  S_1 
REMARK    3  A    between atoms: C_2  and  C_7 
REMARK    4  A    between atoms: C_11  and  N_5 
ROOT
ATOM      1  C   UNL d   1     -40.848  15.067  19.702  0.00  0.00     0.025 A 
ATOM      2  C   UNL d   1     -41.040  14.279  19.854  0.00  0.00     0.020 A 
ATOM      3  C   UNL d   1     -41.446  14.072  20.536  0.00  0.00     0.094 A 
ATOM      4  C   UNL d   1     -41.063  15.657  20.234  0.00  0.00     0.002 A 
ATOM      5  C   UNL d   1     -41.661  14.672  21.073  0.00  0.00     0.020 A 
ATOM      6  C   UNL d   1     -40.820  13.690  19.314  0.00  0.00     0.002 C 
ATOM      7  C   UNL d   1     -41.467  15.463  20.917  0.00  0.00     0.002 A 
ENDROOT
BRANCH   3   8
ATOM      8  N   UNL d   1     -41.637  13.294  20.690  0.00  0.00    -0.158 NA
BRANCH   8   9
ATOM      9  S   UNL d   1     -42.340  13.110  21.079  0.00  0.00     0.285 S 
ATOM     10  O   UNL d   1     -41.995  13.352  21.794  0.00  0.00    -0.198 OA
ATOM     11  O   UNL d   1     -42.675  12.871  20.359  0.00  0.00    -0.198 OA
BRANCH   9  12
ATOM     12  C   UNL d   1     -43.042  12.927  21.471  0.00  0.00     0.107 A 
ATOM     13  C   UNL d   1     -43.663  13.477  21.474  0.00  0.00     0.040 A 
ATOM     14  C   UNL d   1     -44.359  13.282  21.870  0.00  0.00     0.123 A 
ATOM     15  O   UNL d   1     -44.978  13.816  21.879  0.00  0.00    -0.301 OA
ATOM     16  C   UNL d   1     -44.441  12.557  22.255  0.00  0.00     0.123 A 
ATOM     17  C   UNL d   1     -45.680  13.637  22.270  0.00  0.00     0.149 A 
ATOM     18  C   UNL d   1     -45.755  12.910  22.653  0.00  0.00     0.149 A 
ATOM     19  O   UNL d   1     -45.136  12.376  22.644  0.00  0.00    -0.301 OA
ATOM     20  C   UNL d   1     -43.819  12.022  22.245  0.00  0.00     0.028 A 
ATOM     21  C   UNL d   1     -43.116  12.204  21.853  0.00  0.00     0.015 A 
ENDBRANCH   9  12
ENDBRANCH   8   9
ENDBRANCH   3   8
BRANCH   1  22
ATOM     22  C   UNL d   1     -40.434  15.264  19.003  0.00  0.00     0.112 A 
ATOM     23  S   UNL d   1     -39.618  15.341  18.931  0.00  0.00    -0.047 SA
ATOM     24  C   UNL d   1     -39.442  15.542  18.143  0.00  0.00     0.130 A 
ATOM     25  N   UNL d   1     -38.745  15.689  17.743  0.00  0.00    -0.236 NA
ATOM     26  C   UNL d   1     -40.172  15.585  17.734  0.00  0.00     0.106 A 
ATOM     27  C   UNL d   1     -38.757  15.878  16.946  0.00  0.00     0.100 A 
ATOM     28  C   UNL d   1     -39.471  15.922  16.539  0.00  0.00     0.022 A 
ATOM     29  C   UNL d   1     -40.177  15.776  16.931  0.00  0.00     0.023 A 
ATOM     30  N   UNL d   1     -40.785  15.413  18.267  0.00  0.00    -0.237 NA
ENDBRANCH   1  22
TORSDOF 4
ENDMDL
MODEL 6
REMARK VINA RESULT:      -4.0      6.500      7.504
REMARK  4 active torsions:
REMARK  status: ('A' for Active; 'I' for Inactive)
REMARK    1  A    between atoms: N_5  and  S_1 
REMARK    2  A    between atoms: C_8  and  S_1 
REMARK    3  A    between atoms: C_2  and  C_7 
REMARK    4  A    between atoms: C_11  and  N_5 
ROOT
ATOM      1  C   UNL d   1     -43.232  12.942  21.596  0.00  0.00     0.025 A 
ATOM      2  C   UNL d   1     -43.920  13.380  21.717  0.00  0.00     0.020 A 
ATOM      3  C   UNL d   1     -44.574  13.039  22.077  0.00  0.00     0.094 A 
ATOM      4  C   UNL d   1     -43.191  12.155  21.836  0.00  0.00     0.002 A 
ATOM      5  C   UNL d   1     -44.530  12.242  22.319  0.00  0.00     0.020 A 
ATOM      6  C   UNL d   1     -43.953  14.171  21.473  0.00  0.00     0.002 C 
ATOM      7  C   UNL d   1     -43.836  11.805  22.196  0.00  0.00     0.002 A 
ENDROOT
BRANCH   3   8
ATOM      8  N   UNL d   1     -45.257  13.469  22.198  0.00  0.00    -0.158 NA
BRANCH   8   9
ATOM      9  S   UNL d   1     -45.931  13.099  22.494  0.00  0.00     0.285 S 
ATOM     10  O   UNL d   1     -46.147  12.897  21.718  0.00  0.00    -0.198 OA
ATOM     11  O   UNL d   1     -45.708  13.306  23.265  0.00  0.00    -0.198 OA
BRANCH   9  12
ATOM     12  C   UNL d   1     -46.608  12.728  22.785  0.00  0.00     0.107 A 
ATOM     13  C   UNL d   1     -47.345  12.900  22.448  0.00  0.00     0.040 A 
ATOM     14  C   UNL d   1     -48.013  12.522  22.749  0.00  0.00     0.123 A 
ATOM     15  O   UNL d   1     -48.746  12.684  22.425  0.00  0.00    -0.301 OA
ATOM     16  C   UNL d   1     -47.953  11.983  23.371  0.00  0.00     0.123 A 
ATOM     17  C   UNL d   1     -49.423  12.314  22.714  0.00  0.00     0.149 A 
ATOM     18  C   UNL d   1     -49.355  11.777  23.336  0.00  0.00     0.149 A 
ATOM     19  O   UNL d   1     -48.622  11.615  23.660  0.00  0.00    -0.301 OA
ATOM     20  C   UNL d   1     -47.216  11.822  23.696  0.00  0.00     0.028 A 
ATOM     21  C   UNL d   1     -46.540  12.193  23.405  0.00  0.00     0.015 A 
ENDBRANCH   9  12
ENDBRANCH   8   9
ENDBRANCH   3   8
BRANCH   1  22
ATOM     22  C   UNL d   1     -42.572  13.301  21.228  0.00  0.00     0.112 A 
ATOM     23  S   UNL d   1     -42.409  13.296  20.422  0.00  0.00    -0.047 SA
ATOM     24  C   UNL d   1     -41.702  13.717  20.296  0.00  0.00     0.130 A 
ATOM     25  N   UNL d   1     -41.268  13.897  19.627  0.00  0.00    -0.236 NA
ATOM     26  C   UNL d   1     -41.438  13.979  21.045  0.00  0.00     0.106 A 
ATOM     27  C   UNL d   1     -40.576  14.333  19.688  0.00  0.00     0.100 A 
ATOM     28  C   UNL d   1     -40.312  14.594  20.422  0.00  0.00     0.022 A 
ATOM     29  C   UNL d   1     -40.740  14.418  21.101  0.00  0.00     0.023 A 
ATOM     30  N   UNL d   1     -41.977  13.722  21.622  0.00  0.00    -0.237 NA
ENDBRANCH   1  22
TORSDOF 4
ENDMDL
MODEL 7
REMARK VINA RESULT:      -3.3      2.157      2.668
REMARK  4 active torsions:
REMARK  status: ('A' for Active; 'I' for Inactive)
REMARK    1  A    between atoms: N_5  and  S_1 
REMARK    2  A    between atoms: C_8  and  S_1 
REMARK    3  A    between atoms: C_2  and  C_7 
REMARK    4  A    between atoms: C_11  and  N_5 
ROOT
ATOM      1  C   UNL d   1     -38.691  14.177  17.693  0.00  0.00     0.025 A 
ATOM      2  C   UNL d   1     -39.374  14.535  17.986  0.00  0.00     0.020 A 
ATOM      3  C   UNL d   1     -39.559  14.492  18.784  0.00  0.00     0.094 A 
ATOM      4  C   UNL d   1     -38.184  13.771  18.199  0.00  0.00     0.002 A 
ATOM      5  C   UNL d   1     -39.044  14.079  19.294  0.00  0.00     0.020 A 
ATOM      6  C   UNL d   1     -39.878  14.943  17.470  0.00  0.00     0.002 C 
ATOM      7  C   UNL d   1     -38.359  13.721  18.996  0.00  0.00     0.002 A 
ENDROOT
BRANCH   3   8
ATOM      8  N   UNL d   1     -40.234  14.845  19.077  0.00  0.00    -0.158 NA
BRANCH   8   9
ATOM      9  S   UNL d   1     -40.669  14.475  19.671  0.00  0.00     0.285 S 
ATOM     10  O   UNL d   1     -40.979  13.953  19.105  0.00  0.00    -0.198 OA
ATOM     11  O   UNL d   1     -40.354  15.000  20.230  0.00  0.00    -0.198 OA
BRANCH   9  12
ATOM     12  C   UNL d   1     -41.106  14.101  20.263  0.00  0.00     0.107 A 
ATOM     13  C   UNL d   1     -41.828  13.742  20.072  0.00  0.00     0.040 A 
ATOM     14  C   UNL d   1     -42.255  13.373  20.673  0.00  0.00     0.123 A 
ATOM     15  O   UNL d   1     -42.968  13.015  20.497  0.00  0.00    -0.301 OA
ATOM     16  C   UNL d   1     -41.973  13.359  21.449  0.00  0.00     0.123 A 
ATOM     17  C   UNL d   1     -43.407  12.642  21.085  0.00  0.00     0.149 A 
ATOM     18  C   UNL d   1     -43.118  12.632  21.858  0.00  0.00     0.149 A 
ATOM     19  O   UNL d   1     -42.405  12.990  22.035  0.00  0.00    -0.301 OA
ATOM     20  C   UNL d   1     -41.256  13.719  21.624  0.00  0.00     0.028 A 
ATOM     21  C   UNL d   1     -40.819  14.092  21.032  0.00  0.00     0.015 A 
ENDBRANCH   9  12
ENDBRANCH   8   9
ENDBRANCH   3   8
BRANCH   1  22
ATOM     22  C   UNL d   1     -38.514  14.229  16.877  0.00  0.00     0.112 A 
ATOM     23  S   UNL d   1     -38.418  14.925  16.449  0.00  0.00    -0.047 SA
ATOM     24  C   UNL d   1     -38.248  14.724  15.659  0.00  0.00     0.130 A 
ATOM     25  N   UNL d   1     -38.100  15.165  14.987  0.00  0.00    -0.236 NA
ATOM     26  C   UNL d   1     -38.242  13.888  15.616  0.00  0.00     0.106 A 
ATOM     27  C   UNL d   1     -37.947  14.793  14.273  0.00  0.00     0.100 A 
ATOM     28  C   UNL d   1     -37.940  13.971  14.225  0.00  0.00     0.022 A 
ATOM     29  C   UNL d   1     -38.087  13.518  14.894  0.00  0.00     0.023 A 
ATOM     30  N   UNL d   1     -38.406  13.583  16.371  0.00  0.00    -0.237 NA
ENDBRANCH   1  22
TORSDOF 4
ENDMDL
MODEL 8
REMARK VINA RESULT:      -3.1      1.448      2.087
REMARK  4 active torsions:
REMARK  status: ('A' for Active; 'I' for Inactive)
REMARK    1  A    between atoms: N_5  and  S_1 
REMARK    2  A    between atoms: C_8  and  S_1 
REMARK    3  A    between atoms: C_2  and  C_7 
REMARK    4  A    between atoms: C_11  and  N_5 
ROOT
ATOM      1  C   UNL d   1     -39.457  14.694  17.948  0.00  0.00     0.025 A 
ATOM      2  C   UNL d   1     -39.125  15.167  18.536  0.00  0.00     0.020 A 
ATOM      3  C   UNL d   1     -38.489  14.898  18.979  0.00  0.00     0.094 A 
ATOM      4  C   UNL d   1     -39.154  13.944  17.795  0.00  0.00     0.002 A 
ATOM      5  C   UNL d   1     -38.184  14.138  18.823  0.00  0.00     0.020 A 
ATOM      6  C   UNL d   1     -39.436  15.921  18.683  0.00  0.00     0.002 C 
ATOM      7  C   UNL d   1     -38.520  13.666  18.230  0.00  0.00     0.002 A 
ENDROOT
BRANCH   3   8
ATOM      8  N   UNL d   1     -38.158  15.363  19.562  0.00  0.00    -0.158 NA
BRANCH   8   9
ATOM      9  S   UNL d   1     -38.216  15.138  20.353  0.00  0.00     0.285 S 
ATOM     10  O   UNL d   1     -37.943  14.381  20.147  0.00  0.00    -0.198 OA
ATOM     11  O   UNL d   1     -38.489  15.896  20.549  0.00  0.00    -0.198 OA
BRANCH   9  12
ATOM     12  C   UNL d   1     -38.274  14.908  21.143  0.00  0.00     0.107 A 
ATOM     13  C   UNL d   1     -38.489  14.129  21.327  0.00  0.00     0.040 A 
ATOM     14  C   UNL d   1     -38.542  13.913  22.121  0.00  0.00     0.123 A 
ATOM     15  O   UNL d   1     -38.753  13.147  22.315  0.00  0.00    -0.301 OA
ATOM     16  C   UNL d   1     -38.386  14.457  22.722  0.00  0.00     0.123 A 
ATOM     17  C   UNL d   1     -38.811  12.916  23.103  0.00  0.00     0.149 A 
ATOM     18  C   UNL d   1     -38.654  13.465  23.698  0.00  0.00     0.149 A 
ATOM     19  O   UNL d   1     -38.443  14.231  23.504  0.00  0.00    -0.301 OA
ATOM     20  C   UNL d   1     -38.175  15.226  22.525  0.00  0.00     0.028 A 
ATOM     21  C   UNL d   1     -38.117  15.455  21.735  0.00  0.00     0.015 A 
ENDBRANCH   9  12
ENDBRANCH   8   9
ENDBRANCH   3   8
BRANCH   1  22
ATOM     22  C   UNL d   1     -40.105  14.981  17.504  0.00  0.00     0.112 A 
ATOM     23  S   UNL d   1     -40.864  15.117  17.792  0.00  0.00    -0.047 SA
ATOM     24  C   UNL d   1     -41.334  15.400  17.166  0.00  0.00     0.130 A 
ATOM     25  N   UNL d   1     -42.117  15.627  17.111  0.00  0.00    -0.236 NA
ATOM     26  C   UNL d   1     -40.844  15.433  16.489  0.00  0.00     0.106 A 
ATOM     27  C   UNL d   1     -42.424  15.887  16.397  0.00  0.00     0.100 A 
ATOM     28  C   UNL d   1     -41.946  15.922  15.728  0.00  0.00     0.022 A 
ATOM     29  C   UNL d   1     -41.158  15.696  15.771  0.00  0.00     0.023 A 
ATOM     30  N   UNL d   1     -40.083  15.174  16.698  0.00  0.00    -0.237 NA
ENDBRANCH   1  22
TORSDOF 4
ENDMDL
