MODEL 1
REMARK VINA RESULT:      17.0      0.000      0.000
REMARK  8 active torsions:
REMARK  status: ('A' for Active; 'I' for Inactive)
REMARK    1  A    between atoms: C_8  and  N_1 
REMARK    2  A    between atoms: C_7  and  N_3 
REMARK    3  A    between atoms: C_11  and  C_7 
REMARK    4  A    between atoms: C_20  and  C_8 
REMARK    5  A    between atoms: C_9  and  C_13 
REMARK       I    between atoms: N_16  and  C_9 
REMARK    6  A    between atoms: C_24  and  N_16 
REMARK    7  A    between atoms: C_27  and  C_24 
REMARK    8  A    between atoms: C_25  and  C_27 
ROOT
ATOM      1  N   UNL d   1     -41.927-123.763 -49.241  0.00  0.00    -0.226 N 
ATOM      2  C   UNL d   1     -42.669-123.756 -49.603  0.00  0.00     0.342 A 
ATOM      3  N   UNL d   1     -43.352-123.765 -49.143  0.00  0.00    -0.259 N 
ATOM      4  C   UNL d   1     -41.862-123.779 -48.416  0.00  0.00     0.270 A 
ATOM      5  C   UNL d   1     -42.552-123.788 -47.961  0.00  0.00     0.073 A 
ATOM      6  C   UNL d   1     -43.294-123.781 -48.322  0.00  0.00     0.073 A 
ATOM      7  O   UNL d   1     -42.726-123.740 -50.437  0.00  0.00    -0.245 OA
ATOM      8  O   UNL d   1     -41.127-123.785 -48.058  0.00  0.00    -0.266 OA
ATOM      9  C   UNL d   1     -42.486-123.804 -47.135  0.00  0.00     0.006 A 
ATOM     10  C   UNL d   1     -43.976-123.790 -47.862  0.00  0.00     0.018 A 
ATOM     11  C   UNL d   1     -43.179-123.813 -46.676  0.00  0.00     0.000 A 
ATOM     12  C   UNL d   1     -43.920-123.806 -47.037  0.00  0.00     0.002 A 
ENDROOT
BRANCH   1  13
ATOM     13  C   UNL d   1     -41.231-123.753 -49.708  0.00  0.00     0.087 C 
BRANCH  13  14
ATOM     14  C   UNL d   1     -41.229-123.377 -50.433  0.00  0.00     0.018 A 
ATOM     15  C   UNL d   1     -41.128-123.815 -51.124  0.00  0.00     0.002 A 
ATOM     16  C   UNL d   1     -41.126-123.431 -51.863  0.00  0.00     0.005 A 
ATOM     17  C   UNL d   1     -41.224-122.614 -51.906  0.00  0.00     0.058 A 
ATOM     18  C   UNL d   1     -41.325-122.171 -51.211  0.00  0.00     0.005 A 
ATOM     19  C   UNL d   1     -41.328-122.554 -50.471  0.00  0.00     0.002 A 
BRANCH  17  20
ATOM     20  C   UNL d   1     -41.221-122.235 -52.638  0.00  0.00     0.279 C 
ATOM     21  O   UNL d   1     -41.124-121.418 -52.678  0.00  0.00    -0.265 OA
ATOM     22  N   UNL d   1     -41.316-122.671 -53.329  0.00  0.00    -0.206 NA
BRANCH  22  23
ATOM     23  C   UNL d   1     -41.313-122.292 -54.061  0.00  0.00     0.102 C 
BRANCH  23  24
ATOM     24  C   UNL d   1     -41.553-122.697 -54.737  0.00  0.00     0.021 C 
BRANCH  24  25
ATOM     25  C   UNL d   1     -41.882-122.283 -55.375  0.00  0.00     0.002 A 
ATOM     26  C   UNL d   1     -42.666-122.432 -55.604  0.00  0.00     0.000 A 
ATOM     27  C   UNL d   1     -42.997-122.015 -56.246  0.00  0.00     0.000 A 
ATOM     28  C   UNL d   1     -42.540-121.454 -56.652  0.00  0.00     0.000 A 
ATOM     29  C   UNL d   1     -41.763-121.308 -56.423  0.00  0.00     0.000 A 
ATOM     30  C   UNL d   1     -41.432-121.725 -55.781  0.00  0.00     0.000 A 
ENDBRANCH  24  25
ENDBRANCH  23  24
ENDBRANCH  22  23
ENDBRANCH  17  20
ENDBRANCH  13  14
ENDBRANCH   1  13
BRANCH   3  31
ATOM     31  C   UNL d   1     -44.093-123.758 -49.504  0.00  0.00     0.084 C 
BRANCH  31  32
ATOM     32  C   UNL d   1     -44.380-123.065 -49.845  0.00  0.00     0.018 A 
ATOM     33  C   UNL d   1     -45.055-123.087 -50.326  0.00  0.00     0.001 A 
ATOM     34  C   UNL d   1     -45.452-123.814 -50.469  0.00  0.00     0.000 C 
ATOM     35  C   UNL d   1     -45.342-122.395 -50.666  0.00  0.00     0.000 A 
ATOM     36  C   UNL d   1     -44.956-121.680 -50.529  0.00  0.00     0.000 A 
ATOM     37  C   UNL d   1     -44.281-121.658 -50.048  0.00  0.00     0.000 A 
ATOM     38  C   UNL d   1     -43.994-122.351 -49.707  0.00  0.00     0.002 A 
ENDBRANCH  31  32
ENDBRANCH   3  31
TORSDOF 8
ENDMDL
MODEL 2
REMARK VINA RESULT:      19.4      1.077      2.667
REMARK  8 active torsions:
REMARK  status: ('A' for Active; 'I' for Inactive)
REMARK    1  A    between atoms: C_8  and  N_1 
REMARK    2  A    between atoms: C_7  and  N_3 
REMARK    3  A    between atoms: C_11  and  C_7 
REMARK    4  A    between atoms: C_20  and  C_8 
REMARK    5  A    between atoms: C_9  and  C_13 
REMARK       I    between atoms: N_16  and  C_9 
REMARK    6  A    between atoms: C_24  and  N_16 
REMARK    7  A    between atoms: C_27  and  C_24 
REMARK    8  A    between atoms: C_25  and  C_27 
ROOT
ATOM      1  N   UNL d   1     -41.977-122.965 -50.476  0.00  0.00    -0.226 N 
ATOM      2  C   UNL d   1     -42.091-123.327 -49.744  0.00  0.00     0.342 A 
ATOM      3  N   UNL d   1     -42.812-123.250 -49.354  0.00  0.00    -0.259 N 
ATOM      4  C   UNL d   1     -42.583-122.521 -50.825  0.00  0.00     0.270 A 
ATOM      5  C   UNL d   1     -43.304-122.448 -50.427  0.00  0.00     0.073 A 
ATOM      6  C   UNL d   1     -43.418-122.810 -49.695  0.00  0.00     0.073 A 
ATOM      7  O   UNL d   1     -41.474-123.774 -49.399  0.00  0.00    -0.245 OA
ATOM      8  O   UNL d   1     -42.470-122.162 -51.551  0.00  0.00    -0.266 OA
ATOM      9  C   UNL d   1     -43.910-122.004 -50.776  0.00  0.00     0.006 A 
ATOM     10  C   UNL d   1     -44.139-122.733 -49.304  0.00  0.00     0.018 A 
ATOM     11  C   UNL d   1     -44.636-121.929 -50.378  0.00  0.00     0.000 A 
ATOM     12  C   UNL d   1     -44.750-122.291 -49.645  0.00  0.00     0.002 A 
ENDROOT
BRANCH   1  13
ATOM     13  C   UNL d   1     -41.244-123.043 -50.875  0.00  0.00     0.087 C 
BRANCH  13  14
ATOM     14  C   UNL d   1     -41.220-123.056 -51.692  0.00  0.00     0.018 A 
ATOM     15  C   UNL d   1     -41.217-122.350 -52.115  0.00  0.00     0.002 A 
ATOM     16  C   UNL d   1     -41.193-122.363 -52.948  0.00  0.00     0.005 A 
ATOM     17  C   UNL d   1     -41.173-123.082 -53.349  0.00  0.00     0.058 A 
ATOM     18  C   UNL d   1     -41.176-123.796 -52.924  0.00  0.00     0.005 A 
ATOM     19  C   UNL d   1     -41.200-123.782 -52.092  0.00  0.00     0.002 A 
BRANCH  17  20
ATOM     20  C   UNL d   1     -41.149-123.095 -54.173  0.00  0.00     0.279 C 
ATOM     21  O   UNL d   1     -41.126-123.815 -54.573  0.00  0.00    -0.265 OA
ATOM     22  N   UNL d   1     -41.148-122.390 -54.597  0.00  0.00    -0.206 NA
BRANCH  22  23
ATOM     23  C   UNL d   1     -41.124-122.403 -55.421  0.00  0.00     0.102 C 
BRANCH  23  24
ATOM     24  C   UNL d   1     -41.628-121.918 -55.857  0.00  0.00     0.021 C 
BRANCH  24  25
ATOM     25  C   UNL d   1     -42.439-121.903 -55.687  0.00  0.00     0.002 A 
ATOM     26  C   UNL d   1     -42.743-121.325 -55.176  0.00  0.00     0.000 A 
ATOM     27  C   UNL d   1     -43.559-121.310 -55.005  0.00  0.00     0.000 A 
ATOM     28  C   UNL d   1     -44.062-121.874 -55.348  0.00  0.00     0.000 A 
ATOM     29  C   UNL d   1     -43.757-122.447 -55.854  0.00  0.00     0.000 A 
ATOM     30  C   UNL d   1     -42.941-122.462 -56.025  0.00  0.00     0.000 A 
ENDBRANCH  24  25
ENDBRANCH  23  24
ENDBRANCH  22  23
ENDBRANCH  17  20
ENDBRANCH  13  14
ENDBRANCH   1  13
BRANCH   3  31
ATOM     31  C   UNL d   1     -42.926-123.612 -48.621  0.00  0.00     0.084 C 
BRANCH  31  32
ATOM     32  C   UNL d   1     -42.448-123.410 -47.982  0.00  0.00     0.018 A 
ATOM     33  C   UNL d   1     -42.778-123.042 -47.316  0.00  0.00     0.001 A 
ATOM     34  C   UNL d   1     -43.600-122.871 -47.289  0.00  0.00     0.000 C 
ATOM     35  C   UNL d   1     -42.300-122.840 -46.677  0.00  0.00     0.000 A 
ATOM     36  C   UNL d   1     -41.493-123.005 -46.700  0.00  0.00     0.000 A 
ATOM     37  C   UNL d   1     -41.164-123.373 -47.365  0.00  0.00     0.000 A 
ATOM     38  C   UNL d   1     -41.642-123.575 -48.005  0.00  0.00     0.002 A 
ENDBRANCH  31  32
ENDBRANCH   3  31
TORSDOF 8
ENDMDL
