MODEL 1
REMARK VINA RESULT:      -1.4      0.000      0.000
REMARK  3 active torsions:
REMARK  status: ('A' for Active; 'I' for Inactive)
REMARK    1  A    between atoms: C_13  and  N_3 
REMARK    2  A    between atoms: C_10  and  C_6 
REMARK    3  A    between atoms: C_11  and  C_8 
ROOT
ATOM      1  C   UNL d   1      32.706  20.908 -22.301  0.00  0.00     0.167 A 
ATOM      2  C   UNL d   1      32.630  21.451 -21.677  0.00  0.00     0.056 A 
ATOM      3  N   UNL d   1      32.567  20.146 -22.002  0.00  0.00    -0.212 N 
ATOM      4  N   UNL d   1      32.403  20.215 -21.184  0.00  0.00    -0.164 NA
ATOM      5  N   UNL d   1      32.890  21.179 -23.057  0.00  0.00    -0.206 NA
ATOM      6  C   UNL d   1      32.740  22.255 -21.815  0.00  0.00     0.015 A 
ATOM      7  C   UNL d   1      32.443  21.023 -20.983  0.00  0.00     0.104 A 
ATOM      8  C   UNL d   1      32.924  22.525 -22.567  0.00  0.00     0.059 A 
ATOM      9  C   UNL d   1      32.999  21.986 -23.186  0.00  0.00     0.187 A 
ATOM     10  N   UNL d   1      33.183  22.254 -23.941  0.00  0.00    -0.127 N 
ATOM     11  C   UNL d   1      32.320  21.342 -20.239  0.00  0.00     0.023 C 
ENDROOT
BRANCH   3  12
ATOM     12  C   UNL d   1      32.587  19.443 -22.437  0.00  0.00     0.085 A 
ATOM     13  C   UNL d   1      31.982  19.269 -22.967  0.00  0.00     0.019 A 
ATOM     14  C   UNL d   1      32.004  18.573 -23.396  0.00  0.00     0.002 A 
ATOM     15  C   UNL d   1      32.628  18.042 -23.303  0.00  0.00     0.000 A 
ATOM     16  C   UNL d   1      33.240  18.215 -22.769  0.00  0.00     0.002 A 
ATOM     17  C   UNL d   1      32.648  17.339 -23.738  0.00  0.00     0.000 C 
ATOM     18  C   UNL d   1      33.216  18.916 -22.338  0.00  0.00     0.019 A 
ENDBRANCH   3  12
BRANCH   6  19
ATOM     19  C   UNL d   1      32.664  22.788 -21.190  0.00  0.00     0.030 A 
ATOM     20  S   UNL d   1      33.235  22.965 -20.624  0.00  0.00    -0.086 SA
ATOM     21  C   UNL d   1      32.923  23.527 -20.106  0.00  0.00     0.035 A 
ATOM     22  C   UNL d   1      32.155  23.696 -20.355  0.00  0.00     0.007 A 
ATOM     23  C   UNL d   1      31.989  23.248 -21.019  0.00  0.00     0.007 A 
ENDBRANCH   6  19
BRANCH   8  24
ATOM     24  C   UNL d   1      33.033  23.330 -22.704  0.00  0.00     0.125 C 
ATOM     25  N   UNL d   1      33.234  23.593 -23.458  0.00  0.00    -0.146 N 
ENDBRANCH   8  24
TORSDOF 3
ENDMDL
MODEL 2
REMARK VINA RESULT:      -1.4      4.347      5.819
REMARK  3 active torsions:
REMARK  status: ('A' for Active; 'I' for Inactive)
REMARK    1  A    between atoms: C_13  and  N_3 
REMARK    2  A    between atoms: C_10  and  C_6 
REMARK    3  A    between atoms: C_11  and  C_8 
ROOT
ATOM      1  C   UNL d   1      30.422  16.810 -23.846  0.00  0.00     0.167 A 
ATOM      2  C   UNL d   1      30.956  17.362 -24.161  0.00  0.00     0.056 A 
ATOM      3  N   UNL d   1      29.653  17.039 -24.058  0.00  0.00    -0.212 N 
ATOM      4  N   UNL d   1      29.708  17.742 -24.510  0.00  0.00    -0.164 NA
ATOM      5  N   UNL d   1      30.706  16.172 -23.408  0.00  0.00    -0.206 NA
ATOM      6  C   UNL d   1      31.764  17.272 -24.037  0.00  0.00     0.015 A 
ATOM      7  C   UNL d   1      30.514  17.941 -24.574  0.00  0.00     0.104 A 
ATOM      8  C   UNL d   1      32.048  16.638 -23.602  0.00  0.00     0.059 A 
ATOM      9  C   UNL d   1      31.518  16.089 -23.288  0.00  0.00     0.187 A 
ATOM     10  N   UNL d   1      31.799  15.453 -22.852  0.00  0.00    -0.127 N 
ATOM     11  C   UNL d   1      30.821  18.589 -24.970  0.00  0.00     0.023 C 
ENDROOT
BRANCH   3  12
ATOM     12  C   UNL d   1      28.955  16.643 -23.857  0.00  0.00     0.085 A 
ATOM     13  C   UNL d   1      28.465  16.944 -23.270  0.00  0.00     0.019 A 
ATOM     14  C   UNL d   1      27.775  16.550 -23.073  0.00  0.00     0.002 A 
ATOM     15  C   UNL d   1      27.566  15.852 -23.459  0.00  0.00     0.000 A 
ATOM     16  C   UNL d   1      28.059  15.546 -24.053  0.00  0.00     0.002 A 
ATOM     17  C   UNL d   1      26.868  15.456 -23.259  0.00  0.00     0.000 C 
ATOM     18  C   UNL d   1      28.752  15.944 -24.249  0.00  0.00     0.019 A 
ENDBRANCH   3  12
BRANCH   6  19
ATOM     19  C   UNL d   1      32.288  17.824 -24.353  0.00  0.00     0.030 A 
ATOM     20  S   UNL d   1      32.833  17.694 -24.958  0.00  0.00    -0.086 SA
ATOM     21  C   UNL d   1      33.241  18.398 -25.097  0.00  0.00     0.035 A 
ATOM     22  C   UNL d   1      32.946  18.965 -24.575  0.00  0.00     0.007 A 
ATOM     23  C   UNL d   1      32.362  18.621 -24.116  0.00  0.00     0.007 A 
ENDBRANCH   6  19
BRANCH   8  24
ATOM     24  C   UNL d   1      32.857  16.548 -23.477  0.00  0.00     0.125 C 
ATOM     25  N   UNL d   1      33.127  16.016 -22.910  0.00  0.00    -0.146 N 
ENDBRANCH   8  24
TORSDOF 3
ENDMDL
MODEL 3
REMARK VINA RESULT:       0.4      4.664      6.122
REMARK  3 active torsions:
REMARK  status: ('A' for Active; 'I' for Inactive)
REMARK    1  A    between atoms: C_13  and  N_3 
REMARK    2  A    between atoms: C_10  and  C_6 
REMARK    3  A    between atoms: C_11  and  C_8 
ROOT
ATOM      1  C   UNL d   1      29.841  16.576 -23.942  0.00  0.00     0.167 A 
ATOM      2  C   UNL d   1      30.665  16.485 -23.889  0.00  0.00     0.056 A 
ATOM      3  N   UNL d   1      29.481  15.944 -23.543  0.00  0.00    -0.212 N 
ATOM      4  N   UNL d   1      30.087  15.453 -23.238  0.00  0.00    -0.164 NA
ATOM      5  N   UNL d   1      29.528  17.222 -24.347  0.00  0.00    -0.206 NA
ATOM      6  C   UNL d   1      31.164  17.037 -24.239  0.00  0.00     0.015 A 
ATOM      7  C   UNL d   1      30.819  15.788 -23.453  0.00  0.00     0.104 A 
ATOM      8  C   UNL d   1      30.854  17.680 -24.642  0.00  0.00     0.059 A 
ATOM      9  C   UNL d   1      30.036  17.771 -24.694  0.00  0.00     0.187 A 
ATOM     10  N   UNL d   1      29.722  18.415 -25.097  0.00  0.00    -0.127 N 
ATOM     11  C   UNL d   1      31.559  15.489 -23.269  0.00  0.00     0.023 C 
ENDROOT
BRANCH   3  12
ATOM     12  C   UNL d   1      28.668  15.821 -23.461  0.00  0.00     0.085 A 
ATOM     13  C   UNL d   1      28.309  15.910 -22.726  0.00  0.00     0.019 A 
ATOM     14  C   UNL d   1      27.504  15.787 -22.648  0.00  0.00     0.002 A 
ATOM     15  C   UNL d   1      27.046  15.576 -23.300  0.00  0.00     0.000 A 
ATOM     16  C   UNL d   1      27.405  15.485 -24.044  0.00  0.00     0.002 A 
ATOM     17  C   UNL d   1      26.233  15.453 -23.218  0.00  0.00     0.000 C 
ATOM     18  C   UNL d   1      28.216  15.609 -24.120  0.00  0.00     0.019 A 
ENDBRANCH   3  12
BRANCH   6  19
ATOM     19  C   UNL d   1      31.981  16.939 -24.182  0.00  0.00     0.030 A 
ATOM     20  S   UNL d   1      32.459  17.166 -23.551  0.00  0.00    -0.086 SA
ATOM     21  C   UNL d   1      33.240  16.962 -23.729  0.00  0.00     0.035 A 
ATOM     22  C   UNL d   1      33.241  16.608 -24.475  0.00  0.00     0.007 A 
ATOM     23  C   UNL d   1      32.474  16.590 -24.759  0.00  0.00     0.007 A 
ENDBRANCH   6  19
BRANCH   8  24
ATOM     24  C   UNL d   1      31.355  18.233 -24.992  0.00  0.00     0.125 C 
ATOM     25  N   UNL d   1      31.151  19.030 -24.986  0.00  0.00    -0.146 N 
ENDBRANCH   8  24
TORSDOF 3
ENDMDL
MODEL 4
REMARK VINA RESULT:       0.7      2.225      5.044
REMARK  3 active torsions:
REMARK  status: ('A' for Active; 'I' for Inactive)
REMARK    1  A    between atoms: C_13  and  N_3 
REMARK    2  A    between atoms: C_10  and  C_6 
REMARK    3  A    between atoms: C_11  and  C_8 
ROOT
ATOM      1  C   UNL d   1      32.296  18.854 -23.412  0.00  0.00     0.167 A 
ATOM      2  C   UNL d   1      32.378  18.029 -23.371  0.00  0.00     0.056 A 
ATOM      3  N   UNL d   1      32.825  19.197 -22.871  0.00  0.00    -0.212 N 
ATOM      4  N   UNL d   1      33.241  18.578 -22.490  0.00  0.00    -0.164 NA
ATOM      5  N   UNL d   1      31.751  19.184 -23.934  0.00  0.00    -0.206 NA
ATOM      6  C   UNL d   1      31.917  17.545 -23.850  0.00  0.00     0.015 A 
ATOM      7  C   UNL d   1      32.964  17.856 -22.799  0.00  0.00     0.104 A 
ATOM      8  C   UNL d   1      31.375  17.871 -24.371  0.00  0.00     0.059 A 
ATOM      9  C   UNL d   1      31.293  18.691 -24.411  0.00  0.00     0.187 A 
ATOM     10  N   UNL d   1      30.751  19.022 -24.932  0.00  0.00    -0.127 N 
ATOM     11  C   UNL d   1      33.219  17.108 -22.582  0.00  0.00     0.023 C 
ENDROOT
BRANCH   3  12
ATOM     12  C   UNL d   1      32.923  20.006 -22.735  0.00  0.00     0.085 A 
ATOM     13  C   UNL d   1      32.917  20.298 -21.966  0.00  0.00     0.019 A 
ATOM     14  C   UNL d   1      33.014  21.099 -21.833  0.00  0.00     0.002 A 
ATOM     15  C   UNL d   1      33.119  21.619 -22.464  0.00  0.00     0.000 A 
ATOM     16  C   UNL d   1      33.126  21.328 -23.242  0.00  0.00     0.002 A 
ATOM     17  C   UNL d   1      33.218  22.429 -22.327  0.00  0.00     0.000 C 
ATOM     18  C   UNL d   1      33.028  20.521 -23.373  0.00  0.00     0.019 A 
ENDBRANCH   3  12
BRANCH   6  19
ATOM     19  C   UNL d   1      32.004  16.725 -23.804  0.00  0.00     0.030 A 
ATOM     20  S   UNL d   1      31.663  16.227 -23.243  0.00  0.00    -0.086 SA
ATOM     21  C   UNL d   1      31.899  15.453 -23.406  0.00  0.00     0.035 A 
ATOM     22  C   UNL d   1      32.386  15.475 -24.071  0.00  0.00     0.007 A 
ATOM     23  C   UNL d   1      32.456  16.251 -24.321  0.00  0.00     0.007 A 
ENDBRANCH   6  19
BRANCH   8  24
ATOM     24  C   UNL d   1      30.913  17.386 -24.851  0.00  0.00     0.125 C 
ATOM     25  N   UNL d   1      30.170  17.641 -25.096  0.00  0.00    -0.146 N 
ENDBRANCH   8  24
TORSDOF 3
ENDMDL
MODEL 5
REMARK VINA RESULT:       1.5      1.808      4.450
REMARK  3 active torsions:
REMARK  status: ('A' for Active; 'I' for Inactive)
REMARK    1  A    between atoms: C_13  and  N_3 
REMARK    2  A    between atoms: C_10  and  C_6 
REMARK    3  A    between atoms: C_11  and  C_8 
ROOT
ATOM      1  C   UNL d   1      32.748  22.361 -20.540  0.00  0.00     0.167 A 
ATOM      2  C   UNL d   1      32.755  22.489 -21.360  0.00  0.00     0.056 A 
ATOM      3  N   UNL d   1      32.569  23.079 -20.164  0.00  0.00    -0.212 N 
ATOM      4  N   UNL d   1      32.462  23.661 -20.757  0.00  0.00    -0.164 NA
ATOM      5  N   UNL d   1      32.907  21.608 -20.243  0.00  0.00    -0.206 NA
ATOM      6  C   UNL d   1      32.918  21.867 -21.873  0.00  0.00     0.015 A 
ATOM      7  C   UNL d   1      32.577  23.295 -21.496  0.00  0.00     0.104 A 
ATOM      8  C   UNL d   1      33.076  21.118 -21.580  0.00  0.00     0.059 A 
ATOM      9  C   UNL d   1      33.070  20.991 -20.765  0.00  0.00     0.187 A 
ATOM     10  N   UNL d   1      33.227  20.241 -20.468  0.00  0.00    -0.127 N 
ATOM     11  C   UNL d   1      32.526  23.660 -22.228  0.00  0.00     0.023 C 
ENDROOT
BRANCH   3  12
ATOM     12  C   UNL d   1      32.506  23.198 -19.348  0.00  0.00     0.085 A 
ATOM     13  C   UNL d   1      33.127  22.985 -18.852  0.00  0.00     0.019 A 
ATOM     14  C   UNL d   1      33.063  23.104 -18.045  0.00  0.00     0.002 A 
ATOM     15  C   UNL d   1      32.380  23.436 -17.723  0.00  0.00     0.000 A 
ATOM     16  C   UNL d   1      31.751  23.651 -18.221  0.00  0.00     0.002 A 
ATOM     17  C   UNL d   1      32.318  23.555 -16.907  0.00  0.00     0.000 C 
ATOM     18  C   UNL d   1      31.818  23.531 -19.033  0.00  0.00     0.019 A 
ENDBRANCH   3  12
BRANCH   6  19
ATOM     19  C   UNL d   1      32.923  22.002 -22.687  0.00  0.00     0.030 A 
ATOM     20  S   UNL d   1      32.618  21.504 -23.268  0.00  0.00    -0.086 SA
ATOM     21  C   UNL d   1      32.742  21.858 -24.004  0.00  0.00     0.035 A 
ATOM     22  C   UNL d   1      33.125  22.577 -23.875  0.00  0.00     0.007 A 
ATOM     23  C   UNL d   1      33.240  22.672 -23.070  0.00  0.00     0.007 A 
ENDBRANCH   6  19
BRANCH   8  24
ATOM     24  C   UNL d   1      33.240  20.495 -22.094  0.00  0.00     0.125 C 
ATOM     25  N   UNL d   1      33.180  19.719 -21.828  0.00  0.00    -0.146 N 
ENDBRANCH   8  24
TORSDOF 3
ENDMDL
