MODEL 1
REMARK VINA RESULT:      20.6      0.000      0.000
REMARK  4 active torsions:
REMARK  status: ('A' for Active; 'I' for Inactive)
REMARK    1  A    between atoms: C_5  and  S_1 
REMARK    2  A    between atoms: N_8  and  S_1 
REMARK    3  A    between atoms: C_6  and  C_14 
REMARK    4  A    between atoms: C_14  and  N_8 
ROOT
ATOM      1  N   UNL d   1      59.484  49.665  50.758  0.00  0.00    -0.155 NA
ENDROOT
BRANCH   1   2
ATOM      2  S   UNL d   1      60.139  49.667  51.251  0.00  0.00     0.291 S 
ATOM      3  O   UNL d   1      59.615  49.681  51.893  0.00  0.00    -0.198 OA
ATOM      4  O   UNL d   1      60.652  49.652  50.605  0.00  0.00    -0.198 OA
BRANCH   2   5
ATOM      5  C   UNL d   1      60.809  49.669  51.760  0.00  0.00     0.135 A 
ATOM      6  S   UNL d   1      60.788  49.706  52.585  0.00  0.00    -0.073 SA
ATOM      7  C   UNL d   1      61.583  49.694  52.868  0.00  0.00     0.036 A 
ATOM      8  C   UNL d   1      62.089  49.649  52.203  0.00  0.00     0.008 A 
ATOM      9  C   UNL d   1      61.614  49.633  51.509  0.00  0.00     0.020 A 
ENDBRANCH   2   5
ENDBRANCH   1   2
BRANCH   1  10
ATOM     10  C   UNL d   1      58.730  49.706  51.077  0.00  0.00     0.133 C 
BRANCH  10  11
ATOM     11  C   UNL d   1      58.072  49.687  50.588  0.00  0.00     0.121 A 
ATOM     12  N   UNL d   1      57.289  49.646  50.831  0.00  0.00    -0.219 NA
ATOM     13  C   UNL d   1      56.811  49.639  50.161  0.00  0.00     0.180 A 
ATOM     14  S   UNL d   1      56.036  49.610  49.894  0.00  0.00    -0.048 SA
ATOM     15  N   UNL d   1      57.307  49.678  49.493  0.00  0.00    -0.282 N 
ATOM     16  C   UNL d   1      56.049  49.629  49.069  0.00  0.00     0.057 A 
ATOM     17  C   UNL d   1      56.830  49.671  48.830  0.00  0.00     0.089 A 
ATOM     18  C   UNL d   1      58.086  49.707  49.763  0.00  0.00     0.103 A 
ENDBRANCH  10  11
ENDBRANCH   1  10
TORSDOF 4
ENDMDL
