MODEL 1
REMARK VINA RESULT:     -13.8      0.000      0.000
REMARK  3 active torsions:
REMARK  status: ('A' for Active; 'I' for Inactive)
REMARK    1  A    between atoms: C_5  and  C_1 
REMARK    2  A    between atoms: N_11  and  C_9 
REMARK    3  A    between atoms: C_17  and  N_11 
ROOT
ATOM      1  C   UNL d   1      52.193  34.319  53.329  0.00  0.00     0.075 A 
ATOM      2  C   UNL d   1      52.619  33.624  53.406  0.00  0.00     0.004 A 
ATOM      3  C   UNL d   1      53.252  33.589  53.947  0.00  0.00     0.004 A 
ATOM      4  C   UNL d   1      52.391  34.993  53.792  0.00  0.00     0.046 A 
ATOM      5  C   UNL d   1      53.004  34.963  54.317  0.00  0.00     0.196 A 
ATOM      6  C   UNL d   1      53.433  34.263  54.394  0.00  0.00     0.039 A 
ATOM      7  C   UNL d   1      53.682  32.889  54.024  0.00  0.00     0.018 A 
ATOM      8  C   UNL d   1      53.480  32.220  53.561  0.00  0.00     0.081 A 
ATOM      9  C   UNL d   1      52.427  32.974  52.960  0.00  0.00     0.002 A 
ATOM     10  C   UNL d   1      52.857  32.274  53.037  0.00  0.00     0.019 A 
ATOM     11  O   UNL d   1      53.181  35.672  54.776  0.00  0.00    -0.287 OA
ATOM     12  C   UNL d   1      54.081  34.233  54.950  0.00  0.00     0.003 A 
ATOM     13  C   UNL d   1      54.332  32.855  54.581  0.00  0.00     0.002 A 
ATOM     14  C   UNL d   1      54.509  33.506  55.015  0.00  0.00     0.000 A 
ENDROOT
BRANCH   8  15
ATOM     15  N   UNL d   1      53.909  31.520  53.639  0.00  0.00    -0.246 NA
BRANCH  15  16
ATOM     16  C   UNL d   1      53.524  30.782  53.578  0.00  0.00     0.081 A 
ATOM     17  C   UNL d   1      53.418  30.311  54.263  0.00  0.00     0.019 A 
ATOM     18  C   UNL d   1      53.035  29.577  54.201  0.00  0.00     0.002 A 
ATOM     19  C   UNL d   1      52.769  29.322  53.498  0.00  0.00     0.000 A 
ATOM     20  C   UNL d   1      52.860  29.764  52.817  0.00  0.00     0.002 A 
ATOM     21  C   UNL d   1      53.239  30.495  52.859  0.00  0.00     0.019 A 
ENDBRANCH  15  16
ENDBRANCH   8  15
BRANCH   1  22
ATOM     22  C   UNL d   1      51.539  34.358  52.772  0.00  0.00     0.419 C 
ATOM     23  F   UNL d   1      50.918  34.398  52.231  0.00  0.00    -0.166 F 
ATOM     24  F   UNL d   1      51.024  34.066  53.366  0.00  0.00    -0.166 F 
ATOM     25  F   UNL d   1      52.083  34.650  52.196  0.00  0.00    -0.166 F 
ENDBRANCH   1  22
TORSDOF 3
ENDMDL
MODEL 2
REMARK VINA RESULT:     -13.4      1.654      2.358
REMARK  3 active torsions:
REMARK  status: ('A' for Active; 'I' for Inactive)
REMARK    1  A    between atoms: C_5  and  C_1 
REMARK    2  A    between atoms: N_11  and  C_9 
REMARK    3  A    between atoms: C_17  and  N_11 
ROOT
ATOM      1  C   UNL d   1      54.149  34.035  54.813  0.00  0.00     0.075 A 
ATOM      2  C   UNL d   1      53.823  33.475  54.313  0.00  0.00     0.004 A 
ATOM      3  C   UNL d   1      53.169  33.680  53.838  0.00  0.00     0.004 A 
ATOM      4  C   UNL d   1      53.827  34.812  54.848  0.00  0.00     0.046 A 
ATOM      5  C   UNL d   1      53.194  35.014  54.390  0.00  0.00     0.196 A 
ATOM      6  C   UNL d   1      52.866  34.450  53.886  0.00  0.00     0.039 A 
ATOM      7  C   UNL d   1      52.841  33.115  53.334  0.00  0.00     0.018 A 
ATOM      8  C   UNL d   1      53.165  32.342  53.301  0.00  0.00     0.081 A 
ATOM      9  C   UNL d   1      54.134  32.726  54.278  0.00  0.00     0.002 A 
ATOM     10  C   UNL d   1      53.805  32.161  53.774  0.00  0.00     0.019 A 
ATOM     11  O   UNL d   1      52.889  35.819  54.451  0.00  0.00    -0.287 OA
ATOM     12  C   UNL d   1      52.196  34.665  53.402  0.00  0.00     0.003 A 
ATOM     13  C   UNL d   1      52.169  33.327  52.846  0.00  0.00     0.002 A 
ATOM     14  C   UNL d   1      51.874  34.072  52.891  0.00  0.00     0.000 A 
ENDROOT
BRANCH   8  15
ATOM     15  N   UNL d   1      52.837  31.778  52.798  0.00  0.00    -0.246 NA
BRANCH  15  16
ATOM     16  C   UNL d   1      52.839  30.972  53.013  0.00  0.00     0.081 A 
ATOM     17  C   UNL d   1      52.136  30.617  53.301  0.00  0.00     0.019 A 
ATOM     18  C   UNL d   1      52.139  29.815  53.514  0.00  0.00     0.002 A 
ATOM     19  C   UNL d   1      52.803  29.384  53.447  0.00  0.00     0.000 A 
ATOM     20  C   UNL d   1      53.499  29.709  53.168  0.00  0.00     0.002 A 
ATOM     21  C   UNL d   1      53.516  30.504  52.951  0.00  0.00     0.019 A 
ENDBRANCH  15  16
ENDBRANCH   8  15
BRANCH   1  22
ATOM     22  C   UNL d   1      54.823  33.827  55.303  0.00  0.00     0.419 C 
ATOM     23  F   UNL d   1      55.475  33.630  55.768  0.00  0.00    -0.166 F 
ATOM     24  F   UNL d   1      54.299  33.530  55.887  0.00  0.00    -0.166 F 
ATOM     25  F   UNL d   1      55.325  34.133  54.698  0.00  0.00    -0.166 F 
ENDBRANCH   1  22
TORSDOF 3
ENDMDL
MODEL 3
REMARK VINA RESULT:     -11.8      1.905      3.490
REMARK  3 active torsions:
REMARK  status: ('A' for Active; 'I' for Inactive)
REMARK    1  A    between atoms: C_5  and  C_1 
REMARK    2  A    between atoms: N_11  and  C_9 
REMARK    3  A    between atoms: C_17  and  N_11 
ROOT
ATOM      1  C   UNL d   1      53.714  32.207  54.013  0.00  0.00     0.075 A 
ATOM      2  C   UNL d   1      53.252  32.815  53.718  0.00  0.00     0.004 A 
ATOM      3  C   UNL d   1      53.297  33.571  54.067  0.00  0.00     0.004 A 
ATOM      4  C   UNL d   1      54.230  32.342  54.663  0.00  0.00     0.046 A 
ATOM      5  C   UNL d   1      54.277  33.073  55.003  0.00  0.00     0.196 A 
ATOM      6  C   UNL d   1      53.812  33.686  54.706  0.00  0.00     0.039 A 
ATOM      7  C   UNL d   1      52.832  34.184  53.769  0.00  0.00     0.018 A 
ATOM      8  C   UNL d   1      52.318  34.044  53.121  0.00  0.00     0.081 A 
ATOM      9  C   UNL d   1      52.754  32.684  53.091  0.00  0.00     0.002 A 
ATOM     10  C   UNL d   1      52.288  33.297  52.794  0.00  0.00     0.019 A 
ATOM     11  O   UNL d   1      54.817  33.178  55.668  0.00  0.00    -0.287 OA
ATOM     12  C   UNL d   1      53.863  34.458  55.068  0.00  0.00     0.003 A 
ATOM     13  C   UNL d   1      52.880  34.960  54.129  0.00  0.00     0.002 A 
ATOM     14  C   UNL d   1      53.378  35.074  54.748  0.00  0.00     0.000 A 
ENDROOT
BRANCH   8  15
ATOM     15  N   UNL d   1      51.853  34.657  52.824  0.00  0.00    -0.246 NA
BRANCH  15  16
ATOM     16  C   UNL d   1      51.097  34.495  52.511  0.00  0.00     0.081 A 
ATOM     17  C   UNL d   1      50.422  34.545  53.006  0.00  0.00     0.019 A 
ATOM     18  C   UNL d   1      49.671  34.385  52.693  0.00  0.00     0.002 A 
ATOM     19  C   UNL d   1      49.589  34.185  51.928  0.00  0.00     0.000 A 
ATOM     20  C   UNL d   1      50.232  34.130  51.427  0.00  0.00     0.002 A 
ATOM     21  C   UNL d   1      50.986  34.286  51.720  0.00  0.00     0.019 A 
ENDBRANCH  15  16
ENDBRANCH   8  15
BRANCH   1  22
ATOM     22  C   UNL d   1      53.669  31.427  53.655  0.00  0.00     0.419 C 
ATOM     23  F   UNL d   1      53.632  30.680  53.307  0.00  0.00    -0.166 F 
ATOM     24  F   UNL d   1      53.030  31.236  54.165  0.00  0.00    -0.166 F 
ATOM     25  F   UNL d   1      54.312  31.647  53.156  0.00  0.00    -0.166 F 
ENDBRANCH   1  22
TORSDOF 3
ENDMDL
