MODEL 1
REMARK VINA RESULT:      -9.5      0.000      0.000
REMARK  4 active torsions:
REMARK  status: ('A' for Active; 'I' for Inactive)
REMARK    1  A    between atoms: C_20  and  C_4 
REMARK    2  A    between atoms: C_8  and  C_9 
REMARK       I    between atoms: C_9  and  N_18 
REMARK    3  A    between atoms: N_18  and  C_21 
REMARK    4  A    between atoms: C_21  and  C_20 
ROOT
ATOM      1  N   UNL d   1      52.854  32.774  53.381  0.00  0.00    -0.208 NA
ATOM      2  C   UNL d   1      53.172  33.335  53.912  0.00  0.00     0.085 A 
ATOM      3  C   UNL d   1      52.226  32.984  52.887  0.00  0.00     0.279 A 
ATOM      4  C   UNL d   1      51.911  33.756  52.921  0.00  0.00     0.059 A 
ATOM      5  C   UNL d   1      52.229  34.308  53.448  0.00  0.00     0.006 A 
ATOM      6  C   UNL d   1      52.855  34.096  53.939  0.00  0.00     0.018 A 
ATOM      7  C   UNL d   1      53.801  33.115  54.402  0.00  0.00     0.018 A 
ATOM      8  O   UNL d   1      51.911  32.434  52.363  0.00  0.00    -0.265 OA
ATOM      9  C   UNL d   1      54.116  33.666  54.927  0.00  0.00     0.002 A 
ATOM     10  C   UNL d   1      53.175  34.649  54.469  0.00  0.00     0.002 A 
ATOM     11  C   UNL d   1      53.802  34.437  54.960  0.00  0.00     0.000 A 
ATOM     12  C   UNL d   1      54.106  32.350  54.363  0.00  0.00     0.002 C 
ATOM     13  C   UNL d   1      54.741  33.454  55.417  0.00  0.00     0.000 C 
ENDROOT
BRANCH   4  14
ATOM     14  C   UNL d   1      51.289  33.961  52.430  0.00  0.00     0.026 C 
BRANCH  14  15
ATOM     15  C   UNL d   1      50.628  34.345  52.726  0.00  0.00     0.102 C 
BRANCH  15  16
ATOM     16  N   UNL d   1      49.976  34.504  52.246  0.00  0.00    -0.206 NA
ATOM     17  C   UNL d   1      49.335  34.935  52.541  0.00  0.00     0.285 C 
ATOM     18  O   UNL d   1      49.342  35.210  53.314  0.00  0.00    -0.265 OA
BRANCH  17  19
ATOM     19  C   UNL d   1      48.685  35.089  52.053  0.00  0.00     0.087 A 
ATOM     20  S   UNL d   1      48.061  35.585  52.229  0.00  0.00    -0.082 SA
ATOM     21  C   UNL d   1      47.540  35.585  51.607  0.00  0.00     0.036 A 
ATOM     22  C   UNL d   1      47.842  35.077  51.025  0.00  0.00     0.008 A 
ATOM     23  C   UNL d   1      48.554  34.769  51.303  0.00  0.00     0.012 A 
ENDBRANCH  17  19
ENDBRANCH  15  16
ENDBRANCH  14  15
ENDBRANCH   4  14
TORSDOF 4
ENDMDL
MODEL 2
REMARK VINA RESULT:      -7.7      1.739      5.498
REMARK  4 active torsions:
REMARK  status: ('A' for Active; 'I' for Inactive)
REMARK    1  A    between atoms: C_20  and  C_4 
REMARK    2  A    between atoms: C_8  and  C_9 
REMARK       I    between atoms: C_9  and  N_18 
REMARK    3  A    between atoms: N_18  and  C_21 
REMARK    4  A    between atoms: C_21  and  C_20 
ROOT
ATOM      1  N   UNL d   1      48.054  35.213  51.422  0.00  0.00    -0.208 NA
ATOM      2  C   UNL d   1      47.816  35.594  52.126  0.00  0.00     0.085 A 
ATOM      3  C   UNL d   1      48.792  34.841  51.385  0.00  0.00     0.279 A 
ATOM      4  C   UNL d   1      49.294  34.849  52.051  0.00  0.00     0.059 A 
ATOM      5  C   UNL d   1      49.053  35.228  52.745  0.00  0.00     0.006 A 
ATOM      6  C   UNL d   1      48.318  35.598  52.780  0.00  0.00     0.018 A 
ATOM      7  C   UNL d   1      47.076  35.963  52.153  0.00  0.00     0.018 A 
ATOM      8  O   UNL d   1      49.029  34.465  50.694  0.00  0.00    -0.265 OA
ATOM      9  C   UNL d   1      46.838  36.340  52.845  0.00  0.00     0.002 A 
ATOM     10  C   UNL d   1      48.075  35.978  53.476  0.00  0.00     0.002 A 
ATOM     11  C   UNL d   1      47.340  36.348  53.511  0.00  0.00     0.000 A 
ATOM     12  C   UNL d   1      46.584  35.952  51.491  0.00  0.00     0.002 C 
ATOM     13  C   UNL d   1      46.103  36.709  52.880  0.00  0.00     0.000 C 
ENDROOT
BRANCH   4  14
ATOM     14  C   UNL d   1      50.024  34.480  52.010  0.00  0.00     0.026 C 
BRANCH  14  15
ATOM     15  C   UNL d   1      50.333  34.086  52.659  0.00  0.00     0.102 C 
BRANCH  15  16
ATOM     16  N   UNL d   1      51.147  33.975  52.743  0.00  0.00    -0.206 NA
ATOM     17  C   UNL d   1      51.438  33.382  53.239  0.00  0.00     0.285 C 
ATOM     18  O   UNL d   1      50.922  32.898  53.654  0.00  0.00    -0.265 OA
BRANCH  17  19
ATOM     19  C   UNL d   1      52.255  33.278  53.318  0.00  0.00     0.087 A 
ATOM     20  S   UNL d   1      52.678  32.619  53.087  0.00  0.00    -0.082 SA
ATOM     21  C   UNL d   1      53.463  32.734  53.259  0.00  0.00     0.036 A 
ATOM     22  C   UNL d   1      53.536  33.485  53.607  0.00  0.00     0.008 A 
ATOM     23  C   UNL d   1      52.785  33.821  53.643  0.00  0.00     0.012 A 
ENDBRANCH  17  19
ENDBRANCH  15  16
ENDBRANCH  14  15
ENDBRANCH   4  14
TORSDOF 4
ENDMDL
MODEL 3
REMARK VINA RESULT:      -6.9      2.010      6.317
REMARK  4 active torsions:
REMARK  status: ('A' for Active; 'I' for Inactive)
REMARK    1  A    between atoms: C_20  and  C_4 
REMARK    2  A    between atoms: C_8  and  C_9 
REMARK       I    between atoms: C_9  and  N_18 
REMARK    3  A    between atoms: N_18  and  C_21 
REMARK    4  A    between atoms: C_21  and  C_20 
ROOT
ATOM      1  N   UNL d   1      46.649  36.374  53.542  0.00  0.00    -0.208 NA
ATOM      2  C   UNL d   1      46.349  36.236  52.775  0.00  0.00     0.085 A 
ATOM      3  C   UNL d   1      47.441  36.207  53.710  0.00  0.00     0.279 A 
ATOM      4  C   UNL d   1      47.937  35.901  53.114  0.00  0.00     0.059 A 
ATOM      5  C   UNL d   1      47.635  35.766  52.356  0.00  0.00     0.006 A 
ATOM      6  C   UNL d   1      46.846  35.933  52.190  0.00  0.00     0.018 A 
ATOM      7  C   UNL d   1      45.555  36.407  52.616  0.00  0.00     0.018 A 
ATOM      8  O   UNL d   1      47.739  36.342  54.465  0.00  0.00    -0.265 OA
ATOM      9  C   UNL d   1      45.256  36.272  51.861  0.00  0.00     0.002 A 
ATOM     10  C   UNL d   1      46.541  35.799  51.430  0.00  0.00     0.002 A 
ATOM     11  C   UNL d   1      45.752  35.966  51.264  0.00  0.00     0.000 A 
ATOM     12  C   UNL d   1      45.071  36.709  53.212  0.00  0.00     0.002 C 
ATOM     13  C   UNL d   1      44.468  36.439  51.696  0.00  0.00     0.000 C 
ENDROOT
BRANCH   4  14
ATOM     14  C   UNL d   1      48.720  35.737  53.285  0.00  0.00     0.026 C 
BRANCH  14  15
ATOM     15  C   UNL d   1      49.131  35.164  52.867  0.00  0.00     0.102 C 
BRANCH  15  16
ATOM     16  N   UNL d   1      49.873  34.903  53.116  0.00  0.00    -0.206 NA
ATOM     17  C   UNL d   1      50.322  34.400  52.638  0.00  0.00     0.285 C 
ATOM     18  O   UNL d   1      50.033  34.154  51.910  0.00  0.00    -0.265 OA
BRANCH  17  19
ATOM     19  C   UNL d   1      51.065  34.143  52.896  0.00  0.00     0.087 A 
ATOM     20  S   UNL d   1      51.228  33.424  53.246  0.00  0.00    -0.082 SA
ATOM     21  C   UNL d   1      52.020  33.386  53.417  0.00  0.00     0.036 A 
ATOM     22  C   UNL d   1      52.365  34.099  53.167  0.00  0.00     0.008 A 
ATOM     23  C   UNL d   1      51.770  34.569  52.844  0.00  0.00     0.012 A 
ENDBRANCH  17  19
ENDBRANCH  15  16
ENDBRANCH  14  15
ENDBRANCH   4  14
TORSDOF 4
ENDMDL
MODEL 4
REMARK VINA RESULT:      -6.6     10.005     10.814
REMARK  4 active torsions:
REMARK  status: ('A' for Active; 'I' for Inactive)
REMARK    1  A    between atoms: C_20  and  C_4 
REMARK    2  A    between atoms: C_8  and  C_9 
REMARK       I    between atoms: C_9  and  N_18 
REMARK    3  A    between atoms: N_18  and  C_21 
REMARK    4  A    between atoms: C_21  and  C_20 
ROOT
ATOM      1  N   UNL d   1      45.161  28.916  58.293  0.00  0.00    -0.208 NA
ATOM      2  C   UNL d   1      44.963  29.411  57.651  0.00  0.00     0.085 A 
ATOM      3  C   UNL d   1      45.272  28.106  58.170  0.00  0.00     0.279 A 
ATOM      4  C   UNL d   1      45.184  27.787  57.404  0.00  0.00     0.059 A 
ATOM      5  C   UNL d   1      44.987  28.282  56.771  0.00  0.00     0.006 A 
ATOM      6  C   UNL d   1      44.878  29.089  56.897  0.00  0.00     0.018 A 
ATOM      7  C   UNL d   1      44.855  30.220  57.785  0.00  0.00     0.018 A 
ATOM      8  O   UNL d   1      45.467  27.616  58.800  0.00  0.00    -0.265 OA
ATOM      9  C   UNL d   1      44.659  30.712  57.154  0.00  0.00     0.002 A 
ATOM     10  C   UNL d   1      44.681  29.586  56.263  0.00  0.00     0.002 A 
ATOM     11  C   UNL d   1      44.571  30.393  56.388  0.00  0.00     0.000 A 
ATOM     12  C   UNL d   1      44.943  30.529  58.545  0.00  0.00     0.002 C 
ATOM     13  C   UNL d   1      44.549  31.517  57.280  0.00  0.00     0.000 C 
ENDROOT
BRANCH   4  14
ATOM     14  C   UNL d   1      45.294  26.985  57.286  0.00  0.00     0.026 C 
BRANCH  14  15
ATOM     15  C   UNL d   1      44.954  26.603  56.645  0.00  0.00     0.102 C 
BRANCH  15  16
ATOM     16  N   UNL d   1      44.992  25.782  56.567  0.00  0.00    -0.206 NA
ATOM     17  C   UNL d   1      44.674  25.410  55.902  0.00  0.00     0.285 C 
ATOM     18  O   UNL d   1      44.315  25.854  55.311  0.00  0.00    -0.265 OA
BRANCH  17  19
ATOM     19  C   UNL d   1      44.717  24.587  55.832  0.00  0.00     0.087 A 
ATOM     20  S   UNL d   1      44.697  24.164  55.133  0.00  0.00    -0.082 SA
ATOM     21  C   UNL d   1      44.754  23.373  55.302  0.00  0.00     0.036 A 
ATOM     22  C   UNL d   1      44.810  23.294  56.127  0.00  0.00     0.008 A 
ATOM     23  C   UNL d   1      44.787  24.050  56.455  0.00  0.00     0.012 A 
ENDBRANCH  17  19
ENDBRANCH  15  16
ENDBRANCH  14  15
ENDBRANCH   4  14
TORSDOF 4
ENDMDL
MODEL 5
REMARK VINA RESULT:      -6.6      3.051      5.109
REMARK  4 active torsions:
REMARK  status: ('A' for Active; 'I' for Inactive)
REMARK    1  A    between atoms: C_20  and  C_4 
REMARK    2  A    between atoms: C_8  and  C_9 
REMARK       I    between atoms: C_9  and  N_18 
REMARK    3  A    between atoms: N_18  and  C_21 
REMARK    4  A    between atoms: C_21  and  C_20 
ROOT
ATOM      1  N   UNL d   1      52.678  33.603  53.032  0.00  0.00    -0.208 NA
ATOM      2  C   UNL d   1      53.023  33.947  53.710  0.00  0.00     0.085 A 
ATOM      3  C   UNL d   1      52.859  32.821  52.831  0.00  0.00     0.279 A 
ATOM      4  C   UNL d   1      53.385  32.381  53.306  0.00  0.00     0.059 A 
ATOM      5  C   UNL d   1      53.723  32.727  53.976  0.00  0.00     0.006 A 
ATOM      6  C   UNL d   1      53.542  33.506  54.174  0.00  0.00     0.018 A 
ATOM      7  C   UNL d   1      52.836  34.730  53.903  0.00  0.00     0.018 A 
ATOM      8  O   UNL d   1      52.521  32.478  52.164  0.00  0.00    -0.265 OA
ATOM      9  C   UNL d   1      53.174  35.073  54.570  0.00  0.00     0.002 A 
ATOM     10  C   UNL d   1      53.881  33.855  54.846  0.00  0.00     0.002 A 
ATOM     11  C   UNL d   1      53.700  34.633  55.045  0.00  0.00     0.000 A 
ATOM     12  C   UNL d   1      52.315  35.159  53.428  0.00  0.00     0.002 C 
ATOM     13  C   UNL d   1      52.992  35.851  54.768  0.00  0.00     0.000 C 
ENDROOT
BRANCH   4  14
ATOM     14  C   UNL d   1      53.561  31.608  53.103  0.00  0.00     0.026 C 
BRANCH  14  15
ATOM     15  C   UNL d   1      53.074  30.990  53.335  0.00  0.00     0.102 C 
BRANCH  15  16
ATOM     16  N   UNL d   1      53.341  30.409  53.857  0.00  0.00    -0.206 NA
ATOM     17  C   UNL d   1      52.951  29.682  53.907  0.00  0.00     0.285 C 
ATOM     18  O   UNL d   1      52.294  29.531  53.438  0.00  0.00    -0.265 OA
BRANCH  17  19
ATOM     19  C   UNL d   1      53.225  29.105  54.432  0.00  0.00     0.087 A 
ATOM     20  S   UNL d   1      53.076  29.079  55.235  0.00  0.00    -0.082 SA
ATOM     21  C   UNL d   1      53.443  28.428  55.551  0.00  0.00     0.036 A 
ATOM     22  C   UNL d   1      53.832  28.033  54.932  0.00  0.00     0.008 A 
ATOM     23  C   UNL d   1      53.695  28.455  54.238  0.00  0.00     0.012 A 
ENDBRANCH  17  19
ENDBRANCH  15  16
ENDBRANCH  14  15
ENDBRANCH   4  14
TORSDOF 4
ENDMDL
MODEL 6
REMARK VINA RESULT:      -6.5      1.647      5.515
REMARK  4 active torsions:
REMARK  status: ('A' for Active; 'I' for Inactive)
REMARK    1  A    between atoms: C_20  and  C_4 
REMARK    2  A    between atoms: C_8  and  C_9 
REMARK       I    between atoms: C_9  and  N_18 
REMARK    3  A    between atoms: N_18  and  C_21 
REMARK    4  A    between atoms: C_21  and  C_20 
ROOT
ATOM      1  N   UNL d   1      48.744  35.513  52.908  0.00  0.00    -0.208 NA
ATOM      2  C   UNL d   1      48.520  35.229  52.156  0.00  0.00     0.085 A 
ATOM      3  C   UNL d   1      49.463  35.274  53.241  0.00  0.00     0.279 A 
ATOM      4  C   UNL d   1      49.960  34.751  52.824  0.00  0.00     0.059 A 
ATOM      5  C   UNL d   1      49.734  34.473  52.079  0.00  0.00     0.006 A 
ATOM      6  C   UNL d   1      49.018  34.712  51.749  0.00  0.00     0.018 A 
ATOM      7  C   UNL d   1      47.799  35.473  51.832  0.00  0.00     0.018 A 
ATOM      8  O   UNL d   1      49.686  35.552  53.982  0.00  0.00    -0.265 OA
ATOM      9  C   UNL d   1      47.575  35.195  51.090  0.00  0.00     0.002 A 
ATOM     10  C   UNL d   1      48.789  34.433  51.002  0.00  0.00     0.002 A 
ATOM     11  C   UNL d   1      48.073  34.672  50.672  0.00  0.00     0.000 A 
ATOM     12  C   UNL d   1      47.312  35.991  52.250  0.00  0.00     0.002 C 
ATOM     13  C   UNL d   1      46.860  35.434  50.761  0.00  0.00     0.000 C 
ENDROOT
BRANCH   4  14
ATOM     14  C   UNL d   1      50.671  34.518  53.156  0.00  0.00     0.026 C 
BRANCH  14  15
ATOM     15  C   UNL d   1      51.081  33.872  52.863  0.00  0.00     0.102 C 
BRANCH  15  16
ATOM     16  N   UNL d   1      51.703  33.532  53.286  0.00  0.00    -0.206 NA
ATOM     17  C   UNL d   1      52.262  33.062  52.902  0.00  0.00     0.285 C 
ATOM     18  O   UNL d   1      52.205  32.927  52.094  0.00  0.00    -0.265 OA
BRANCH  17  19
ATOM     19  C   UNL d   1      52.882  32.725  53.334  0.00  0.00     0.087 A 
ATOM     20  S   UNL d   1      53.095  31.937  53.331  0.00  0.00    -0.082 SA
ATOM     21  C   UNL d   1      53.729  31.833  53.827  0.00  0.00     0.036 A 
ATOM     22  C   UNL d   1      53.921  32.574  54.150  0.00  0.00     0.008 A 
ATOM     23  C   UNL d   1      53.393  33.127  53.842  0.00  0.00     0.012 A 
ENDBRANCH  17  19
ENDBRANCH  15  16
ENDBRANCH  14  15
ENDBRANCH   4  14
TORSDOF 4
ENDMDL
