MODEL 1
REMARK VINA RESULT:      -8.2      0.000      0.000
REMARK  3 active torsions:
REMARK  status: ('A' for Active; 'I' for Inactive)
REMARK    1  A    between atoms: N_7  and  S_1 
REMARK    2  A    between atoms: C_3  and  C_8 
REMARK    3  A    between atoms: C_13  and  N_7 
ROOT
ATOM      1  C   UNL d   1      52.897  32.720  53.378  0.00  0.00     0.018 A 
ATOM      2  C   UNL d   1      53.587  32.323  53.565  0.00  0.00     0.003 A 
ATOM      3  C   UNL d   1      52.260  32.313  53.044  0.00  0.00     0.003 A 
ATOM      4  C   UNL d   1      53.031  31.104  53.094  0.00  0.00     0.093 A 
ATOM      5  C   UNL d   1      53.656  31.515  53.424  0.00  0.00     0.020 A 
ATOM      6  C   UNL d   1      52.326  31.507  52.902  0.00  0.00     0.020 A 
ENDROOT
BRANCH   1   7
ATOM      7  C   UNL d   1      52.826  33.530  53.518  0.00  0.00     0.088 A 
ATOM      8  N   UNL d   1      53.083  33.927  54.193  0.00  0.00    -0.239 NA
ATOM      9  C   UNL d   1      52.904  34.722  54.104  0.00  0.00     0.111 A 
ATOM     10  C   UNL d   1      53.067  35.323  54.657  0.00  0.00     0.028 C 
ATOM     11  S   UNL d   1      52.535  34.823  53.373  0.00  0.00    -0.066 SA
ATOM     12  C   UNL d   1      52.486  34.081  53.008  0.00  0.00     0.056 A 
ENDBRANCH   1   7
BRANCH   4  13
ATOM     13  N   UNL d   1      53.092  30.292  52.949  0.00  0.00    -0.162 NA
BRANCH  13  14
ATOM     14  S   UNL d   1      53.226  29.801  53.600  0.00  0.00     0.266 S 
ATOM     15  O   UNL d   1      54.076  29.995  53.583  0.00  0.00    -0.203 OA
ATOM     16  O   UNL d   1      52.201  29.618  53.557  0.00  0.00    -0.203 OA
ATOM     17  C   UNL d   1      53.221  29.107  54.469  0.00  0.00     0.165 C 
ENDBRANCH  13  14
ENDBRANCH   4  13
TORSDOF 3
ENDMDL
MODEL 2
REMARK VINA RESULT:      -8.1      1.856      4.019
REMARK  3 active torsions:
REMARK  status: ('A' for Active; 'I' for Inactive)
REMARK    1  A    between atoms: N_7  and  S_1 
REMARK    2  A    between atoms: C_3  and  C_8 
REMARK    3  A    between atoms: C_13  and  N_7 
ROOT
ATOM      1  C   UNL d   1      53.392  31.861  53.554  0.00  0.00     0.018 A 
ATOM      2  C   UNL d   1      52.845  32.372  53.223  0.00  0.00     0.003 A 
ATOM      3  C   UNL d   1      54.076  32.159  53.910  0.00  0.00     0.003 A 
ATOM      4  C   UNL d   1      53.643  33.488  53.591  0.00  0.00     0.093 A 
ATOM      5  C   UNL d   1      52.969  33.186  53.240  0.00  0.00     0.020 A 
ATOM      6  C   UNL d   1      54.202  32.970  53.928  0.00  0.00     0.020 A 
ENDROOT
BRANCH   1   7
ATOM      7  C   UNL d   1      53.270  31.046  53.538  0.00  0.00     0.088 A 
ATOM      8  N   UNL d   1      53.474  30.515  54.133  0.00  0.00    -0.239 NA
ATOM      9  C   UNL d   1      53.255  29.764  53.891  0.00  0.00     0.111 A 
ATOM     10  C   UNL d   1      53.360  29.061  54.327  0.00  0.00     0.028 C 
ATOM     11  S   UNL d   1      52.913  29.823  53.142  0.00  0.00    -0.066 SA
ATOM     12  C   UNL d   1      52.922  30.621  52.922  0.00  0.00     0.056 A 
ENDBRANCH   1   7
BRANCH   4  13
ATOM     13  N   UNL d   1      53.774  34.304  53.612  0.00  0.00    -0.162 NA
BRANCH  13  14
ATOM     14  S   UNL d   1      53.323  34.746  54.144  0.00  0.00     0.266 S 
ATOM     15  O   UNL d   1      53.831  34.487  54.804  0.00  0.00    -0.203 OA
ATOM     16  O   UNL d   1      52.762  35.012  53.308  0.00  0.00    -0.203 OA
ATOM     17  C   UNL d   1      52.614  35.389  54.711  0.00  0.00     0.165 C 
ENDBRANCH  13  14
ENDBRANCH   4  13
TORSDOF 3
ENDMDL
MODEL 3
REMARK VINA RESULT:      -7.4      2.207      2.849
REMARK  3 active torsions:
REMARK  status: ('A' for Active; 'I' for Inactive)
REMARK    1  A    between atoms: N_7  and  S_1 
REMARK    2  A    between atoms: C_3  and  C_8 
REMARK    3  A    between atoms: C_13  and  N_7 
ROOT
ATOM      1  C   UNL d   1      52.069  33.531  53.223  0.00  0.00     0.018 A 
ATOM      2  C   UNL d   1      52.431  33.928  53.840  0.00  0.00     0.003 A 
ATOM      3  C   UNL d   1      52.354  32.794  52.981  0.00  0.00     0.003 A 
ATOM      4  C   UNL d   1      53.367  32.871  53.993  0.00  0.00     0.093 A 
ATOM      5  C   UNL d   1      53.080  33.600  54.227  0.00  0.00     0.020 A 
ATOM      6  C   UNL d   1      53.000  32.464  53.364  0.00  0.00     0.020 A 
ENDROOT
BRANCH   1   7
ATOM      7  C   UNL d   1      51.419  33.858  52.835  0.00  0.00     0.088 A 
ATOM      8  N   UNL d   1      50.712  34.089  53.189  0.00  0.00    -0.239 NA
ATOM      9  C   UNL d   1      50.219  34.384  52.605  0.00  0.00     0.111 A 
ATOM     10  C   UNL d   1      49.449  34.679  52.720  0.00  0.00     0.028 C 
ATOM     11  S   UNL d   1      50.619  34.338  51.884  0.00  0.00    -0.066 SA
ATOM     12  C   UNL d   1      51.366  34.011  52.027  0.00  0.00     0.056 A 
ENDBRANCH   1   7
BRANCH   4  13
ATOM     13  N   UNL d   1      54.018  32.535  54.375  0.00  0.00    -0.162 NA
BRANCH  13  14
ATOM     14  S   UNL d   1      54.606  33.050  54.645  0.00  0.00     0.266 S 
ATOM     15  O   UNL d   1      54.918  33.132  53.834  0.00  0.00    -0.203 OA
ATOM     16  O   UNL d   1      54.178  32.902  55.583  0.00  0.00    -0.203 OA
ATOM     17  C   UNL d   1      55.320  33.716  55.176  0.00  0.00     0.165 C 
ENDBRANCH  13  14
ENDBRANCH   4  13
TORSDOF 3
ENDMDL
