MODEL 1
REMARK VINA RESULT:      -2.6      0.000      0.000
REMARK  4 active torsions:
REMARK  status: ('A' for Active; 'I' for Inactive)
REMARK    1  A    between atoms: C_6  and  C_1 
REMARK    2  A    between atoms: C_10  and  C_2 
REMARK       I    between atoms: N_14  and  C_6 
REMARK    3  A    between atoms: C_8  and  C_15 
REMARK    4  A    between atoms: C_21  and  N_14 
ROOT
ATOM      1  C   UNL d   1      31.953  17.487 -24.195  0.00  0.00     0.283 C 
ATOM      2  N   UNL d   1      32.460  17.582 -23.553  0.00  0.00    -0.208 NA
ATOM      3  O   UNL d   1      31.554  18.136 -24.516  0.00  0.00    -0.265 OA
ENDROOT
BRANCH   2   4
ATOM      4  C   UNL d   1      32.566  18.334 -23.230  0.00  0.00     0.085 A 
ATOM      5  C   UNL d   1      32.663  18.993 -23.716  0.00  0.00     0.019 A 
ATOM      6  C   UNL d   1      32.769  19.744 -23.389  0.00  0.00     0.003 A 
ATOM      7  C   UNL d   1      32.777  19.833 -22.570  0.00  0.00     0.020 A 
ATOM      8  C   UNL d   1      32.682  19.182 -22.072  0.00  0.00     0.003 A 
ATOM      9  C   UNL d   1      32.576  18.430 -22.395  0.00  0.00     0.019 A 
BRANCH   7  10
ATOM     10  C   UNL d   1      32.883  20.582 -22.240  0.00  0.00     0.118 A 
ATOM     11  N   UNL d   1      32.923  20.756 -21.437  0.00  0.00    -0.059 NA
ATOM     12  C   UNL d   1      33.032  21.569 -21.362  0.00  0.00     0.735 A 
ATOM     13  N   UNL d   1      33.109  22.046 -20.692  0.00  0.00    -0.059 NA
ATOM     14  N   UNL d   1      33.058  21.894 -22.107  0.00  0.00    -0.136 N 
ATOM     15  C   UNL d   1      33.213  22.857 -20.787  0.00  0.00     0.119 A 
ATOM     16  C   UNL d   1      33.240  23.190 -21.541  0.00  0.00     0.041 A 
ATOM     17  C   UNL d   1      33.163  22.713 -22.202  0.00  0.00     0.100 A 
ATOM     18  C   UNL d   1      32.966  21.285 -22.652  0.00  0.00     0.118 A 
ENDBRANCH   7  10
ENDBRANCH   2   4
BRANCH   1  19
ATOM     19  C   UNL d   1      31.840  16.739 -24.527  0.00  0.00     0.102 A 
ATOM     20  C   UNL d   1      31.120  16.355 -24.619  0.00  0.00     0.116 A 
ATOM     21  N   UNL d   1      31.271  15.620 -24.975  0.00  0.00    -0.126 NA
ATOM     22  O   UNL d   1      32.085  15.564 -25.097  0.00  0.00    -0.211 OA
ATOM     23  C   UNL d   1      32.440  16.254 -24.821  0.00  0.00     0.131 A 
ATOM     24  C   UNL d   1      33.240  16.432 -24.833  0.00  0.00     0.029 C 
BRANCH  20  25
ATOM     25  C   UNL d   1      30.389  16.634 -24.405  0.00  0.00     0.031 A 
ATOM     26  C   UNL d   1      29.999  16.313 -23.762  0.00  0.00     0.059 A 
ATOM     27 CL   UNL d   1      30.341  15.708 -23.329  0.00  0.00    -0.082 Cl
ATOM     28  C   UNL d   1      29.254  16.603 -23.550  0.00  0.00     0.011 A 
ATOM     29  C   UNL d   1      28.911  17.208 -23.983  0.00  0.00     0.001 A 
ATOM     30  C   UNL d   1      29.299  17.535 -24.631  0.00  0.00     0.000 A 
ATOM     31  C   UNL d   1      30.044  17.245 -24.844  0.00  0.00     0.002 A 
ENDBRANCH  20  25
ENDBRANCH   1  19
TORSDOF 4
ENDMDL
