MODEL 1
REMARK VINA RESULT:       0.2      0.000      0.000
REMARK  7 active torsions:
REMARK  status: ('A' for Active; 'I' for Inactive)
REMARK    1  A    between atoms: C_4  and  N_1 
REMARK       I    between atoms: C_2  and  N_6 
REMARK    2  A    between atoms: C_3  and  C_2 
REMARK    3  A    between atoms: C_5  and  C_3 
REMARK    4  A    between atoms: C_12  and  C_5 
REMARK    5  A    between atoms: N_6  and  C_11 
REMARK    6  A    between atoms: O_22  and  C_13 
REMARK    7  A    between atoms: C_25  and  O_22 
ROOT
ATOM      1  C   UNL d   1      57.365   0.246  30.571  0.00  0.00     0.328 C 
ATOM      2  N   UNL d   1      57.884  -0.329  30.299  0.00  0.00    -0.365 NA
ATOM      3  O   UNL d   1      56.864   0.635  30.044  0.00  0.00    -0.251 OA
ENDROOT
BRANCH   1   4
ATOM      4  C   UNL d   1      57.343   0.436  31.373  0.00  0.00     0.076 C 
BRANCH   4   5
ATOM      5  C   UNL d   1      56.631   0.671  31.721  0.00  0.00     0.006 C 
BRANCH   5   6
ATOM      6  C   UNL d   1      56.429   0.381  32.470  0.00  0.00     0.000 A 
ATOM      7  C   UNL d   1      55.681   0.041  32.591  0.00  0.00     0.002 A 
ATOM      8  C   UNL d   1      55.474  -0.249  33.333  0.00  0.00     0.025 A 
ATOM      9  C   UNL d   1      56.012  -0.203  33.962  0.00  0.00     0.100 A 
ATOM     10  C   UNL d   1      56.754   0.133  33.847  0.00  0.00     0.025 A 
ATOM     11  C   UNL d   1      56.967   0.427  33.099  0.00  0.00     0.002 A 
BRANCH   9  12
ATOM     12  O   UNL d   1      55.805  -0.494  34.705  0.00  0.00    -0.305 OA
BRANCH  12  13
ATOM     13  C   UNL d   1      55.189  -0.143  35.124  0.00  0.00     0.123 C 
ATOM     14  C   UNL d   1      55.350   0.434  35.691  0.00  0.00     0.029 C 
ENDBRANCH  12  13
ENDBRANCH   9  12
ENDBRANCH   5   6
ENDBRANCH   4   5
ENDBRANCH   1   4
BRANCH   2  15
ATOM     15  C   UNL d   1      58.405  -0.906  30.018  0.00  0.00     0.135 A 
ATOM     16  C   UNL d   1      59.152  -0.694  29.728  0.00  0.00     0.034 A 
ATOM     17  C   UNL d   1      59.662  -1.281  29.450  0.00  0.00     0.020 A 
ATOM     18  C   UNL d   1      59.430  -2.073  29.461  0.00  0.00     0.064 A 
ATOM     19  C   UNL d   1      58.689  -2.282  29.750  0.00  0.00     0.020 A 
ATOM     20  C   UNL d   1      58.177  -1.699  30.027  0.00  0.00     0.034 A 
BRANCH  18  21
ATOM     21  N   UNL d   1      59.942  -2.655  29.184  0.00  0.00    -0.300 N 
ATOM     22  C   UNL d   1      60.614  -2.444  28.755  0.00  0.00     0.107 A 
ATOM     23  C   UNL d   1      61.125  -3.021  28.477  0.00  0.00     0.142 A 
ATOM     24  O   UNL d   1      60.966  -3.819  28.628  0.00  0.00    -0.300 OA
ATOM     25  C   UNL d   1      60.293  -4.031  29.056  0.00  0.00     0.142 A 
ATOM     26  C   UNL d   1      59.778  -3.449  29.337  0.00  0.00     0.107 A 
ENDBRANCH  18  21
ENDBRANCH   2  15
TORSDOF 7
ENDMDL
MODEL 2
REMARK VINA RESULT:       2.8      3.360      7.228
REMARK  7 active torsions:
REMARK  status: ('A' for Active; 'I' for Inactive)
REMARK    1  A    between atoms: C_4  and  N_1 
REMARK       I    between atoms: C_2  and  N_6 
REMARK    2  A    between atoms: C_3  and  C_2 
REMARK    3  A    between atoms: C_5  and  C_3 
REMARK    4  A    between atoms: C_12  and  C_5 
REMARK    5  A    between atoms: N_6  and  C_11 
REMARK    6  A    between atoms: O_22  and  C_13 
REMARK    7  A    between atoms: C_25  and  O_22 
ROOT
ATOM      1  C   UNL d   1      60.407  -5.538  28.839  0.00  0.00     0.328 C 
ATOM      2  N   UNL d   1      60.153  -4.758  28.851  0.00  0.00    -0.365 NA
ATOM      3  O   UNL d   1      61.115  -5.749  29.206  0.00  0.00    -0.251 OA
ENDROOT
BRANCH   1   4
ATOM      4  C   UNL d   1      59.956  -6.114  28.460  0.00  0.00     0.076 C 
BRANCH   4   5
ATOM      5  C   UNL d   1      60.210  -6.900  28.455  0.00  0.00     0.006 C 
BRANCH   5   6
ATOM      6  C   UNL d   1      59.649  -7.509  28.463  0.00  0.00     0.000 A 
ATOM      7  C   UNL d   1      58.840  -7.323  28.456  0.00  0.00     0.002 A 
ATOM      8  C   UNL d   1      58.277  -7.924  28.463  0.00  0.00     0.025 A 
ATOM      9  C   UNL d   1      58.517  -8.717  28.478  0.00  0.00     0.100 A 
ATOM     10  C   UNL d   1      59.318  -8.907  28.485  0.00  0.00     0.025 A 
ATOM     11  C   UNL d   1      59.889  -8.303  28.477  0.00  0.00     0.002 A 
BRANCH   9  12
ATOM     12  O   UNL d   1      57.954  -9.319  28.485  0.00  0.00    -0.305 OA
BRANCH  12  13
ATOM     13  C   UNL d   1      57.399  -9.352  29.092  0.00  0.00     0.123 C 
ATOM     14  C   UNL d   1      56.715  -9.804  29.003  0.00  0.00     0.029 C 
ENDBRANCH  12  13
ENDBRANCH   9  12
ENDBRANCH   5   6
ENDBRANCH   4   5
ENDBRANCH   1   4
BRANCH   2  15
ATOM     15  C   UNL d   1      59.903  -3.970  28.868  0.00  0.00     0.135 A 
ATOM     16  C   UNL d   1      59.155  -3.760  28.577  0.00  0.00     0.034 A 
ATOM     17  C   UNL d   1      58.918  -2.969  28.600  0.00  0.00     0.020 A 
ATOM     18  C   UNL d   1      59.421  -2.392  28.908  0.00  0.00     0.064 A 
ATOM     19  C   UNL d   1      60.163  -2.602  29.195  0.00  0.00     0.020 A 
ATOM     20  C   UNL d   1      60.403  -3.390  29.175  0.00  0.00     0.034 A 
BRANCH  18  21
ATOM     21  N   UNL d   1      59.181  -1.605  28.928  0.00  0.00    -0.300 N 
ATOM     22  C   UNL d   1      59.578  -1.040  28.476  0.00  0.00     0.107 A 
ATOM     23  C   UNL d   1      59.341  -0.256  28.494  0.00  0.00     0.142 A 
ATOM     24  O   UNL d   1      58.701  -0.030  28.968  0.00  0.00    -0.300 OA
ATOM     25  C   UNL d   1      58.303  -0.595  29.419  0.00  0.00     0.142 A 
ATOM     26  C   UNL d   1      58.541  -1.386  29.402  0.00  0.00     0.107 A 
ENDBRANCH  18  21
ENDBRANCH   2  15
TORSDOF 7
ENDMDL
