MODEL 1
REMARK VINA RESULT:      -3.4      0.000      0.000
REMARK  2 active torsions:
REMARK  status: ('A' for Active; 'I' for Inactive)
REMARK    1  A    between atoms: C_11  and  C_2 
REMARK    2  A    between atoms: C_9  and  C_6 
ROOT
ATOM      1  C   UNL d   1      31.003  16.582 -23.826  0.00  0.00     0.045 A 
ATOM      2  C   UNL d   1      31.801  16.739 -23.751  0.00  0.00     0.127 A 
ATOM      3  C   UNL d   1      30.372  17.052 -24.077  0.00  0.00     0.010 A 
ATOM      4  O   UNL d   1      32.173  16.064 -23.475  0.00  0.00    -0.211 OA
ATOM      5  N   UNL d   1      31.600  15.477 -23.375  0.00  0.00    -0.126 NA
ATOM      6  C   UNL d   1      29.609  16.739 -24.096  0.00  0.00     0.065 A 
ATOM      7  C   UNL d   1      30.870  15.800 -23.594  0.00  0.00     0.110 A 
ATOM      8  C   UNL d   1      29.476  15.957 -23.864  0.00  0.00     0.008 A 
ATOM      9  C   UNL d   1      30.107  15.487 -23.613  0.00  0.00     0.022 A 
ENDROOT
BRANCH   2  10
ATOM     10  C   UNL d   1      32.181  17.457 -23.923  0.00  0.00     0.025 A 
ATOM     11  C   UNL d   1      32.289  18.012 -23.320  0.00  0.00     0.002 A 
ATOM     12  C   UNL d   1      32.666  18.730 -23.484  0.00  0.00     0.000 A 
ATOM     13  C   UNL d   1      32.934  18.890 -24.252  0.00  0.00     0.000 A 
ATOM     14  C   UNL d   1      32.823  18.330 -24.853  0.00  0.00     0.000 A 
ATOM     15  C   UNL d   1      32.447  17.616 -24.688  0.00  0.00     0.002 A 
ENDBRANCH   2  10
BRANCH   6  16
ATOM     16  C   UNL d   1      28.979  17.208 -24.347  0.00  0.00     0.211 C 
ATOM     17  O   UNL d   1      28.993  17.562 -25.094  0.00  0.00    -0.644 OA
ATOM     18  O   UNL d   1      28.330  17.322 -23.842  0.00  0.00    -0.644 OA
ENDBRANCH   6  16
TORSDOF 2
ENDMDL
MODEL 2
REMARK VINA RESULT:      -3.1      1.368      3.151
REMARK  2 active torsions:
REMARK  status: ('A' for Active; 'I' for Inactive)
REMARK    1  A    between atoms: C_11  and  C_2 
REMARK    2  A    between atoms: C_9  and  C_6 
ROOT
ATOM      1  C   UNL d   1      31.666  16.724 -24.200  0.00  0.00     0.045 A 
ATOM      2  C   UNL d   1      30.971  16.401 -24.482  0.00  0.00     0.127 A 
ATOM      3  C   UNL d   1      31.834  17.459 -23.866  0.00  0.00     0.010 A 
ATOM      4  O   UNL d   1      31.128  15.646 -24.755  0.00  0.00    -0.211 OA
ATOM      5  N   UNL d   1      31.933  15.493 -24.642  0.00  0.00    -0.126 NA
ATOM      6  C   UNL d   1      32.603  17.637 -23.627  0.00  0.00     0.065 A 
ATOM      7  C   UNL d   1      32.268  16.166 -24.296  0.00  0.00     0.110 A 
ATOM      8  C   UNL d   1      33.206  17.078 -23.723  0.00  0.00     0.008 A 
ATOM      9  C   UNL d   1      33.038  16.343 -24.058  0.00  0.00     0.022 A 
ENDROOT
BRANCH   2  10
ATOM     10  C   UNL d   1      30.226  16.768 -24.495  0.00  0.00     0.025 A 
ATOM     11  C   UNL d   1      29.677  16.589 -23.903  0.00  0.00     0.002 A 
ATOM     12  C   UNL d   1      28.933  16.951 -23.909  0.00  0.00     0.000 A 
ATOM     13  C   UNL d   1      28.741  17.491 -24.507  0.00  0.00     0.000 A 
ATOM     14  C   UNL d   1      29.295  17.668 -25.097  0.00  0.00     0.000 A 
ATOM     15  C   UNL d   1      30.036  17.306 -25.090  0.00  0.00     0.002 A 
ENDBRANCH   2  10
BRANCH   6  16
ATOM     16  C   UNL d   1      32.771  18.372 -23.292  0.00  0.00     0.211 C 
ATOM     17  O   UNL d   1      32.848  18.449 -22.472  0.00  0.00    -0.644 OA
ATOM     18  O   UNL d   1      32.862  19.032 -23.785  0.00  0.00    -0.644 OA
ENDBRANCH   6  16
TORSDOF 2
ENDMDL
MODEL 3
REMARK VINA RESULT:      -3.1      1.618      2.111
REMARK  2 active torsions:
REMARK  status: ('A' for Active; 'I' for Inactive)
REMARK    1  A    between atoms: C_11  and  C_2 
REMARK    2  A    between atoms: C_9  and  C_6 
ROOT
ATOM      1  C   UNL d   1      30.336  16.978 -24.353  0.00  0.00     0.045 A 
ATOM      2  C   UNL d   1      31.132  17.093 -24.494  0.00  0.00     0.127 A 
ATOM      3  C   UNL d   1      29.931  16.396 -23.932  0.00  0.00     0.010 A 
ATOM      4  O   UNL d   1      31.221  17.767 -24.950  0.00  0.00    -0.211 OA
ATOM      5  N   UNL d   1      30.469  18.078 -25.097  0.00  0.00    -0.126 NA
ATOM      6  C   UNL d   1      29.108  16.421 -23.882  0.00  0.00     0.065 A 
ATOM      7  C   UNL d   1      29.918  17.587 -24.725  0.00  0.00     0.110 A 
ATOM      8  C   UNL d   1      28.690  17.030 -24.254  0.00  0.00     0.008 A 
ATOM      9  C   UNL d   1      29.095  17.612 -24.675  0.00  0.00     0.022 A 
ENDROOT
BRANCH   2  10
ATOM     10  C   UNL d   1      31.755  16.614 -24.224  0.00  0.00     0.025 A 
ATOM     11  C   UNL d   1      32.155  16.822 -23.531  0.00  0.00     0.002 A 
ATOM     12  C   UNL d   1      32.776  16.349 -23.256  0.00  0.00     0.000 A 
ATOM     13  C   UNL d   1      32.994  15.669 -23.677  0.00  0.00     0.000 A 
ATOM     14  C   UNL d   1      32.590  15.465 -24.370  0.00  0.00     0.000 A 
ATOM     15  C   UNL d   1      31.971  15.937 -24.643  0.00  0.00     0.002 A 
ENDBRANCH   2  10
BRANCH   6  16
ATOM     16  C   UNL d   1      28.703  15.839 -23.461  0.00  0.00     0.211 C 
ATOM     17  O   UNL d   1      28.936  15.642 -22.692  0.00  0.00    -0.644 OA
ATOM     18  O   UNL d   1      28.061  15.453 -23.816  0.00  0.00    -0.644 OA
ENDBRANCH   6  16
TORSDOF 2
ENDMDL
MODEL 4
REMARK VINA RESULT:      -2.8      1.308      3.652
REMARK  2 active torsions:
REMARK  status: ('A' for Active; 'I' for Inactive)
REMARK    1  A    between atoms: C_11  and  C_2 
REMARK    2  A    between atoms: C_9  and  C_6 
ROOT
ATOM      1  C   UNL d   1      30.472  17.128 -24.411  0.00  0.00     0.045 A 
ATOM      2  C   UNL d   1      29.663  17.197 -24.500  0.00  0.00     0.127 A 
ATOM      3  C   UNL d   1      30.937  16.554 -24.044  0.00  0.00     0.010 A 
ATOM      4  O   UNL d   1      29.505  17.884 -24.915  0.00  0.00    -0.211 OA
ATOM      5  N   UNL d   1      30.225  18.251 -25.089  0.00  0.00    -0.126 NA
ATOM      6  C   UNL d   1      31.759  16.631 -24.041  0.00  0.00     0.065 A 
ATOM      7  C   UNL d   1      30.828  17.779 -24.775  0.00  0.00     0.110 A 
ATOM      8  C   UNL d   1      32.115  17.282 -24.405  0.00  0.00     0.008 A 
ATOM      9  C   UNL d   1      31.650  17.856 -24.772  0.00  0.00     0.022 A 
ENDROOT
BRANCH   2  10
ATOM     10  C   UNL d   1      29.090  16.666 -24.219  0.00  0.00     0.025 A 
ATOM     11  C   UNL d   1      28.691  16.835 -23.515  0.00  0.00     0.002 A 
ATOM     12  C   UNL d   1      28.118  16.311 -23.229  0.00  0.00     0.000 A 
ATOM     13  C   UNL d   1      27.947  15.618 -23.650  0.00  0.00     0.000 A 
ATOM     14  C   UNL d   1      28.349  15.453 -24.355  0.00  0.00     0.000 A 
ATOM     15  C   UNL d   1      28.919  15.976 -24.638  0.00  0.00     0.002 A 
ENDBRANCH   2  10
BRANCH   6  16
ATOM     16  C   UNL d   1      32.224  16.057 -23.674  0.00  0.00     0.211 C 
ATOM     17  O   UNL d   1      32.582  15.461 -24.122  0.00  0.00    -0.644 OA
ATOM     18  O   UNL d   1      32.330  16.083 -22.852  0.00  0.00    -0.644 OA
ENDBRANCH   6  16
TORSDOF 2
ENDMDL
MODEL 5
REMARK VINA RESULT:      -2.2      2.689      4.389
REMARK  2 active torsions:
REMARK  status: ('A' for Active; 'I' for Inactive)
REMARK    1  A    between atoms: C_11  and  C_2 
REMARK    2  A    between atoms: C_9  and  C_6 
ROOT
ATOM      1  C   UNL d   1      32.930  19.756 -23.377  0.00  0.00     0.045 A 
ATOM      2  C   UNL d   1      32.880  19.146 -23.917  0.00  0.00     0.127 A 
ATOM      3  C   UNL d   1      32.809  19.779 -22.561  0.00  0.00     0.010 A 
ATOM      4  O   UNL d   1      33.060  19.441 -24.659  0.00  0.00    -0.211 OA
ATOM      5  N   UNL d   1      33.226  20.248 -24.582  0.00  0.00    -0.126 NA
ATOM      6  C   UNL d   1      32.901  20.489 -22.151  0.00  0.00     0.065 A 
ATOM      7  C   UNL d   1      33.145  20.444 -23.783  0.00  0.00     0.110 A 
ATOM      8  C   UNL d   1      33.115  21.177 -22.557  0.00  0.00     0.008 A 
ATOM      9  C   UNL d   1      33.237  21.154 -23.372  0.00  0.00     0.022 A 
ENDROOT
BRANCH   2  10
ATOM     10  C   UNL d   1      32.681  18.357 -23.753  0.00  0.00     0.025 A 
ATOM     11  C   UNL d   1      31.923  18.084 -23.938  0.00  0.00     0.002 A 
ATOM     12  C   UNL d   1      31.717  17.299 -23.777  0.00  0.00     0.000 A 
ATOM     13  C   UNL d   1      32.271  16.790 -23.430  0.00  0.00     0.000 A 
ATOM     14  C   UNL d   1      33.029  17.068 -23.246  0.00  0.00     0.000 A 
ATOM     15  C   UNL d   1      33.233  17.851 -23.408  0.00  0.00     0.002 A 
ENDBRANCH   2  10
BRANCH   6  16
ATOM     16  C   UNL d   1      32.779  20.511 -21.336  0.00  0.00     0.211 C 
ATOM     17  O   UNL d   1      33.217  20.021 -20.834  0.00  0.00    -0.644 OA
ATOM     18  O   UNL d   1      32.213  21.031 -21.023  0.00  0.00    -0.644 OA
ENDBRANCH   6  16
TORSDOF 2
ENDMDL
MODEL 6
REMARK VINA RESULT:      -1.5      1.881      3.068
REMARK  2 active torsions:
REMARK  status: ('A' for Active; 'I' for Inactive)
REMARK    1  A    between atoms: C_11  and  C_2 
REMARK    2  A    between atoms: C_9  and  C_6 
ROOT
ATOM      1  C   UNL d   1      32.553  18.618 -23.836  0.00  0.00     0.045 A 
ATOM      2  C   UNL d   1      32.911  19.294 -23.551  0.00  0.00     0.127 A 
ATOM      3  C   UNL d   1      32.141  18.012 -23.456  0.00  0.00     0.010 A 
ATOM      4  O   UNL d   1      33.241  19.699 -24.182  0.00  0.00    -0.211 OA
ATOM      5  N   UNL d   1      33.087  19.269 -24.872  0.00  0.00    -0.126 NA
ATOM      6  C   UNL d   1      31.835  17.385 -23.894  0.00  0.00     0.065 A 
ATOM      7  C   UNL d   1      32.658  18.595 -24.656  0.00  0.00     0.110 A 
ATOM      8  C   UNL d   1      31.940  17.362 -24.714  0.00  0.00     0.008 A 
ATOM      9  C   UNL d   1      32.352  17.967 -25.095  0.00  0.00     0.022 A 
ENDROOT
BRANCH   2  10
ATOM     10  C   UNL d   1      32.941  19.540 -22.759  0.00  0.00     0.025 A 
ATOM     11  C   UNL d   1      32.694  20.304 -22.562  0.00  0.00     0.002 A 
ATOM     12  C   UNL d   1      32.721  20.556 -21.774  0.00  0.00     0.000 A 
ATOM     13  C   UNL d   1      32.995  20.040 -21.185  0.00  0.00     0.000 A 
ATOM     14  C   UNL d   1      33.240  19.276 -21.388  0.00  0.00     0.000 A 
ATOM     15  C   UNL d   1      33.213  19.027 -22.173  0.00  0.00     0.002 A 
ENDBRANCH   2  10
BRANCH   6  16
ATOM     16  C   UNL d   1      31.423  16.780 -23.514  0.00  0.00     0.211 C 
ATOM     17  O   UNL d   1      31.827  16.121 -23.218  0.00  0.00    -0.644 OA
ATOM     18  O   UNL d   1      30.600  16.838 -23.431  0.00  0.00    -0.644 OA
ENDBRANCH   6  16
TORSDOF 2
ENDMDL
MODEL 7
REMARK VINA RESULT:      -0.9      4.018      5.430
REMARK  2 active torsions:
REMARK  status: ('A' for Active; 'I' for Inactive)
REMARK    1  A    between atoms: C_11  and  C_2 
REMARK    2  A    between atoms: C_9  and  C_6 
ROOT
ATOM      1  C   UNL d   1      32.918  20.987 -21.447  0.00  0.00     0.045 A 
ATOM      2  C   UNL d   1      33.065  20.215 -21.669  0.00  0.00     0.127 A 
ATOM      3  C   UNL d   1      32.718  21.657 -21.885  0.00  0.00     0.010 A 
ATOM      4  O   UNL d   1      33.240  19.780 -20.999  0.00  0.00    -0.211 OA
ATOM      5  N   UNL d   1      33.202  20.287 -20.346  0.00  0.00    -0.126 NA
ATOM      6  C   UNL d   1      32.601  22.379 -21.503  0.00  0.00     0.065 A 
ATOM      7  C   UNL d   1      33.002  21.040 -20.625  0.00  0.00     0.110 A 
ATOM      8  C   UNL d   1      32.684  22.431 -20.682  0.00  0.00     0.008 A 
ATOM      9  C   UNL d   1      32.884  21.761 -20.243  0.00  0.00     0.022 A 
ENDROOT
BRANCH   2  10
ATOM     10  C   UNL d   1      33.043  19.913 -22.443  0.00  0.00     0.025 A 
ATOM     11  C   UNL d   1      33.241  20.407 -23.075  0.00  0.00     0.002 A 
ATOM     12  C   UNL d   1      33.222  20.114 -23.849  0.00  0.00     0.000 A 
ATOM     13  C   UNL d   1      33.004  19.326 -23.986  0.00  0.00     0.000 A 
ATOM     14  C   UNL d   1      32.807  18.835 -23.348  0.00  0.00     0.000 A 
ATOM     15  C   UNL d   1      32.827  19.129 -22.579  0.00  0.00     0.002 A 
ENDBRANCH   2  10
BRANCH   6  16
ATOM     16  C   UNL d   1      32.400  23.048 -21.941  0.00  0.00     0.211 C 
ATOM     17  O   UNL d   1      32.978  23.453 -22.372  0.00  0.00    -0.644 OA
ATOM     18  O   UNL d   1      31.614  23.311 -21.945  0.00  0.00    -0.644 OA
ENDBRANCH   6  16
TORSDOF 2
ENDMDL
