MODEL 1
REMARK VINA RESULT:      33.5      0.000      0.000
REMARK  3 active torsions:
REMARK  status: ('A' for Active; 'I' for Inactive)
REMARK    1  A    between atoms: N_2  and  S_1 
REMARK    2  A    between atoms: C_3  and  S_1 
REMARK    3  A    between atoms: O_17  and  C_11 
ROOT
ATOM      1  S   UNL d   1     -57.416 -99.126 -44.379  0.00  0.00     0.274 S 
ATOM      2  O   UNL d   1     -57.147 -98.766 -43.663  0.00  0.00    -0.199 OA
ATOM      3  O   UNL d   1     -57.660 -99.487 -45.096  0.00  0.00    -0.199 OA
ENDROOT
BRANCH   1   4
ATOM      4  N   UNL d   1     -56.623 -99.243 -44.606  0.00  0.00    -0.212 N 
ATOM      5  C   UNL d   1     -56.228 -98.764 -45.134  0.00  0.00     0.193 A 
ATOM      6  N   UNL d   1     -55.434 -99.087 -45.202  0.00  0.00    -0.223 NA
ATOM      7  C   UNL d   1     -55.383 -99.741 -44.715  0.00  0.00     0.100 A 
ATOM      8  C   UNL d   1     -56.135 -99.844 -44.335  0.00  0.00     0.094 A 
ATOM      9  C   UNL d   1     -54.768-100.267 -44.554  0.00  0.00     0.021 A 
ATOM     10  C   UNL d   1     -56.238-100.470 -43.810  0.00  0.00     0.020 A 
ATOM     11  C   UNL d   1     -55.617-100.991 -43.654  0.00  0.00     0.002 A 
ATOM     12  C   UNL d   1     -54.885-100.903 -44.015  0.00  0.00     0.002 A 
ENDBRANCH   1   4
BRANCH   1  13
ATOM     13  C   UNL d   1     -58.239 -99.002 -44.136  0.00  0.00     0.127 A 
ATOM     14  C   UNL d   1     -58.418 -99.016 -43.346  0.00  0.00     0.026 A 
ATOM     15  C   UNL d   1     -59.226 -98.892 -43.134  0.00  0.00     0.059 A 
ATOM     16 CL   UNL d   1     -59.420 -98.905 -42.311  0.00  0.00    -0.082 Cl
ATOM     17  C   UNL d   1     -59.803 -98.764 -43.705  0.00  0.00     0.013 A 
ATOM     18  C   UNL d   1     -59.585 -98.756 -44.514  0.00  0.00     0.026 A 
ATOM     19  C   UNL d   1     -58.800 -98.875 -44.724  0.00  0.00     0.106 A 
BRANCH  19  20
ATOM     20  O   UNL d   1     -58.607 -98.862 -45.546  0.00  0.00    -0.327 OA
ATOM     21  C   UNL d   1     -59.172 -98.850 -46.127  0.00  0.00     0.181 C 
ENDBRANCH  19  20
ENDBRANCH   1  13
TORSDOF 3
ENDMDL
