MODEL 1
REMARK VINA RESULT:      87.4      0.000      0.000
REMARK  5 active torsions:
REMARK  status: ('A' for Active; 'I' for Inactive)
REMARK    1  A    between atoms: N_2  and  C_1 
REMARK    2  A    between atoms: C_13  and  N_6 
REMARK    3  A    between atoms: C_12  and  C_7 
REMARK    4  A    between atoms: O_22  and  C_19 
REMARK    5  A    between atoms: C_25  and  O_22 
ROOT
ATOM      1  N   UNL d   1     -55.478-101.552 -44.968  0.00  0.00    -0.288 N 
ATOM      2  C   UNL d   1     -55.136-101.994 -44.356  0.00  0.00     0.196 A 
ATOM      3  S   UNL d   1     -54.826-102.680 -44.705  0.00  0.00    -0.092 SA
ATOM      4  C   UNL d   1     -55.377-101.962 -45.672  0.00  0.00     0.268 A 
ATOM      5  C   UNL d   1     -54.962-102.672 -45.483  0.00  0.00     0.093 A 
ATOM      6  O   UNL d   1     -55.630-101.721 -46.398  0.00  0.00    -0.266 OA
ENDROOT
BRANCH   1   7
ATOM      7  C   UNL d   1     -55.830-100.847 -44.804  0.00  0.00     0.139 A 
ATOM      8  C   UNL d   1     -56.582-100.783 -44.556  0.00  0.00     0.296 A 
ATOM      9  N   UNL d   1     -56.757 -99.994 -44.444  0.00  0.00    -0.209 N 
ATOM     10  O   UNL d   1     -57.102-101.432 -44.434  0.00  0.00    -0.264 OA
ATOM     11  N   UNL d   1     -56.095 -99.571 -44.629  0.00  0.00    -0.238 N 
ATOM     12  C   UNL d   1     -55.507-100.120 -44.858  0.00  0.00     0.102 A 
ATOM     13  C   UNL d   1     -56.016 -98.763 -44.598  0.00  0.00     0.120 C 
ATOM     14  C   UNL d   1     -54.714 -99.954 -45.102  0.00  0.00     0.022 C 
BRANCH   9  15
ATOM     15  C   UNL d   1     -57.428 -99.602 -44.200  0.00  0.00     0.085 A 
ATOM     16  C   UNL d   1     -57.436 -99.194 -43.488  0.00  0.00     0.019 A 
ATOM     17  C   UNL d   1     -58.109 -98.803 -43.246  0.00  0.00     0.002 A 
ATOM     18  C   UNL d   1     -58.791 -98.807 -43.706  0.00  0.00     0.000 A 
ATOM     19  C   UNL d   1     -58.772 -99.220 -44.419  0.00  0.00     0.002 A 
ATOM     20  C   UNL d   1     -58.103 -99.610 -44.661  0.00  0.00     0.019 A 
ENDBRANCH   9  15
ENDBRANCH   1   7
BRANCH   2  21
ATOM     21  C   UNL d   1     -55.031-101.932 -43.545  0.00  0.00    -0.001 A 
ATOM     22  C   UNL d   1     -54.859-102.617 -43.004  0.00  0.00    -0.000 A 
ATOM     23  C   UNL d   1     -54.761-102.462 -42.145  0.00  0.00     0.024 A 
ATOM     24  C   UNL d   1     -54.837-101.644 -41.869  0.00  0.00     0.100 A 
ATOM     25  C   UNL d   1     -54.999-101.024 -42.402  0.00  0.00     0.024 A 
ATOM     26  C   UNL d   1     -55.098-101.140 -43.229  0.00  0.00    -0.000 A 
BRANCH  24  27
ATOM     27  O   UNL d   1     -54.742-101.527 -41.073  0.00  0.00    -0.305 OA
BRANCH  27  28
ATOM     28  C   UNL d   1     -55.185-102.059 -40.504  0.00  0.00     0.123 C 
ATOM     29  C   UNL d   1     -55.444-101.725 -39.776  0.00  0.00     0.029 C 
ENDBRANCH  27  28
ENDBRANCH  24  27
ENDBRANCH   2  21
TORSDOF 5
ENDMDL
