MODEL 1
REMARK VINA RESULT:      43.7      0.000      0.000
REMARK  6 active torsions:
REMARK  status: ('A' for Active; 'I' for Inactive)
REMARK    1  A    between atoms: S_2  and  N_1 
REMARK    2  A    between atoms: C_11  and  S_2 
REMARK    3  A    between atoms: O_8  and  C_5 
REMARK    4  A    between atoms: C_7  and  O_8 
REMARK    5  A    between atoms: C_12  and  C_7 
REMARK    6  A    between atoms: O_20  and  C_17 
ROOT
ATOM      1  N   UNL d   1      14.477  13.049  -1.679  0.00  0.00    -0.130 N 
ATOM      2  N   UNL d   1      14.445  13.764  -1.271  0.00  0.00    -0.128 NA
ATOM      3  C   UNL d   1      14.997  12.547  -1.291  0.00  0.00     0.200 A 
ATOM      4  C   UNL d   1      14.955  13.701  -0.621  0.00  0.00     0.208 A 
ATOM      5  C   UNL d   1      15.292  12.958  -0.633  0.00  0.00     0.088 A 
ATOM      6  N   UNL d   1      15.190  11.779  -1.515  0.00  0.00    -0.126 N 
ENDROOT
BRANCH   4   7
ATOM      7  O   UNL d   1      15.096  14.290  -0.056  0.00  0.00    -0.253 OA
BRANCH   7   8
ATOM      8  C   UNL d   1      15.701  14.839  -0.176  0.00  0.00     0.301 C 
ATOM      9  O   UNL d   1      16.482  14.637  -0.014  0.00  0.00    -0.259 OA
BRANCH   8  10
ATOM     10  C   UNL d   1      15.526  15.593  -0.460  0.00  0.00     0.064 A 
ATOM     11  C   UNL d   1      15.830  15.854  -1.186  0.00  0.00     0.007 A 
ATOM     12  C   UNL d   1      15.658  16.602  -1.472  0.00  0.00     0.024 A 
ATOM     13  C   UNL d   1      15.173  17.107  -1.028  0.00  0.00     0.094 A 
ATOM     14  C   UNL d   1      14.868  16.847  -0.302  0.00  0.00     0.024 A 
ATOM     15  C   UNL d   1      15.042  16.095  -0.018  0.00  0.00     0.007 A 
BRANCH  13  16
ATOM     16  O   UNL d   1      14.991  17.855  -1.297  0.00  0.00    -0.328 OA
ATOM     17  C   UNL d   1      14.808  18.000  -2.086  0.00  0.00     0.181 C 
ENDBRANCH  13  16
ENDBRANCH   8  10
ENDBRANCH   7   8
ENDBRANCH   4   7
BRANCH   1  18
ATOM     18  S   UNL d   1      14.054  12.870  -2.365  0.00  0.00     0.287 S 
ATOM     19  O   UNL d   1      13.405  12.589  -1.916  0.00  0.00    -0.198 OA
ATOM     20  O   UNL d   1      14.680  13.140  -2.806  0.00  0.00    -0.198 OA
BRANCH  18  21
ATOM     21  C   UNL d   1      13.646  12.696  -3.059  0.00  0.00     0.105 A 
ATOM     22  C   UNL d   1      13.285  11.957  -3.154  0.00  0.00     0.013 A 
ATOM     23  C   UNL d   1      12.876  11.787  -3.850  0.00  0.00     0.001 A 
ATOM     24  C   UNL d   1      12.827  12.348  -4.449  0.00  0.00     0.000 A 
ATOM     25  C   UNL d   1      13.187  13.083  -4.353  0.00  0.00     0.001 A 
ATOM     26  C   UNL d   1      13.599  13.264  -3.661  0.00  0.00     0.013 A 
ENDBRANCH  18  21
ENDBRANCH   1  18
TORSDOF 6
ENDMDL
MODEL 2
REMARK VINA RESULT:      45.5      2.251      3.580
REMARK  6 active torsions:
REMARK  status: ('A' for Active; 'I' for Inactive)
REMARK    1  A    between atoms: S_2  and  N_1 
REMARK    2  A    between atoms: C_11  and  S_2 
REMARK    3  A    between atoms: O_8  and  C_5 
REMARK    4  A    between atoms: C_7  and  O_8 
REMARK    5  A    between atoms: C_12  and  C_7 
REMARK    6  A    between atoms: O_20  and  C_17 
ROOT
ATOM      1  N   UNL d   1      13.662  12.921  -3.018  0.00  0.00    -0.130 N 
ATOM      2  N   UNL d   1      13.863  13.649  -3.348  0.00  0.00    -0.128 NA
ATOM      3  C   UNL d   1      13.166  12.525  -3.537  0.00  0.00     0.200 A 
ATOM      4  C   UNL d   1      13.484  13.701  -4.082  0.00  0.00     0.208 A 
ATOM      5  C   UNL d   1      13.058  13.014  -4.198  0.00  0.00     0.088 A 
ATOM      6  N   UNL d   1      12.836  11.779  -3.423  0.00  0.00    -0.126 N 
ENDROOT
BRANCH   4   7
ATOM      7  O   UNL d   1      13.530  14.340  -4.608  0.00  0.00    -0.253 OA
BRANCH   7   8
ATOM      8  C   UNL d   1      13.460  15.112  -4.325  0.00  0.00     0.301 C 
ATOM      9  O   UNL d   1      12.811  15.329  -3.869  0.00  0.00    -0.259 OA
BRANCH   8  10
ATOM     10  C   UNL d   1      14.042  15.671  -4.498  0.00  0.00     0.064 A 
ATOM     11  C   UNL d   1      14.252  15.833  -5.283  0.00  0.00     0.007 A 
ATOM     12  C   UNL d   1      14.829  16.387  -5.459  0.00  0.00     0.024 A 
ATOM     13  C   UNL d   1      15.208  16.793  -4.843  0.00  0.00     0.094 A 
ATOM     14  C   UNL d   1      14.998  16.630  -4.058  0.00  0.00     0.024 A 
ATOM     15  C   UNL d   1      14.418  16.074  -3.883  0.00  0.00     0.007 A 
BRANCH  13  16
ATOM     16  O   UNL d   1      15.785  17.347  -5.000  0.00  0.00    -0.328 OA
ATOM     17  C   UNL d   1      16.583  17.193  -4.874  0.00  0.00     0.181 C 
ENDBRANCH  13  16
ENDBRANCH   8  10
ENDBRANCH   7   8
ENDBRANCH   4   7
BRANCH   1  18
ATOM     18  S   UNL d   1      13.918  12.639  -2.286  0.00  0.00     0.287 S 
ATOM     19  O   UNL d   1      13.841  11.846  -2.541  0.00  0.00    -0.198 OA
ATOM     20  O   UNL d   1      13.995  13.407  -2.032  0.00  0.00    -0.198 OA
BRANCH  18  21
ATOM     21  C   UNL d   1      14.175  12.373  -1.550  0.00  0.00     0.105 A 
ATOM     22  C   UNL d   1      14.973  12.434  -1.342  0.00  0.00     0.013 A 
ATOM     23  C   UNL d   1      15.227  12.167  -0.604  0.00  0.00     0.001 A 
ATOM     24  C   UNL d   1      14.689  11.841  -0.075  0.00  0.00     0.000 A 
ATOM     25  C   UNL d   1      13.895  11.781  -0.283  0.00  0.00     0.001 A 
ATOM     26  C   UNL d   1      13.630  12.045  -1.018  0.00  0.00     0.013 A 
ENDBRANCH  18  21
ENDBRANCH   1  18
TORSDOF 6
ENDMDL
