MODEL 1
REMARK VINA RESULT:      -5.5      0.000      0.000
REMARK  3 active torsions:
REMARK  status: ('A' for Active; 'I' for Inactive)
REMARK    1  A    between atoms: S_6  and  C_1 
REMARK    2  A    between atoms: C_8  and  S_6 
REMARK    3  A    between atoms: C_7  and  C_8 
ROOT
ATOM      1  C   UNL d   1     -41.441-122.818 -51.960  0.00  0.00     0.194 A 
ATOM      2  N   UNL d   1     -41.154-123.452 -51.511  0.00  0.00    -0.220 NA
ATOM      3  N   UNL d   1     -41.897-122.327 -51.455  0.00  0.00    -0.220 NA
ATOM      4  C   UNL d   1     -41.429-123.358 -50.733  0.00  0.00     0.101 A 
ATOM      5  C   UNL d   1     -41.888-122.662 -50.699  0.00  0.00     0.101 A 
ATOM      6  C   UNL d   1     -41.320-123.817 -50.050  0.00  0.00     0.021 A 
ATOM      7  C   UNL d   1     -42.230-122.442 -49.975  0.00  0.00     0.021 A 
ATOM      8  C   UNL d   1     -42.118-122.901 -49.301  0.00  0.00     0.002 A 
ATOM      9  C   UNL d   1     -41.663-123.588 -49.338  0.00  0.00     0.002 A 
ENDROOT
BRANCH   1  10
ATOM     10  S   UNL d   1     -41.306-122.685 -52.763  0.00  0.00    -0.048 SA
BRANCH  10  11
ATOM     11  C   UNL d   1     -41.866-122.286 -53.223  0.00  0.00     0.041 C 
BRANCH  11  12
ATOM     12  C   UNL d   1     -41.805-122.302 -54.046  0.00  0.00     0.034 A 
ATOM     13  C   UNL d   1     -42.374-121.915 -54.503  0.00  0.00     0.141 A 
ATOM     14  F   UNL d   1     -42.993-121.520 -54.131  0.00  0.00    -0.204 F 
ATOM     15  C   UNL d   1     -42.320-121.927 -55.326  0.00  0.00     0.030 A 
ATOM     16  C   UNL d   1     -41.695-122.327 -55.684  0.00  0.00     0.002 A 
ATOM     17  C   UNL d   1     -41.126-122.714 -55.231  0.00  0.00     0.000 A 
ATOM     18  C   UNL d   1     -41.187-122.698 -54.408  0.00  0.00     0.003 A 
ENDBRANCH  11  12
ENDBRANCH  10  11
ENDBRANCH   1  10
TORSDOF 3
ENDMDL
MODEL 2
REMARK VINA RESULT:      -5.4      1.606      4.683
REMARK  3 active torsions:
REMARK  status: ('A' for Active; 'I' for Inactive)
REMARK    1  A    between atoms: S_6  and  C_1 
REMARK    2  A    between atoms: C_8  and  S_6 
REMARK    3  A    between atoms: C_7  and  C_8 
ROOT
ATOM      1  C   UNL d   1     -41.356-123.193 -51.303  0.00  0.00     0.194 A 
ATOM      2  N   UNL d   1     -41.467-122.491 -51.726  0.00  0.00    -0.220 NA
ATOM      3  N   UNL d   1     -41.249-123.817 -51.855  0.00  0.00    -0.220 NA
ATOM      4  C   UNL d   1     -41.429-122.673 -52.536  0.00  0.00     0.101 A 
ATOM      5  C   UNL d   1     -41.295-123.493 -52.615  0.00  0.00     0.101 A 
ATOM      6  C   UNL d   1     -41.500-122.197 -53.213  0.00  0.00     0.021 A 
ATOM      7  C   UNL d   1     -41.235-123.817 -53.376  0.00  0.00     0.021 A 
ATOM      8  C   UNL d   1     -41.306-123.341 -54.044  0.00  0.00     0.002 A 
ATOM      9  C   UNL d   1     -41.439-122.531 -53.962  0.00  0.00     0.002 A 
ENDROOT
BRANCH   1  10
ATOM     10  S   UNL d   1     -41.350-123.275 -50.482  0.00  0.00    -0.048 SA
BRANCH  10  11
ATOM     11  C   UNL d   1     -42.053-123.217 -50.048  0.00  0.00     0.041 C 
BRANCH  11  12
ATOM     12  C   UNL d   1     -42.036-123.313 -49.229  0.00  0.00     0.034 A 
ATOM     13  C   UNL d   1     -42.704-123.117 -48.784  0.00  0.00     0.141 A 
ATOM     14  F   UNL d   1     -43.375-122.829 -49.164  0.00  0.00    -0.204 F 
ATOM     15  C   UNL d   1     -42.695-123.210 -47.964  0.00  0.00     0.030 A 
ATOM     16  C   UNL d   1     -42.016-123.499 -47.598  0.00  0.00     0.002 A 
ATOM     17  C   UNL d   1     -41.349-123.695 -48.039  0.00  0.00     0.000 A 
ATOM     18  C   UNL d   1     -41.365-123.600 -48.858  0.00  0.00     0.003 A 
ENDBRANCH  11  12
ENDBRANCH  10  11
ENDBRANCH   1  10
TORSDOF 3
ENDMDL
MODEL 3
REMARK VINA RESULT:      -5.2      0.984      1.325
REMARK  3 active torsions:
REMARK  status: ('A' for Active; 'I' for Inactive)
REMARK    1  A    between atoms: S_6  and  C_1 
REMARK    2  A    between atoms: C_8  and  S_6 
REMARK    3  A    between atoms: C_7  and  C_8 
ROOT
ATOM      1  C   UNL d   1     -41.701-123.432 -50.946  0.00  0.00     0.194 A 
ATOM      2  N   UNL d   1     -41.149-123.328 -50.338  0.00  0.00    -0.220 NA
ATOM      3  N   UNL d   1     -42.470-123.398 -50.610  0.00  0.00    -0.220 NA
ATOM      4  C   UNL d   1     -41.570-123.231 -49.628  0.00  0.00     0.101 A 
ATOM      5  C   UNL d   1     -42.385-123.274 -49.797  0.00  0.00     0.101 A 
ATOM      6  C   UNL d   1     -41.313-123.108 -48.848  0.00  0.00     0.021 A 
ATOM      7  C   UNL d   1     -42.928-123.192 -49.174  0.00  0.00     0.021 A 
ATOM      8  C   UNL d   1     -42.668-123.070 -48.403  0.00  0.00     0.002 A 
ATOM      9  C   UNL d   1     -41.861-123.028 -48.240  0.00  0.00     0.002 A 
ENDROOT
BRANCH   1  10
ATOM     10  S   UNL d   1     -41.534-123.549 -51.746  0.00  0.00    -0.048 SA
BRANCH  10  11
ATOM     11  C   UNL d   1     -41.335-122.909 -52.232  0.00  0.00     0.041 C 
BRANCH  11  12
ATOM     12  C   UNL d   1     -41.340-123.002 -53.052  0.00  0.00     0.034 A 
ATOM     13  C   UNL d   1     -41.539-122.360 -53.532  0.00  0.00     0.141 A 
ATOM     14  F   UNL d   1     -41.730-121.638 -53.187  0.00  0.00    -0.204 F 
ATOM     15  C   UNL d   1     -41.545-122.446 -54.353  0.00  0.00     0.030 A 
ATOM     16  C   UNL d   1     -41.352-123.175 -54.685  0.00  0.00     0.002 A 
ATOM     17  C   UNL d   1     -41.153-123.817 -54.208  0.00  0.00     0.000 A 
ATOM     18  C   UNL d   1     -41.148-123.723 -53.388  0.00  0.00     0.003 A 
ENDBRANCH  11  12
ENDBRANCH  10  11
ENDBRANCH   1  10
TORSDOF 3
ENDMDL
