MODEL 1
REMARK VINA RESULT:      -6.3      0.000      0.000
REMARK  3 active torsions:
REMARK  status: ('A' for Active; 'I' for Inactive)
REMARK    1  A    between atoms: C_2  and  O_3 
REMARK    2  A    between atoms: O_3  and  C_5 
REMARK    3  A    between atoms: C_5  and  C_4 
ROOT
ATOM      1  C   UNL d   1      53.891  32.443  53.969  0.00  0.00     0.100 A 
ATOM      2  C   UNL d   1      53.735  32.556  54.771  0.00  0.00     0.025 A 
ATOM      3  C   UNL d   1      54.540  32.810  53.619  0.00  0.00     0.025 A 
ATOM      4  C   UNL d   1      54.227  33.038  55.231  0.00  0.00     0.002 A 
ATOM      5  C   UNL d   1      55.031  33.291  54.079  0.00  0.00     0.002 A 
ATOM      6  C   UNL d   1      54.877  33.403  54.873  0.00  0.00     0.000 A 
ENDROOT
BRANCH   1   7
ATOM      7  O   UNL d   1      53.399  31.963  53.517  0.00  0.00    -0.303 OA
BRANCH   7   8
ATOM      8  C   UNL d   1      53.447  31.138  53.577  0.00  0.00     0.145 C 
BRANCH   8   9
ATOM      9  C   UNL d   1      52.966  30.658  53.113  0.00  0.00     0.149 C 
ATOM     10  N   UNL d   1      52.935  29.846  53.245  0.00  0.00    -0.144 N 
ENDBRANCH   8   9
ENDBRANCH   7   8
ENDBRANCH   1   7
TORSDOF 3
ENDMDL
MODEL 2
REMARK VINA RESULT:      -5.9      1.638      2.922
REMARK  3 active torsions:
REMARK  status: ('A' for Active; 'I' for Inactive)
REMARK    1  A    between atoms: C_2  and  O_3 
REMARK    2  A    between atoms: O_3  and  C_5 
REMARK    3  A    between atoms: C_5  and  C_4 
ROOT
ATOM      1  C   UNL d   1      53.719  31.819  53.494  0.00  0.00     0.100 A 
ATOM      2  C   UNL d   1      53.886  31.030  53.667  0.00  0.00     0.025 A 
ATOM      3  C   UNL d   1      53.025  32.017  53.097  0.00  0.00     0.025 A 
ATOM      4  C   UNL d   1      53.361  30.431  53.444  0.00  0.00     0.002 A 
ATOM      5  C   UNL d   1      52.500  31.417  52.875  0.00  0.00     0.002 A 
ATOM      6  C   UNL d   1      52.666  30.635  53.046  0.00  0.00     0.000 A 
ENDROOT
BRANCH   1   7
ATOM      7  O   UNL d   1      54.246  32.411  53.717  0.00  0.00    -0.303 OA
BRANCH   7   8
ATOM      8  C   UNL d   1      54.228  32.719  54.486  0.00  0.00     0.145 C 
BRANCH   8   9
ATOM      9  C   UNL d   1      54.723  33.342  54.697  0.00  0.00     0.149 C 
ATOM     10  N   UNL d   1      54.838  33.534  55.489  0.00  0.00    -0.144 N 
ENDBRANCH   8   9
ENDBRANCH   7   8
ENDBRANCH   1   7
TORSDOF 3
ENDMDL
MODEL 3
REMARK VINA RESULT:      -5.8      2.065      2.241
REMARK  3 active torsions:
REMARK  status: ('A' for Active; 'I' for Inactive)
REMARK    1  A    between atoms: C_2  and  O_3 
REMARK    2  A    between atoms: O_3  and  C_5 
REMARK    3  A    between atoms: C_5  and  C_4 
ROOT
ATOM      1  C   UNL d   1      53.266  33.250  54.051  0.00  0.00     0.100 A 
ATOM      2  C   UNL d   1      53.449  33.685  54.727  0.00  0.00     0.025 A 
ATOM      3  C   UNL d   1      53.854  32.819  53.666  0.00  0.00     0.025 A 
ATOM      4  C   UNL d   1      54.220  33.694  55.026  0.00  0.00     0.002 A 
ATOM      5  C   UNL d   1      54.625  32.828  53.966  0.00  0.00     0.002 A 
ATOM      6  C   UNL d   1      54.805  33.260  54.635  0.00  0.00     0.000 A 
ENDROOT
BRANCH   1   7
ATOM      7  O   UNL d   1      52.497  33.244  53.758  0.00  0.00    -0.303 OA
BRANCH   7   8
ATOM      8  C   UNL d   1      52.259  33.804  53.195  0.00  0.00     0.145 C 
BRANCH   8   9
ATOM      9  C   UNL d   1      51.482  33.819  52.925  0.00  0.00     0.149 C 
ATOM     10  N   UNL d   1      51.285  34.235  52.243  0.00  0.00    -0.144 N 
ENDBRANCH   8   9
ENDBRANCH   7   8
ENDBRANCH   1   7
TORSDOF 3
ENDMDL
MODEL 4
REMARK VINA RESULT:      -5.7      2.159      2.830
REMARK  3 active torsions:
REMARK  status: ('A' for Active; 'I' for Inactive)
REMARK    1  A    between atoms: C_2  and  O_3 
REMARK    2  A    between atoms: O_3  and  C_5 
REMARK    3  A    between atoms: C_5  and  C_4 
ROOT
ATOM      1  C   UNL d   1      52.838  32.265  52.931  0.00  0.00     0.100 A 
ATOM      2  C   UNL d   1      52.593  31.484  52.834  0.00  0.00     0.025 A 
ATOM      3  C   UNL d   1      53.485  32.439  53.412  0.00  0.00     0.025 A 
ATOM      4  C   UNL d   1      52.992  30.868  53.217  0.00  0.00     0.002 A 
ATOM      5  C   UNL d   1      53.882  31.822  53.794  0.00  0.00     0.002 A 
ATOM      6  C   UNL d   1      53.639  31.048  53.698  0.00  0.00     0.000 A 
ENDROOT
BRANCH   1   7
ATOM      7  O   UNL d   1      52.438  32.874  52.548  0.00  0.00    -0.303 OA
BRANCH   7   8
ATOM      8  C   UNL d   1      51.888  33.338  52.959  0.00  0.00     0.145 C 
BRANCH   8   9
ATOM      9  C   UNL d   1      51.538  33.988  52.596  0.00  0.00     0.149 C 
ATOM     10  N   UNL d   1      50.827  34.291  52.878  0.00  0.00    -0.144 N 
ENDBRANCH   8   9
ENDBRANCH   7   8
ENDBRANCH   1   7
TORSDOF 3
ENDMDL
MODEL 5
REMARK VINA RESULT:      -5.5      1.708      2.038
REMARK  3 active torsions:
REMARK  status: ('A' for Active; 'I' for Inactive)
REMARK    1  A    between atoms: C_2  and  O_3 
REMARK    2  A    between atoms: O_3  and  C_5 
REMARK    3  A    between atoms: C_5  and  C_4 
ROOT
ATOM      1  C   UNL d   1      52.649  32.826  52.886  0.00  0.00     0.100 A 
ATOM      2  C   UNL d   1      53.232  33.219  53.318  0.00  0.00     0.025 A 
ATOM      3  C   UNL d   1      51.930  33.197  52.731  0.00  0.00     0.025 A 
ATOM      4  C   UNL d   1      53.101  33.986  53.600  0.00  0.00     0.002 A 
ATOM      5  C   UNL d   1      51.800  33.963  53.014  0.00  0.00     0.002 A 
ATOM      6  C   UNL d   1      52.377  34.352  53.442  0.00  0.00     0.000 A 
ENDROOT
BRANCH   1   7
ATOM      7  O   UNL d   1      52.785  32.064  52.607  0.00  0.00    -0.303 OA
BRANCH   7   8
ATOM      8  C   UNL d   1      52.771  31.419  53.128  0.00  0.00     0.145 C 
BRANCH   8   9
ATOM      9  C   UNL d   1      52.879  30.654  52.846  0.00  0.00     0.149 C 
ATOM     10  N   UNL d   1      52.924  30.019  53.368  0.00  0.00    -0.144 N 
ENDBRANCH   8   9
ENDBRANCH   7   8
ENDBRANCH   1   7
TORSDOF 3
ENDMDL
MODEL 6
REMARK VINA RESULT:      -5.5      2.570      3.085
REMARK  3 active torsions:
REMARK  status: ('A' for Active; 'I' for Inactive)
REMARK    1  A    between atoms: C_2  and  O_3 
REMARK    2  A    between atoms: O_3  and  C_5 
REMARK    3  A    between atoms: C_5  and  C_4 
ROOT
ATOM      1  C   UNL d   1      52.549  33.503  53.382  0.00  0.00     0.100 A 
ATOM      2  C   UNL d   1      51.838  33.091  53.459  0.00  0.00     0.025 A 
ATOM      3  C   UNL d   1      52.555  34.257  53.050  0.00  0.00     0.025 A 
ATOM      4  C   UNL d   1      51.127  33.429  53.204  0.00  0.00     0.002 A 
ATOM      5  C   UNL d   1      51.843  34.594  52.796  0.00  0.00     0.002 A 
ATOM      6  C   UNL d   1      51.140  34.185  52.872  0.00  0.00     0.000 A 
ENDROOT
BRANCH   1   7
ATOM      7  O   UNL d   1      53.253  33.163  53.638  0.00  0.00    -0.303 OA
BRANCH   7   8
ATOM      8  C   UNL d   1      53.520  33.283  54.413  0.00  0.00     0.145 C 
BRANCH   8   9
ATOM      9  C   UNL d   1      54.185  32.886  54.691  0.00  0.00     0.149 C 
ATOM     10  N   UNL d   1      54.609  33.179  55.333  0.00  0.00    -0.144 N 
ENDBRANCH   8   9
ENDBRANCH   7   8
ENDBRANCH   1   7
TORSDOF 3
ENDMDL
MODEL 7
REMARK VINA RESULT:      -4.6      2.494      3.140
REMARK  3 active torsions:
REMARK  status: ('A' for Active; 'I' for Inactive)
REMARK    1  A    between atoms: C_2  and  O_3 
REMARK    2  A    between atoms: O_3  and  C_5 
REMARK    3  A    between atoms: C_5  and  C_4 
ROOT
ATOM      1  C   UNL d   1      52.728  31.445  52.920  0.00  0.00     0.100 A 
ATOM      2  C   UNL d   1      53.498  31.150  52.965  0.00  0.00     0.025 A 
ATOM      3  C   UNL d   1      52.096  30.990  53.189  0.00  0.00     0.025 A 
ATOM      4  C   UNL d   1      53.642  30.399  53.280  0.00  0.00     0.002 A 
ATOM      5  C   UNL d   1      52.241  30.239  53.503  0.00  0.00     0.002 A 
ATOM      6  C   UNL d   1      53.003  29.948  53.548  0.00  0.00     0.000 A 
ENDROOT
BRANCH   1   7
ATOM      7  O   UNL d   1      52.590  32.193  52.607  0.00  0.00    -0.303 OA
BRANCH   7   8
ATOM      8  C   UNL d   1      52.200  32.770  53.055  0.00  0.00     0.145 C 
BRANCH   8   9
ATOM      9  C   UNL d   1      52.304  33.569  52.888  0.00  0.00     0.149 C 
ATOM     10  N   UNL d   1      51.804  34.133  53.217  0.00  0.00    -0.144 N 
ENDBRANCH   8   9
ENDBRANCH   7   8
ENDBRANCH   1   7
TORSDOF 3
ENDMDL
MODEL 8
REMARK VINA RESULT:      -3.5     10.238     10.593
REMARK  3 active torsions:
REMARK  status: ('A' for Active; 'I' for Inactive)
REMARK    1  A    between atoms: C_2  and  O_3 
REMARK    2  A    between atoms: O_3  and  C_5 
REMARK    3  A    between atoms: C_5  and  C_4 
ROOT
ATOM      1  C   UNL d   1      45.235  28.367  57.731  0.00  0.00     0.100 A 
ATOM      2  C   UNL d   1      45.108  28.368  56.916  0.00  0.00     0.025 A 
ATOM      3  C   UNL d   1      45.106  29.052  58.170  0.00  0.00     0.025 A 
ATOM      4  C   UNL d   1      44.849  29.053  56.532  0.00  0.00     0.002 A 
ATOM      5  C   UNL d   1      44.847  29.737  57.784  0.00  0.00     0.002 A 
ATOM      6  C   UNL d   1      44.721  29.738  56.977  0.00  0.00     0.000 A 
ENDROOT
BRANCH   1   7
ATOM      7  O   UNL d   1      45.492  27.682  58.108  0.00  0.00    -0.303 OA
BRANCH   7   8
ATOM      8  C   UNL d   1      44.947  27.107  58.350  0.00  0.00     0.145 C 
BRANCH   8   9
ATOM      9  C   UNL d   1      45.196  26.450  58.778  0.00  0.00     0.149 C 
ATOM     10  N   UNL d   1      44.691  25.811  58.894  0.00  0.00    -0.144 N 
ENDBRANCH   8   9
ENDBRANCH   7   8
ENDBRANCH   1   7
TORSDOF 3
ENDMDL
MODEL 9
REMARK VINA RESULT:      -3.5     10.335     10.762
REMARK  3 active torsions:
REMARK  status: ('A' for Active; 'I' for Inactive)
REMARK    1  A    between atoms: C_2  and  O_3 
REMARK    2  A    between atoms: O_3  and  C_5 
REMARK    3  A    between atoms: C_5  and  C_4 
ROOT
ATOM      1  C   UNL d   1      45.139  30.284  58.764  0.00  0.00     0.100 A 
ATOM      2  C   UNL d   1      44.914  30.879  58.239  0.00  0.00     0.025 A 
ATOM      3  C   UNL d   1      45.160  29.499  58.514  0.00  0.00     0.025 A 
ATOM      4  C   UNL d   1      44.708  30.695  57.459  0.00  0.00     0.002 A 
ATOM      5  C   UNL d   1      44.954  29.317  57.734  0.00  0.00     0.002 A 
ATOM      6  C   UNL d   1      44.731  29.906  57.214  0.00  0.00     0.000 A 
ENDROOT
BRANCH   1   7
ATOM      7  O   UNL d   1      45.343  30.473  59.539  0.00  0.00    -0.303 OA
BRANCH   7   8
ATOM      8  C   UNL d   1      44.755  30.571  60.115  0.00  0.00     0.145 C 
BRANCH   8   9
ATOM      9  C   UNL d   1      44.955  30.607  60.912  0.00  0.00     0.149 C 
ATOM     10  N   UNL d   1      44.534  31.092  61.427  0.00  0.00    -0.144 N 
ENDBRANCH   8   9
ENDBRANCH   7   8
ENDBRANCH   1   7
TORSDOF 3
ENDMDL
