MODEL 1
REMARK VINA RESULT:      50.5      0.000      0.000
REMARK  8 active torsions:
REMARK  status: ('A' for Active; 'I' for Inactive)
REMARK    1  A    between atoms: C_2  and  C_8 
REMARK    2  A    between atoms: O_17  and  C_2 
REMARK    3  A    between atoms: C_15  and  C_3 
REMARK    4  A    between atoms: C_20  and  C_4 
REMARK    5  A    between atoms: C_5  and  C_16 
REMARK       I    between atoms: N_9  and  C_5 
REMARK    6  A    between atoms: C_14  and  N_9 
REMARK    7  A    between atoms: C_16  and  C_15 
REMARK    8  A    between atoms: C_21  and  O_17 
ROOT
ATOM      1  C   UNL d   1     -50.513  26.633  34.079  0.00  0.00     0.279 C 
ATOM      2  N   UNL d   1     -50.240  27.082  34.704  0.00  0.00    -0.208 NA
ATOM      3  O   UNL d   1     -50.216  26.759  33.313  0.00  0.00    -0.265 OA
ENDROOT
BRANCH   2   4
ATOM      4  C   UNL d   1     -50.536  26.956  35.466  0.00  0.00     0.085 A 
ATOM      5  C   UNL d   1     -50.099  27.200  36.119  0.00  0.00     0.019 A 
ATOM      6  C   UNL d   1     -50.394  27.074  36.875  0.00  0.00     0.007 A 
ATOM      7  C   UNL d   1     -51.125  26.704  36.976  0.00  0.00     0.064 A 
ATOM      8  C   UNL d   1     -51.562  26.461  36.324  0.00  0.00     0.007 A 
ATOM      9  C   UNL d   1     -51.259  26.591  35.559  0.00  0.00     0.019 A 
BRANCH   7  10
ATOM     10  C   UNL d   1     -51.422  26.578  37.741  0.00  0.00     0.300 C 
ATOM     11  O   UNL d   1     -51.454  27.203  38.276  0.00  0.00    -0.259 OA
BRANCH  10  12
ATOM     12  O   UNL d   1     -51.681  25.834  37.961  0.00  0.00    -0.271 OA
BRANCH  12  13
ATOM     13  C   UNL d   1     -52.255  25.753  38.549  0.00  0.00     0.126 C 
ATOM     14  C   UNL d   1     -52.509  25.000  38.777  0.00  0.00     0.029 C 
ENDBRANCH  12  13
ENDBRANCH  10  12
ENDBRANCH   7  10
ENDBRANCH   2   4
BRANCH   1  15
ATOM     15  C   UNL d   1     -51.085  26.051  34.206  0.00  0.00     0.065 C 
BRANCH  15  16
ATOM     16  C   UNL d   1     -51.522  25.753  33.573  0.00  0.00     0.030 C 
BRANCH  16  17
ATOM     17  C   UNL d   1     -51.658  24.945  33.509  0.00  0.00     0.100 A 
ATOM     18  O   UNL d   1     -52.399  24.570  33.465  0.00  0.00    -0.307 OA
ATOM     19  C   UNL d   1     -52.276  23.764  33.407  0.00  0.00     0.100 A 
ATOM     20  C   UNL d   1     -51.462  23.625  33.414  0.00  0.00     0.027 A 
ATOM     21  C   UNL d   1     -51.085  24.357  33.478  0.00  0.00     0.027 A 
BRANCH  19  22
ATOM     22  C   UNL d   1     -52.865  23.193  33.351  0.00  0.00     0.025 C 
ATOM     23  C   UNL d   1     -53.652  23.397  33.508  0.00  0.00     0.002 C 
ENDBRANCH  19  22
ENDBRANCH  16  17
ENDBRANCH  15  16
ENDBRANCH   1  15
TORSDOF 8
ENDMDL
MODEL 2
REMARK VINA RESULT:      51.5      4.022      5.668
REMARK  8 active torsions:
REMARK  status: ('A' for Active; 'I' for Inactive)
REMARK    1  A    between atoms: C_2  and  C_8 
REMARK    2  A    between atoms: O_17  and  C_2 
REMARK    3  A    between atoms: C_15  and  C_3 
REMARK    4  A    between atoms: C_20  and  C_4 
REMARK    5  A    between atoms: C_5  and  C_16 
REMARK       I    between atoms: N_9  and  C_5 
REMARK    6  A    between atoms: C_14  and  N_9 
REMARK    7  A    between atoms: C_16  and  C_15 
REMARK    8  A    between atoms: C_21  and  O_17 
ROOT
ATOM      1  C   UNL d   1     -48.482  28.645  35.729  0.00  0.00     0.279 C 
ATOM      2  N   UNL d   1     -48.023  29.226  36.074  0.00  0.00    -0.208 NA
ATOM      3  O   UNL d   1     -48.670  27.955  36.151  0.00  0.00    -0.265 OA
ENDROOT
BRANCH   2   4
ATOM      4  C   UNL d   1     -47.836  29.912  35.653  0.00  0.00     0.085 A 
ATOM      5  C   UNL d   1     -48.410  30.275  35.189  0.00  0.00     0.019 A 
ATOM      6  C   UNL d   1     -48.223  30.958  34.771  0.00  0.00     0.007 A 
ATOM      7  C   UNL d   1     -47.462  31.275  34.819  0.00  0.00     0.064 A 
ATOM      8  C   UNL d   1     -46.888  30.912  35.282  0.00  0.00     0.007 A 
ATOM      9  C   UNL d   1     -47.083  30.220  35.704  0.00  0.00     0.019 A 
BRANCH   7  10
ATOM     10  C   UNL d   1     -47.275  31.964  34.395  0.00  0.00     0.300 C 
ATOM     11  O   UNL d   1     -46.549  32.026  34.014  0.00  0.00    -0.259 OA
BRANCH  10  12
ATOM     12  O   UNL d   1     -47.813  32.580  34.359  0.00  0.00    -0.271 OA
BRANCH  12  13
ATOM     13  C   UNL d   1     -47.946  32.971  33.644  0.00  0.00     0.126 C 
ATOM     14  C   UNL d   1     -48.585  33.491  33.571  0.00  0.00     0.029 C 
ENDBRANCH  12  13
ENDBRANCH  10  12
ENDBRANCH   7  10
ENDBRANCH   2   4
BRANCH   1  15
ATOM     15  C   UNL d   1     -48.761  28.743  34.958  0.00  0.00     0.065 C 
BRANCH  15  16
ATOM     16  C   UNL d   1     -48.676  28.136  34.405  0.00  0.00     0.030 C 
BRANCH  16  17
ATOM     17  C   UNL d   1     -49.335  27.840  34.013  0.00  0.00     0.100 A 
ATOM     18  O   UNL d   1     -49.547  27.038  33.937  0.00  0.00    -0.307 OA
ATOM     19  C   UNL d   1     -50.240  26.996  33.505  0.00  0.00     0.100 A 
ATOM     20  C   UNL d   1     -50.468  27.765  33.307  0.00  0.00     0.027 A 
ATOM     21  C   UNL d   1     -49.907  28.281  33.622  0.00  0.00     0.027 A 
BRANCH  19  22
ATOM     22  C   UNL d   1     -50.637  26.305  33.306  0.00  0.00     0.025 C 
ATOM     23  C   UNL d   1     -51.459  26.261  33.393  0.00  0.00     0.002 C 
ENDBRANCH  19  22
ENDBRANCH  16  17
ENDBRANCH  15  16
ENDBRANCH   1  15
TORSDOF 8
ENDMDL
MODEL 3
REMARK VINA RESULT:      53.2      4.141      6.573
REMARK  8 active torsions:
REMARK  status: ('A' for Active; 'I' for Inactive)
REMARK    1  A    between atoms: C_2  and  C_8 
REMARK    2  A    between atoms: O_17  and  C_2 
REMARK    3  A    between atoms: C_15  and  C_3 
REMARK    4  A    between atoms: C_20  and  C_4 
REMARK    5  A    between atoms: C_5  and  C_16 
REMARK       I    between atoms: N_9  and  C_5 
REMARK    6  A    between atoms: C_14  and  N_9 
REMARK    7  A    between atoms: C_16  and  C_15 
REMARK    8  A    between atoms: C_21  and  O_17 
ROOT
ATOM      1  C   UNL d   1     -47.437  29.813  36.170  0.00  0.00     0.279 C 
ATOM      2  N   UNL d   1     -47.642  29.024  36.227  0.00  0.00    -0.208 NA
ATOM      3  O   UNL d   1     -46.948  30.159  36.745  0.00  0.00    -0.265 OA
ENDROOT
BRANCH   2   4
ATOM      4  C   UNL d   1     -48.129  28.680  35.655  0.00  0.00     0.085 A 
ATOM      5  C   UNL d   1     -47.850  28.582  34.887  0.00  0.00     0.019 A 
ATOM      6  C   UNL d   1     -48.335  28.239  34.319  0.00  0.00     0.007 A 
ATOM      7  C   UNL d   1     -49.098  27.997  34.521  0.00  0.00     0.064 A 
ATOM      8  C   UNL d   1     -49.378  28.094  35.288  0.00  0.00     0.007 A 
ATOM      9  C   UNL d   1     -48.882  28.442  35.860  0.00  0.00     0.019 A 
BRANCH   7  10
ATOM     10  C   UNL d   1     -49.587  27.651  33.945  0.00  0.00     0.300 C 
ATOM     11  O   UNL d   1     -49.871  28.108  33.322  0.00  0.00    -0.259 OA
BRANCH  10  12
ATOM     12  O   UNL d   1     -49.785  26.859  33.999  0.00  0.00    -0.271 OA
BRANCH  12  13
ATOM     13  C   UNL d   1     -49.778  26.384  33.323  0.00  0.00     0.126 C 
ATOM     14  C   UNL d   1     -50.218  25.684  33.306  0.00  0.00     0.029 C 
ENDBRANCH  12  13
ENDBRANCH  10  12
ENDBRANCH   7  10
ENDBRANCH   2   4
BRANCH   1  15
ATOM     15  C   UNL d   1     -47.717  30.268  35.541  0.00  0.00     0.065 C 
BRANCH  15  16
ATOM     16  C   UNL d   1     -47.723  31.092  35.594  0.00  0.00     0.030 C 
BRANCH  16  17
ATOM     17  C   UNL d   1     -47.886  31.548  34.930  0.00  0.00     0.100 A 
ATOM     18  O   UNL d   1     -47.539  32.279  34.735  0.00  0.00    -0.307 OA
ATOM     19  C   UNL d   1     -47.862  32.535  34.029  0.00  0.00     0.100 A 
ATOM     20  C   UNL d   1     -48.410  31.972  33.776  0.00  0.00     0.027 A 
ATOM     21  C   UNL d   1     -48.421  31.365  34.334  0.00  0.00     0.027 A 
BRANCH  19  22
ATOM     22  C   UNL d   1     -47.670  33.235  33.642  0.00  0.00     0.025 C 
ATOM     23  C   UNL d   1     -46.918  33.329  33.309  0.00  0.00     0.002 C 
ENDBRANCH  19  22
ENDBRANCH  16  17
ENDBRANCH  15  16
ENDBRANCH   1  15
TORSDOF 8
ENDMDL
