MODEL 1
REMARK VINA RESULT:      56.2      0.000      0.000
REMARK  8 active torsions:
REMARK  status: ('A' for Active; 'I' for Inactive)
REMARK    1  A    between atoms: C_7  and  N_1 
REMARK    2  A    between atoms: C_23  and  C_5 
REMARK    3  A    between atoms: C_22  and  C_6 
REMARK    4  A    between atoms: C_8  and  C_7 
REMARK       I    between atoms: N_10  and  C_8 
REMARK    5  A    between atoms: C_9  and  C_13 
REMARK    6  A    between atoms: O_19  and  C_9 
REMARK    7  A    between atoms: C_18  and  N_10 
REMARK    8  A    between atoms: C_24  and  O_19 
ROOT
ATOM      1  C   UNL d   1      13.803  14.965  -3.115  0.00  0.00     0.297 C 
ATOM      2  N   UNL d   1      14.379  15.511  -2.879  0.00  0.00    -0.207 NA
ATOM      3  O   UNL d   1      13.478  15.015  -3.872  0.00  0.00    -0.264 OA
ENDROOT
BRANCH   1   4
ATOM      4  C   UNL d   1      13.554  14.376  -2.608  0.00  0.00     0.148 C 
BRANCH   4   5
ATOM      5  N   UNL d   1      13.640  13.583  -2.821  0.00  0.00    -0.235 N 
ATOM      6  C   UNL d   1      13.245  13.291  -3.488  0.00  0.00     0.273 A 
ATOM      7  C   UNL d   1      13.330  12.506  -3.699  0.00  0.00     0.086 A 
ATOM      8  O   UNL d   1      12.769  13.795  -3.939  0.00  0.00    -0.266 OA
ATOM      9  S   UNL d   1      13.800  12.000  -3.259  0.00  0.00    -0.077 SA
ATOM     10  C   UNL d   1      14.192  12.285  -2.597  0.00  0.00     0.086 A 
ATOM     11  C   UNL d   1      14.117  13.075  -2.371  0.00  0.00     0.273 A 
ATOM     12  O   UNL d   1      14.509  13.364  -1.708  0.00  0.00    -0.266 OA
BRANCH   7  13
ATOM     13  C   UNL d   1      12.933  12.215  -4.369  0.00  0.00     0.011 C 
ATOM     14  C   UNL d   1      13.365  11.919  -5.007  0.00  0.00     0.001 C 
ENDBRANCH   7  13
BRANCH  10  15
ATOM     15  C   UNL d   1      14.667  11.781  -2.149  0.00  0.00     0.011 C 
ATOM     16  C   UNL d   1      15.086  12.079  -1.503  0.00  0.00     0.001 C 
ENDBRANCH  10  15
ENDBRANCH   4   5
ENDBRANCH   1   4
BRANCH   2  17
ATOM     17  C   UNL d   1      14.626  16.105  -3.398  0.00  0.00     0.085 A 
ATOM     18  C   UNL d   1      14.932  15.906  -4.138  0.00  0.00     0.019 A 
ATOM     19  C   UNL d   1      15.174  16.507  -4.642  0.00  0.00     0.007 A 
ATOM     20  C   UNL d   1      15.115  17.294  -4.424  0.00  0.00     0.064 A 
ATOM     21  C   UNL d   1      14.809  17.489  -3.684  0.00  0.00     0.007 A 
ATOM     22  C   UNL d   1      14.561  16.895  -3.165  0.00  0.00     0.019 A 
BRANCH  20  23
ATOM     23  C   UNL d   1      15.362  17.892  -4.940  0.00  0.00     0.300 C 
ATOM     24  O   UNL d   1      16.150  17.923  -5.184  0.00  0.00    -0.259 OA
BRANCH  23  25
ATOM     25  O   UNL d   1      14.831  18.449  -5.208  0.00  0.00    -0.271 OA
BRANCH  25  26
ATOM     26  C   UNL d   1      15.036  18.980  -5.801  0.00  0.00     0.126 C 
ATOM     27  C   UNL d   1      14.468  19.414  -6.192  0.00  0.00     0.029 C 
ENDBRANCH  25  26
ENDBRANCH  23  25
ENDBRANCH  20  23
ENDBRANCH   2  17
TORSDOF 8
ENDMDL
MODEL 2
REMARK VINA RESULT:      56.5      1.122      2.205
REMARK  8 active torsions:
REMARK  status: ('A' for Active; 'I' for Inactive)
REMARK    1  A    between atoms: C_7  and  N_1 
REMARK    2  A    between atoms: C_23  and  C_5 
REMARK    3  A    between atoms: C_22  and  C_6 
REMARK    4  A    between atoms: C_8  and  C_7 
REMARK       I    between atoms: N_10  and  C_8 
REMARK    5  A    between atoms: C_9  and  C_13 
REMARK    6  A    between atoms: O_19  and  C_9 
REMARK    7  A    between atoms: C_18  and  N_10 
REMARK    8  A    between atoms: C_24  and  O_19 
ROOT
ATOM      1  C   UNL d   1      14.551  14.689  -1.969  0.00  0.00     0.297 C 
ATOM      2  N   UNL d   1      14.332  15.484  -2.046  0.00  0.00    -0.207 NA
ATOM      3  O   UNL d   1      15.007  14.331  -2.555  0.00  0.00    -0.264 OA
ENDROOT
BRANCH   1   4
ATOM      4  C   UNL d   1      14.319  14.255  -1.317  0.00  0.00     0.148 C 
BRANCH   4   5
ATOM      5  N   UNL d   1      14.342  13.431  -1.340  0.00  0.00    -0.235 N 
ATOM      6  C   UNL d   1      14.728  13.013  -0.737  0.00  0.00     0.273 A 
ATOM      7  C   UNL d   1      14.751  12.197  -0.759  0.00  0.00     0.086 A 
ATOM      8  O   UNL d   1      15.087  13.425  -0.115  0.00  0.00    -0.266 OA
ATOM      9  S   UNL d   1      14.398  11.782  -1.370  0.00  0.00    -0.077 SA
ATOM     10  C   UNL d   1      14.015  12.191  -1.969  0.00  0.00     0.086 A 
ATOM     11  C   UNL d   1      13.983  13.015  -1.961  0.00  0.00     0.273 A 
ATOM     12  O   UNL d   1      13.600  13.428  -2.561  0.00  0.00    -0.266 OA
BRANCH   7  13
ATOM     13  C   UNL d   1      15.138  11.780  -0.152  0.00  0.00     0.011 C 
ATOM     14  C   UNL d   1      15.942  11.904  -0.015  0.00  0.00     0.001 C 
ENDBRANCH   7  13
BRANCH  10  15
ATOM     15  C   UNL d   1      13.658  11.779  -2.588  0.00  0.00     0.011 C 
ATOM     16  C   UNL d   1      13.811  11.998  -3.368  0.00  0.00     0.001 C 
ENDBRANCH  10  15
ENDBRANCH   4   5
ENDBRANCH   1   4
BRANCH   2  17
ATOM     17  C   UNL d   1      14.571  15.917  -2.709  0.00  0.00     0.085 A 
ATOM     18  C   UNL d   1      15.273  16.351  -2.688  0.00  0.00     0.019 A 
ATOM     19  C   UNL d   1      15.496  16.776  -3.354  0.00  0.00     0.007 A 
ATOM     20  C   UNL d   1      15.037  16.777  -4.032  0.00  0.00     0.064 A 
ATOM     21  C   UNL d   1      14.336  16.342  -4.049  0.00  0.00     0.007 A 
ATOM     22  C   UNL d   1      14.098  15.909  -3.386  0.00  0.00     0.019 A 
BRANCH  20  23
ATOM     23  C   UNL d   1      15.271  17.209  -4.698  0.00  0.00     0.300 C 
ATOM     24  O   UNL d   1      15.746  16.852  -5.270  0.00  0.00    -0.259 OA
BRANCH  23  25
ATOM     25  O   UNL d   1      15.036  17.984  -4.789  0.00  0.00    -0.271 OA
BRANCH  25  26
ATOM     26  C   UNL d   1      14.845  18.284  -5.530  0.00  0.00     0.126 C 
ATOM     27  C   UNL d   1      14.415  18.972  -5.607  0.00  0.00     0.029 C 
ENDBRANCH  25  26
ENDBRANCH  23  25
ENDBRANCH  20  23
ENDBRANCH   2  17
TORSDOF 8
ENDMDL
MODEL 3
REMARK VINA RESULT:      56.6      1.196      1.601
REMARK  8 active torsions:
REMARK  status: ('A' for Active; 'I' for Inactive)
REMARK    1  A    between atoms: C_7  and  N_1 
REMARK    2  A    between atoms: C_23  and  C_5 
REMARK    3  A    between atoms: C_22  and  C_6 
REMARK    4  A    between atoms: C_8  and  C_7 
REMARK       I    between atoms: N_10  and  C_8 
REMARK    5  A    between atoms: C_9  and  C_13 
REMARK    6  A    between atoms: O_19  and  C_9 
REMARK    7  A    between atoms: C_18  and  N_10 
REMARK    8  A    between atoms: C_24  and  O_19 
ROOT
ATOM      1  C   UNL d   1      14.683  14.773  -1.829  0.00  0.00     0.297 C 
ATOM      2  N   UNL d   1      14.230  15.416  -2.087  0.00  0.00    -0.207 NA
ATOM      3  O   UNL d   1      15.404  14.607  -2.194  0.00  0.00    -0.264 OA
ENDROOT
BRANCH   1   4
ATOM      4  C   UNL d   1      14.424  14.300  -1.216  0.00  0.00     0.148 C 
BRANCH   4   5
ATOM      5  N   UNL d   1      14.480  13.479  -1.275  0.00  0.00    -0.235 N 
ATOM      6  C   UNL d   1      14.170  13.092  -1.938  0.00  0.00     0.273 A 
ATOM      7  C   UNL d   1      14.225  12.279  -1.996  0.00  0.00     0.086 A 
ATOM      8  O   UNL d   1      13.806  13.529  -2.538  0.00  0.00    -0.266 OA
ATOM      9  S   UNL d   1      14.584  11.837  -1.407  0.00  0.00    -0.077 SA
ATOM     10  C   UNL d   1      14.893  12.217  -0.749  0.00  0.00     0.086 A 
ATOM     11  C   UNL d   1      14.845  13.037  -0.675  0.00  0.00     0.273 A 
ATOM     12  O   UNL d   1      15.153  13.421  -0.016  0.00  0.00    -0.266 OA
BRANCH   7  13
ATOM     13  C   UNL d   1      13.913  11.891  -2.663  0.00  0.00     0.011 C 
ATOM     14  C   UNL d   1      13.097  11.798  -2.742  0.00  0.00     0.001 C 
ENDBRANCH   7  13
BRANCH  10  15
ATOM     15  C   UNL d   1      15.256  11.779  -0.151  0.00  0.00     0.011 C 
ATOM     16  C   UNL d   1      16.065  11.865  -0.014  0.00  0.00     0.001 C 
ENDBRANCH  10  15
ENDBRANCH   4   5
ENDBRANCH   1   4
BRANCH   2  17
ATOM     17  C   UNL d   1      14.499  15.891  -2.708  0.00  0.00     0.085 A 
ATOM     18  C   UNL d   1      15.130  16.409  -2.589  0.00  0.00     0.019 A 
ATOM     19  C   UNL d   1      15.385  16.875  -3.216  0.00  0.00     0.007 A 
ATOM     20  C   UNL d   1      15.027  16.832  -3.950  0.00  0.00     0.064 A 
ATOM     21  C   UNL d   1      14.396  16.312  -4.066  0.00  0.00     0.007 A 
ATOM     22  C   UNL d   1      14.128  15.837  -3.445  0.00  0.00     0.019 A 
BRANCH  20  23
ATOM     23  C   UNL d   1      15.292  17.305  -4.576  0.00  0.00     0.300 C 
ATOM     24  O   UNL d   1      16.101  17.436  -4.673  0.00  0.00    -0.259 OA
BRANCH  23  25
ATOM     25  O   UNL d   1      14.759  17.640  -5.093  0.00  0.00    -0.271 OA
BRANCH  25  26
ATOM     26  C   UNL d   1      14.957  18.305  -5.534  0.00  0.00     0.126 C 
ATOM     27  C   UNL d   1      14.618  19.029  -5.379  0.00  0.00     0.029 C 
ENDBRANCH  25  26
ENDBRANCH  23  25
ENDBRANCH  20  23
ENDBRANCH   2  17
TORSDOF 8
ENDMDL
MODEL 4
REMARK VINA RESULT:      56.9      0.934      1.905
REMARK  8 active torsions:
REMARK  status: ('A' for Active; 'I' for Inactive)
REMARK    1  A    between atoms: C_7  and  N_1 
REMARK    2  A    between atoms: C_23  and  C_5 
REMARK    3  A    between atoms: C_22  and  C_6 
REMARK    4  A    between atoms: C_8  and  C_7 
REMARK       I    between atoms: N_10  and  C_8 
REMARK    5  A    between atoms: C_9  and  C_13 
REMARK    6  A    between atoms: O_19  and  C_9 
REMARK    7  A    between atoms: C_18  and  N_10 
REMARK    8  A    between atoms: C_24  and  O_19 
ROOT
ATOM      1  C   UNL d   1      13.276  14.696  -3.735  0.00  0.00     0.297 C 
ATOM      2  N   UNL d   1      13.199  15.076  -4.467  0.00  0.00    -0.207 NA
ATOM      3  O   UNL d   1      13.799  14.996  -3.172  0.00  0.00    -0.264 OA
ENDROOT
BRANCH   1   4
ATOM      4  C   UNL d   1      12.840  14.027  -3.565  0.00  0.00     0.148 C 
BRANCH   4   5
ATOM      5  N   UNL d   1      13.172  13.279  -3.668  0.00  0.00    -0.235 N 
ATOM      6  C   UNL d   1      13.542  12.901  -3.031  0.00  0.00     0.273 A 
ATOM      7  C   UNL d   1      13.871  12.160  -3.134  0.00  0.00     0.086 A 
ATOM      8  O   UNL d   1      13.578  13.275  -2.294  0.00  0.00    -0.266 OA
ATOM      9  S   UNL d   1      13.841  11.783  -3.860  0.00  0.00    -0.077 SA
ATOM     10  C   UNL d   1      13.475  12.153  -4.494  0.00  0.00     0.086 A 
ATOM     11  C   UNL d   1      13.139  12.902  -4.406  0.00  0.00     0.273 A 
ATOM     12  O   UNL d   1      12.771  13.276  -5.040  0.00  0.00    -0.266 OA
BRANCH   7  13
ATOM     13  C   UNL d   1      14.242  11.782  -2.493  0.00  0.00     0.011 C 
ATOM     14  C   UNL d   1      13.884  11.782  -1.750  0.00  0.00     0.001 C 
ENDBRANCH   7  13
BRANCH  10  15
ATOM     15  C   UNL d   1      13.441  11.780  -5.228  0.00  0.00     0.011 C 
ATOM     16  C   UNL d   1      13.219  12.209  -5.896  0.00  0.00     0.001 C 
ENDBRANCH  10  15
ENDBRANCH   4   5
ENDBRANCH   1   4
BRANCH   2  17
ATOM     17  C   UNL d   1      13.643  15.752  -4.633  0.00  0.00     0.085 A 
ATOM     18  C   UNL d   1      13.742  16.000  -5.414  0.00  0.00     0.019 A 
ATOM     19  C   UNL d   1      14.187  16.675  -5.562  0.00  0.00     0.007 A 
ATOM     20  C   UNL d   1      14.530  17.100  -4.953  0.00  0.00     0.064 A 
ATOM     21  C   UNL d   1      14.428  16.850  -4.174  0.00  0.00     0.007 A 
ATOM     22  C   UNL d   1      13.984  16.173  -4.008  0.00  0.00     0.019 A 
BRANCH  20  23
ATOM     23  C   UNL d   1      14.976  17.779  -5.114  0.00  0.00     0.300 C 
ATOM     24  O   UNL d   1      15.784  17.710  -5.265  0.00  0.00    -0.259 OA
BRANCH  23  25
ATOM     25  O   UNL d   1      14.621  18.512  -5.124  0.00  0.00    -0.271 OA
BRANCH  25  26
ATOM     26  C   UNL d   1      14.832  19.078  -5.682  0.00  0.00     0.126 C 
ATOM     27  C   UNL d   1      14.343  19.708  -5.847  0.00  0.00     0.029 C 
ENDBRANCH  25  26
ENDBRANCH  23  25
ENDBRANCH  20  23
ENDBRANCH   2  17
TORSDOF 8
ENDMDL
MODEL 5
REMARK VINA RESULT:      57.0      1.941      2.859
REMARK  8 active torsions:
REMARK  status: ('A' for Active; 'I' for Inactive)
REMARK    1  A    between atoms: C_7  and  N_1 
REMARK    2  A    between atoms: C_23  and  C_5 
REMARK    3  A    between atoms: C_22  and  C_6 
REMARK    4  A    between atoms: C_8  and  C_7 
REMARK       I    between atoms: N_10  and  C_8 
REMARK    5  A    between atoms: C_9  and  C_13 
REMARK    6  A    between atoms: O_19  and  C_9 
REMARK    7  A    between atoms: C_18  and  N_10 
REMARK    8  A    between atoms: C_24  and  O_19 
ROOT
ATOM      1  C   UNL d   1      13.446  14.677  -3.752  0.00  0.00     0.297 C 
ATOM      2  N   UNL d   1      14.172  15.072  -3.788  0.00  0.00    -0.207 NA
ATOM      3  O   UNL d   1      12.998  14.706  -3.059  0.00  0.00    -0.264 OA
ENDROOT
BRANCH   1   4
ATOM      4  C   UNL d   1      13.166  14.259  -4.395  0.00  0.00     0.148 C 
BRANCH   4   5
ATOM      5  N   UNL d   1      13.173  13.434  -4.386  0.00  0.00    -0.235 N 
ATOM      6  C   UNL d   1      13.270  13.016  -5.095  0.00  0.00     0.273 A 
ATOM      7  C   UNL d   1      13.277  12.199  -5.087  0.00  0.00     0.086 A 
ATOM      8  O   UNL d   1      13.359  13.427  -5.807  0.00  0.00    -0.266 OA
ATOM      9  S   UNL d   1      13.189  11.784  -4.387  0.00  0.00    -0.077 SA
ATOM     10  C   UNL d   1      13.093  12.194  -3.683  0.00  0.00     0.086 A 
ATOM     11  C   UNL d   1      13.084  13.019  -3.674  0.00  0.00     0.273 A 
ATOM     12  O   UNL d   1      12.987  13.432  -2.969  0.00  0.00    -0.266 OA
BRANCH   7  13
ATOM     13  C   UNL d   1      13.374  11.781  -5.800  0.00  0.00     0.011 C 
ATOM     14  C   UNL d   1      14.043  11.910  -6.265  0.00  0.00     0.001 C 
ENDBRANCH   7  13
BRANCH  10  15
ATOM     15  C   UNL d   1      13.004  11.782  -2.974  0.00  0.00     0.011 C 
ATOM     16  C   UNL d   1      13.585  11.840  -2.391  0.00  0.00     0.001 C 
ENDBRANCH  10  15
ENDBRANCH   4   5
ENDBRANCH   1   4
BRANCH   2  17
ATOM     17  C   UNL d   1      14.449  15.494  -3.133  0.00  0.00     0.085 A 
ATOM     18  C   UNL d   1      14.713  16.270  -3.223  0.00  0.00     0.019 A 
ATOM     19  C   UNL d   1      14.985  16.676  -2.563  0.00  0.00     0.007 A 
ATOM     20  C   UNL d   1      14.998  16.325  -1.824  0.00  0.00     0.064 A 
ATOM     21  C   UNL d   1      14.733  15.549  -1.737  0.00  0.00     0.007 A 
ATOM     22  C   UNL d   1      14.456  15.127  -2.392  0.00  0.00     0.019 A 
BRANCH  20  23
ATOM     23  C   UNL d   1      15.274  16.743  -1.164  0.00  0.00     0.300 C 
ATOM     24  O   UNL d   1      15.359  17.563  -1.207  0.00  0.00    -0.259 OA
BRANCH  23  25
ATOM     25  O   UNL d   1      15.460  16.350  -0.476  0.00  0.00    -0.271 OA
BRANCH  25  26
ATOM     26  C   UNL d   1      15.212  15.576  -0.348  0.00  0.00     0.126 C 
ATOM     27  C   UNL d   1      15.747  14.963  -0.315  0.00  0.00     0.029 C 
ENDBRANCH  25  26
ENDBRANCH  23  25
ENDBRANCH  20  23
ENDBRANCH   2  17
TORSDOF 8
ENDMDL
