MODEL 1
REMARK VINA RESULT:      26.5      0.000      0.000
REMARK  3 active torsions:
REMARK  status: ('A' for Active; 'I' for Inactive)
REMARK    1  A    between atoms: S_9  and  C_3 
REMARK    2  A    between atoms: C_15  and  S_9 
REMARK    3  A    between atoms: C_11  and  C_15 
ROOT
ATOM      1  N   UNL d   1      60.166  49.706  51.002  0.00  0.00    -0.263 N 
ATOM      2  C   UNL d   1      60.926  49.705  50.660  0.00  0.00     0.202 A 
ATOM      3  C   UNL d   1      59.618  49.706  50.375  0.00  0.00     0.202 A 
ATOM      4  N   UNL d   1      60.848  49.704  49.841  0.00  0.00    -0.121 NA
ATOM      5  S   UNL d   1      61.481  49.705  51.289  0.00  0.00    -0.047 SA
ATOM      6  N   UNL d   1      60.033  49.705  49.665  0.00  0.00    -0.121 NA
ATOM      7  C   UNL d   1      60.251  49.706  51.823  0.00  0.00     0.074 A 
ATOM      8  C   UNL d   1      61.057  49.705  52.005  0.00  0.00     0.049 A 
ATOM      9  C   UNL d   1      59.692  49.707  52.428  0.00  0.00     0.018 A 
ATOM     10  C   UNL d   1      61.296  49.706  52.781  0.00  0.00     0.008 A 
ATOM     11  C   UNL d   1      59.941  49.707  53.215  0.00  0.00     0.002 A 
ATOM     12  C   UNL d   1      60.748  49.706  53.388  0.00  0.00     0.001 A 
ENDROOT
BRANCH   3  13
ATOM     13  S   UNL d   1      58.805  49.706  50.458  0.00  0.00    -0.047 SA
BRANCH  13  14
ATOM     14  C   UNL d   1      58.324  49.658  49.795  0.00  0.00     0.045 C 
BRANCH  14  15
ATOM     15  C   UNL d   1      57.502  49.624  49.881  0.00  0.00     0.036 A 
ATOM     16  S   UNL d   1      57.088  49.697  50.594  0.00  0.00    -0.086 SA
ATOM     17  C   UNL d   1      56.288  49.630  50.423  0.00  0.00     0.035 A 
ATOM     18  C   UNL d   1      56.199  49.516  49.612  0.00  0.00     0.007 A 
ATOM     19  C   UNL d   1      56.956  49.514  49.282  0.00  0.00     0.007 A 
ENDBRANCH  14  15
ENDBRANCH  13  14
ENDBRANCH   3  13
TORSDOF 3
ENDMDL
