MODEL 1
REMARK VINA RESULT:      -6.2      0.000      0.000
REMARK  2 active torsions:
REMARK  status: ('A' for Active; 'I' for Inactive)
REMARK    1  A    between atoms: C_3  and  C_1 
REMARK       I    between atoms: N_6  and  C_3 
REMARK    2  A    between atoms: C_11  and  N_6 
ROOT
ATOM      1  C   UNL d   1     -41.804-122.618 -50.856  0.00  0.00     0.121 A 
ATOM      2  C   UNL d   1     -42.413-122.254 -50.603  0.00  0.00     0.305 A 
ATOM      3  C   UNL d   1     -41.364-123.099 -50.354  0.00  0.00     0.012 A 
ATOM      4  O   UNL d   1     -42.682-122.326 -49.759  0.00  0.00    -0.273 OA
ATOM      5  C   UNL d   1     -41.564-123.205 -49.563  0.00  0.00     0.023 A 
ATOM      6  C   UNL d   1     -42.232-122.813 -49.262  0.00  0.00     0.103 A 
ATOM      7  O   UNL d   1     -42.886-121.751 -51.099  0.00  0.00    -0.259 OA
ATOM      8  C   UNL d   1     -41.123-123.681 -49.078  0.00  0.00     0.002 A 
ATOM      9  C   UNL d   1     -42.446-122.905 -48.481  0.00  0.00     0.025 A 
ATOM     10  C   UNL d   1     -41.328-123.784 -48.285  0.00  0.00     0.000 A 
ATOM     11  C   UNL d   1     -41.995-123.392 -47.984  0.00  0.00     0.002 A 
ENDROOT
BRANCH   1  12
ATOM     12  C   UNL d   1     -41.585-122.525 -51.653  0.00  0.00     0.284 C 
ATOM     13  N   UNL d   1     -41.756-123.058 -52.137  0.00  0.00    -0.208 NA
ATOM     14  O   UNL d   1     -41.186-121.848 -51.898  0.00  0.00    -0.265 OA
BRANCH  13  15
ATOM     15  C   UNL d   1     -41.565-123.038 -52.982  0.00  0.00     0.087 A 
ATOM     16  C   UNL d   1     -41.608-122.382 -53.469  0.00  0.00     0.049 A 
ATOM     17  C   UNL d   1     -41.413-122.425 -54.267  0.00  0.00     0.142 A 
ATOM     18  F   UNL d   1     -41.457-121.768 -54.749  0.00  0.00    -0.204 F 
ATOM     19  C   UNL d   1     -41.166-123.159 -54.585  0.00  0.00     0.030 A 
ATOM     20  C   UNL d   1     -41.124-123.817 -54.090  0.00  0.00     0.004 A 
ATOM     21  C   UNL d   1     -41.317-123.775 -53.301  0.00  0.00     0.019 A 
ENDBRANCH  13  15
ENDBRANCH   1  12
TORSDOF 2
ENDMDL
MODEL 2
REMARK VINA RESULT:      -4.7      1.112      1.717
REMARK  2 active torsions:
REMARK  status: ('A' for Active; 'I' for Inactive)
REMARK    1  A    between atoms: C_3  and  C_1 
REMARK       I    between atoms: N_6  and  C_3 
REMARK    2  A    between atoms: C_11  and  N_6 
ROOT
ATOM      1  C   UNL d   1     -41.764-122.655 -51.754  0.00  0.00     0.121 A 
ATOM      2  C   UNL d   1     -41.503-123.353 -51.632  0.00  0.00     0.305 A 
ATOM      3  C   UNL d   1     -42.120-122.229 -51.147  0.00  0.00     0.012 A 
ATOM      4  O   UNL d   1     -41.568-123.742 -50.836  0.00  0.00    -0.273 OA
ATOM      5  C   UNL d   1     -42.208-122.537 -50.390  0.00  0.00     0.023 A 
ATOM      6  C   UNL d   1     -41.928-123.303 -50.232  0.00  0.00     0.103 A 
ATOM      7  O   UNL d   1     -41.131-123.816 -52.240  0.00  0.00    -0.259 OA
ATOM      8  C   UNL d   1     -42.560-122.107 -49.800  0.00  0.00     0.002 A 
ATOM      9  C   UNL d   1     -42.007-123.624 -49.488  0.00  0.00     0.025 A 
ATOM     10  C   UNL d   1     -42.647-122.419 -49.041  0.00  0.00     0.000 A 
ATOM     11  C   UNL d   1     -42.367-123.186 -48.883  0.00  0.00     0.002 A 
ENDROOT
BRANCH   1  12
ATOM     12  C   UNL d   1     -41.684-122.327 -52.513  0.00  0.00     0.284 C 
ATOM     13  N   UNL d   1     -42.118-122.574 -53.059  0.00  0.00    -0.208 NA
ATOM     14  O   UNL d   1     -41.129-121.736 -52.655  0.00  0.00    -0.265 OA
BRANCH  13  15
ATOM     15  C   UNL d   1     -42.099-122.287 -53.876  0.00  0.00     0.087 A 
ATOM     16  C   UNL d   1     -41.676-122.620 -54.493  0.00  0.00     0.049 A 
ATOM     17  C   UNL d   1     -41.697-122.300 -55.251  0.00  0.00     0.142 A 
ATOM     18  F   UNL d   1     -41.274-122.636 -55.863  0.00  0.00    -0.204 F 
ATOM     19  C   UNL d   1     -42.163-121.619 -55.390  0.00  0.00     0.030 A 
ATOM     20  C   UNL d   1     -42.587-121.287 -54.766  0.00  0.00     0.004 A 
ATOM     21  C   UNL d   1     -42.566-121.603 -54.016  0.00  0.00     0.019 A 
ENDBRANCH  13  15
ENDBRANCH   1  12
TORSDOF 2
ENDMDL
MODEL 3
REMARK VINA RESULT:      -4.5      1.682      4.581
REMARK  2 active torsions:
REMARK  status: ('A' for Active; 'I' for Inactive)
REMARK    1  A    between atoms: C_3  and  C_1 
REMARK       I    between atoms: N_6  and  C_3 
REMARK    2  A    between atoms: C_11  and  N_6 
ROOT
ATOM      1  C   UNL d   1     -41.672-122.532 -52.686  0.00  0.00     0.121 A 
ATOM      2  C   UNL d   1     -41.423-123.181 -52.979  0.00  0.00     0.305 A 
ATOM      3  C   UNL d   1     -41.958-121.934 -53.173  0.00  0.00     0.012 A 
ATOM      4  O   UNL d   1     -41.429-123.329 -53.855  0.00  0.00    -0.273 OA
ATOM      5  C   UNL d   1     -41.987-122.014 -53.991  0.00  0.00     0.023 A 
ATOM      6  C   UNL d   1     -41.719-122.720 -54.337  0.00  0.00     0.103 A 
ATOM      7  O   UNL d   1     -41.123-123.815 -52.499  0.00  0.00    -0.259 OA
ATOM      8  C   UNL d   1     -42.271-121.418 -54.461  0.00  0.00     0.002 A 
ATOM      9  C   UNL d   1     -41.740-122.817 -55.145  0.00  0.00     0.025 A 
ATOM     10  C   UNL d   1     -42.299-121.501 -55.282  0.00  0.00     0.000 A 
ATOM     11  C   UNL d   1     -42.031-122.208 -55.627  0.00  0.00     0.002 A 
ENDROOT
BRANCH   1  12
ATOM     12  C   UNL d   1     -41.650-122.433 -51.861  0.00  0.00     0.284 C 
ATOM     13  N   UNL d   1     -41.996-122.926 -51.431  0.00  0.00    -0.208 NA
ATOM     14  O   UNL d   1     -41.249-121.796 -51.529  0.00  0.00    -0.265 OA
BRANCH  13  15
ATOM     15  C   UNL d   1     -42.022-122.896 -50.565  0.00  0.00     0.087 A 
ATOM     16  C   UNL d   1     -42.626-122.579 -50.114  0.00  0.00     0.049 A 
ATOM     17  C   UNL d   1     -42.595-122.579 -49.292  0.00  0.00     0.142 A 
ATOM     18  F   UNL d   1     -43.200-122.262 -48.845  0.00  0.00    -0.204 F 
ATOM     19  C   UNL d   1     -41.927-122.911 -48.912  0.00  0.00     0.030 A 
ATOM     20  C   UNL d   1     -41.320-123.230 -49.371  0.00  0.00     0.004 A 
ATOM     21  C   UNL d   1     -41.352-123.230 -50.184  0.00  0.00     0.019 A 
ENDBRANCH  13  15
ENDBRANCH   1  12
TORSDOF 2
ENDMDL
