MODEL 1
REMARK VINA RESULT:      31.0      0.000      0.000
REMARK  4 active torsions:
REMARK  status: ('A' for Active; 'I' for Inactive)
REMARK    1  A    between atoms: S_2  and  C_1 
REMARK    2  A    between atoms: C_10  and  S_2 
REMARK    3  A    between atoms: N_7  and  C_4 
REMARK    4  A    between atoms: C_8  and  N_7 
ROOT
ATOM      1  C   UNL d   1      14.588  13.105  -1.607  0.00  0.00     0.187 A 
ATOM      2  N   UNL d   1      14.589  13.838  -1.227  0.00  0.00    -0.208 NA
ATOM      3  C   UNL d   1      15.050  13.773  -0.554  0.00  0.00     0.198 A 
ATOM      4  C   UNL d   1      15.051  12.590  -1.163  0.00  0.00     0.118 A 
ATOM      5  S   UNL d   1      15.336  13.006  -0.512  0.00  0.00    -0.035 SA
ATOM      6 CL   UNL d   1      15.208  11.782  -1.339  0.00  0.00    -0.073 Cl
ENDROOT
BRANCH   1   7
ATOM      7  S   UNL d   1      14.225  12.841  -2.299  0.00  0.00     0.228 S 
ATOM      8  O   UNL d   1      14.673  13.377  -2.738  0.00  0.00    -0.216 OA
ATOM      9  O   UNL d   1      13.777  12.305  -1.860  0.00  0.00    -0.216 OA
BRANCH   7  10
ATOM     10  C   UNL d   1      13.862  12.577  -2.991  0.00  0.00     0.089 A 
ATOM     11  C   UNL d   1      14.167  12.803  -3.730  0.00  0.00     0.011 A 
ATOM     12  C   UNL d   1      13.800  12.537  -4.429  0.00  0.00     0.001 A 
ATOM     13  C   UNL d   1      13.131  12.047  -4.383  0.00  0.00     0.000 A 
ATOM     14  C   UNL d   1      12.831  11.826  -3.649  0.00  0.00     0.001 A 
ATOM     15  C   UNL d   1      12.769  11.784  -5.075  0.00  0.00     0.000 C 
ATOM     16  C   UNL d   1      13.197  12.092  -2.950  0.00  0.00     0.011 A 
ENDBRANCH   7  10
ENDBRANCH   1   7
BRANCH   3  17
ATOM     17  N   UNL d   1      15.195  14.387  -0.016  0.00  0.00    -0.196 NA
BRANCH  17  18
ATOM     18  C   UNL d   1      15.218  15.166  -0.280  0.00  0.00     0.196 A 
ATOM     19  N   UNL d   1      14.644  15.650  -0.625  0.00  0.00    -0.219 NA
ATOM     20  C   UNL d   1      14.989  16.382  -0.774  0.00  0.00     0.108 A 
ATOM     21  C   UNL d   1      15.771  16.355  -0.523  0.00  0.00     0.059 A 
ATOM     22  S   UNL d   1      15.913  15.606  -0.219  0.00  0.00    -0.046 SA
ENDBRANCH  17  18
ENDBRANCH   3  17
TORSDOF 4
ENDMDL
MODEL 2
REMARK VINA RESULT:      33.0      1.409      4.243
REMARK  4 active torsions:
REMARK  status: ('A' for Active; 'I' for Inactive)
REMARK    1  A    between atoms: S_2  and  C_1 
REMARK    2  A    between atoms: C_10  and  S_2 
REMARK    3  A    between atoms: N_7  and  C_4 
REMARK    4  A    between atoms: C_8  and  N_7 
ROOT
ATOM      1  C   UNL d   1      14.390  13.092  -1.703  0.00  0.00     0.187 A 
ATOM      2  N   UNL d   1      13.876  12.957  -2.336  0.00  0.00    -0.208 NA
ATOM      3  C   UNL d   1      13.783  12.149  -2.417  0.00  0.00     0.198 A 
ATOM      4  C   UNL d   1      14.611  12.361  -1.397  0.00  0.00     0.118 A 
ATOM      5  S   UNL d   1      14.235  11.779  -1.841  0.00  0.00    -0.035 SA
ATOM      6 CL   UNL d   1      15.129  12.228  -0.748  0.00  0.00    -0.073 Cl
ENDROOT
BRANCH   1   7
ATOM      7  S   UNL d   1      14.684  13.786  -1.367  0.00  0.00     0.228 S 
ATOM      8  O   UNL d   1      14.466  13.516  -0.619  0.00  0.00    -0.216 OA
ATOM      9  O   UNL d   1      14.902  14.056  -2.116  0.00  0.00    -0.216 OA
BRANCH   7  10
ATOM     10  C   UNL d   1      14.978  14.480  -1.032  0.00  0.00     0.089 A 
ATOM     11  C   UNL d   1      14.802  15.213  -1.379  0.00  0.00     0.011 A 
ATOM     12  C   UNL d   1      15.098  15.914  -1.040  0.00  0.00     0.001 A 
ATOM     13  C   UNL d   1      15.568  15.876  -0.357  0.00  0.00     0.000 A 
ATOM     14  C   UNL d   1      15.741  15.146  -0.015  0.00  0.00     0.001 A 
ATOM     15  C   UNL d   1      15.861  16.569  -0.021  0.00  0.00     0.000 C 
ATOM     16  C   UNL d   1      15.444  14.446  -0.354  0.00  0.00     0.011 A 
ENDBRANCH   7  10
ENDBRANCH   1   7
BRANCH   3  17
ATOM     17  N   UNL d   1      13.310  11.779  -2.989  0.00  0.00    -0.196 NA
BRANCH  17  18
ATOM     18  C   UNL d   1      13.195  12.141  -3.720  0.00  0.00     0.196 A 
ATOM     19  N   UNL d   1      12.790  12.826  -3.940  0.00  0.00    -0.219 NA
ATOM     20  C   UNL d   1      12.866  12.912  -4.755  0.00  0.00     0.108 A 
ATOM     21  C   UNL d   1      13.314  12.285  -5.040  0.00  0.00     0.059 A 
ATOM     22  S   UNL d   1      13.518  11.810  -4.403  0.00  0.00    -0.046 SA
ENDBRANCH  17  18
ENDBRANCH   3  17
TORSDOF 4
ENDMDL
