MODEL 1
REMARK VINA RESULT:       3.2      0.000      0.000
REMARK  4 active torsions:
REMARK  status: ('A' for Active; 'I' for Inactive)
REMARK    1  A    between atoms: N_2  and  C_1 
REMARK    2  A    between atoms: C_3  and  C_1 
REMARK       I    between atoms: C_6  and  N_2 
REMARK       I    between atoms: N_8  and  C_6 
REMARK    3  A    between atoms: N_11  and  C_7 
REMARK    4  A    between atoms: C_9  and  N_8 
ROOT
ATOM      1  N   UNL d   1     -42.000-121.885 -52.737  0.00  0.00    -0.159 NA
ATOM      2  C   UNL d   1     -41.713-122.410 -52.170  0.00  0.00     0.370 C 
ATOM      3  N   UNL d   1     -41.994-122.370 -51.402  0.00  0.00    -0.172 NA
ATOM      4  O   UNL d   1     -41.146-122.974 -52.374  0.00  0.00    -0.243 OA
ENDROOT
BRANCH   1   5
ATOM      5  C   UNL d   1     -42.005-121.605 -53.504  0.00  0.00     0.386 A 
ATOM      6  O   UNL d   1     -42.251-122.379 -53.653  0.00  0.00    -0.283 OA
ATOM      7  C   UNL d   1     -42.370-122.469 -54.464  0.00  0.00     0.121 A 
ATOM      8  C   UNL d   1     -42.613-123.111 -54.920  0.00  0.00     0.026 A 
ATOM      9  C   UNL d   1     -42.197-121.743 -54.822  0.00  0.00     0.121 A 
ATOM     10  C   UNL d   1     -42.682-123.029 -55.734  0.00  0.00     0.002 A 
ATOM     11  C   UNL d   1     -42.509-122.303 -56.099  0.00  0.00     0.002 A 
ATOM     12  C   UNL d   1     -42.267-121.666 -55.638  0.00  0.00     0.026 A 
ATOM     13  O   UNL d   1     -41.974-121.217 -54.235  0.00  0.00    -0.283 OA
BRANCH   5  14
ATOM     14  C   UNL d   1     -41.755-120.865 -53.241  0.00  0.00     0.470 C 
ATOM     15  F   UNL d   1     -41.185-120.665 -52.633  0.00  0.00    -0.164 F 
ATOM     16  F   UNL d   1     -42.005-120.080 -53.512  0.00  0.00    -0.164 F 
ATOM     17  F   UNL d   1     -41.532-120.186 -53.006  0.00  0.00    -0.164 F 
ENDBRANCH   5  14
ENDBRANCH   1   5
BRANCH   3  18
ATOM     18  C   UNL d   1     -41.840-122.793 -50.703  0.00  0.00     0.172 A 
ATOM     19  C   UNL d   1     -42.247-122.607 -50.017  0.00  0.00     0.076 A 
ATOM     20  C   UNL d   1     -42.098-123.024 -49.320  0.00  0.00     0.153 A 
ATOM     21  N   UNL d   1     -41.529-123.635 -49.321  0.00  0.00    -0.206 NA
ATOM     22  C   UNL d   1     -41.123-123.817 -50.015  0.00  0.00     0.202 A 
ATOM     23  N   UNL d   1     -41.273-123.400 -50.709  0.00  0.00    -0.205 NA
BRANCH  20  24
ATOM     24  N   UNL d   1     -42.505-122.842 -48.626  0.00  0.00    -0.285 N 
ATOM     25  C   UNL d   1     -42.087-122.656 -47.944  0.00  0.00     0.108 A 
ATOM     26  C   UNL d   1     -42.505-122.476 -47.255  0.00  0.00     0.142 A 
ATOM     27  O   UNL d   1     -43.327-122.480 -47.246  0.00  0.00    -0.300 OA
ATOM     28  C   UNL d   1     -43.738-122.667 -47.935  0.00  0.00     0.142 A 
ATOM     29  C   UNL d   1     -43.332-122.850 -48.629  0.00  0.00     0.108 A 
ENDBRANCH  20  24
ENDBRANCH   3  18
TORSDOF 4
ENDMDL
