MODEL 1
REMARK VINA RESULT:      -8.8      0.000      0.000
REMARK  10 active torsions:
REMARK  status: ('A' for Active; 'I' for Inactive)
REMARK    1  A    between atoms: S_6  and  C_1 
REMARK    2  A    between atoms: C_12  and  N_2 
REMARK    3  A    between atoms: C_11  and  C_4 
REMARK    4  A    between atoms: C_10  and  S_6 
REMARK       I    between atoms: C_7  and  N_9 
REMARK    5  A    between atoms: C_13  and  C_7 
REMARK    6  A    between atoms: C_8  and  C_10 
REMARK    7  A    between atoms: O_18  and  C_8 
REMARK    8  A    between atoms: N_9  and  C_11 
REMARK    9  A    between atoms: C_26  and  O_18 
REMARK   10  A    between atoms: O_22  and  C_19 
ROOT
ATOM      1  C   UNL d   1      53.048  31.575  53.236  0.00  0.00     0.201 A 
ATOM      2  N   UNL d   1      53.132  32.367  53.449  0.00  0.00    -0.268 N 
ATOM      3  N   UNL d   1      52.383  31.504  52.746  0.00  0.00    -0.121 NA
ATOM      4  C   UNL d   1      52.510  32.784  53.084  0.00  0.00     0.190 A 
ATOM      5  N   UNL d   1      52.052  32.241  52.652  0.00  0.00    -0.126 NA
ENDROOT
BRANCH   4   6
ATOM      6  C   UNL d   1      52.370  33.597  53.141  0.00  0.00     0.141 C 
BRANCH   6   7
ATOM      7  N   UNL d   1      51.624  33.687  52.790  0.00  0.00    -0.203 NA
ATOM      8  C   UNL d   1      51.247  34.422  52.813  0.00  0.00     0.279 C 
ATOM      9  O   UNL d   1      51.605  35.062  53.182  0.00  0.00    -0.265 OA
BRANCH   8  10
ATOM     10  C   UNL d   1      50.504  34.504  52.462  0.00  0.00     0.058 A 
ATOM     11  C   UNL d   1      50.404  34.366  51.662  0.00  0.00     0.007 A 
ATOM     12  C   UNL d   1      49.662  34.448  51.311  0.00  0.00     0.024 A 
ATOM     13  C   UNL d   1      49.017  34.671  51.778  0.00  0.00     0.094 A 
ATOM     14  C   UNL d   1      49.118  34.809  52.578  0.00  0.00     0.024 A 
ATOM     15  C   UNL d   1      49.860  34.728  52.929  0.00  0.00     0.007 A 
BRANCH  13  16
ATOM     16  O   UNL d   1      48.275  34.753  51.427  0.00  0.00    -0.328 OA
ATOM     17  C   UNL d   1      47.846  35.441  51.540  0.00  0.00     0.181 C 
ENDBRANCH  13  16
ENDBRANCH   8  10
ENDBRANCH   6   7
ENDBRANCH   4   6
BRANCH   2  18
ATOM     18  C   UNL d   1      53.713  32.680  53.925  0.00  0.00     0.067 A 
ATOM     19  C   UNL d   1      53.600  32.737  54.738  0.00  0.00     0.018 A 
ATOM     20  C   UNL d   1      54.185  33.052  55.217  0.00  0.00     0.002 A 
ATOM     21  C   UNL d   1      54.890  33.314  54.890  0.00  0.00     0.000 A 
ATOM     22  C   UNL d   1      55.009  33.259  54.076  0.00  0.00     0.002 A 
ATOM     23  C   UNL d   1      54.418  32.941  53.592  0.00  0.00     0.018 A 
ENDBRANCH   2  18
BRANCH   1  24
ATOM     24  S   UNL d   1      53.542  30.954  53.470  0.00  0.00    -0.043 SA
BRANCH  24  25
ATOM     25  C   UNL d   1      53.304  30.169  53.370  0.00  0.00     0.096 C 
ATOM     26  C   UNL d   1      52.757  29.977  52.792  0.00  0.00     0.013 C 
BRANCH  25  27
ATOM     27  C   UNL d   1      53.615  29.572  53.852  0.00  0.00     0.306 C 
ATOM     28  O   UNL d   1      54.384  29.308  53.738  0.00  0.00    -0.258 OA
BRANCH  27  29
ATOM     29  O   UNL d   1      53.146  29.252  54.440  0.00  0.00    -0.271 OA
BRANCH  29  30
ATOM     30  C   UNL d   1      53.458  28.671  54.949  0.00  0.00     0.126 C 
ATOM     31  C   UNL d   1      53.176  28.582  55.697  0.00  0.00     0.029 C 
ENDBRANCH  29  30
ENDBRANCH  27  29
ENDBRANCH  25  27
ENDBRANCH  24  25
ENDBRANCH   1  24
TORSDOF 10
ENDMDL
MODEL 2
REMARK VINA RESULT:      -6.4      1.490      5.445
REMARK  10 active torsions:
REMARK  status: ('A' for Active; 'I' for Inactive)
REMARK    1  A    between atoms: S_6  and  C_1 
REMARK    2  A    between atoms: C_12  and  N_2 
REMARK    3  A    between atoms: C_11  and  C_4 
REMARK    4  A    between atoms: C_10  and  S_6 
REMARK       I    between atoms: C_7  and  N_9 
REMARK    5  A    between atoms: C_13  and  C_7 
REMARK    6  A    between atoms: C_8  and  C_10 
REMARK    7  A    between atoms: O_18  and  C_8 
REMARK    8  A    between atoms: N_9  and  C_11 
REMARK    9  A    between atoms: C_26  and  O_18 
REMARK   10  A    between atoms: O_22  and  C_19 
ROOT
ATOM      1  C   UNL d   1      51.241  33.972  52.910  0.00  0.00     0.201 A 
ATOM      2  N   UNL d   1      52.022  33.944  53.173  0.00  0.00    -0.268 N 
ATOM      3  N   UNL d   1      51.076  33.271  52.500  0.00  0.00    -0.121 NA
ATOM      4  C   UNL d   1      52.337  33.216  52.920  0.00  0.00     0.190 A 
ATOM      5  N   UNL d   1      51.744  32.806  52.505  0.00  0.00    -0.126 NA
ENDROOT
BRANCH   4   6
ATOM      6  C   UNL d   1      53.106  32.945  53.057  0.00  0.00     0.141 C 
BRANCH   6   7
ATOM      7  N   UNL d   1      52.992  32.154  53.281  0.00  0.00    -0.203 NA
ATOM      8  C   UNL d   1      53.647  31.676  53.443  0.00  0.00     0.279 C 
ATOM      9  O   UNL d   1      54.408  31.978  53.383  0.00  0.00    -0.265 OA
BRANCH   8  10
ATOM     10  C   UNL d   1      53.525  30.890  53.665  0.00  0.00     0.058 A 
ATOM     11  C   UNL d   1      53.448  30.304  53.100  0.00  0.00     0.007 A 
ATOM     12  C   UNL d   1      53.327  29.519  53.323  0.00  0.00     0.024 A 
ATOM     13  C   UNL d   1      53.284  29.329  54.127  0.00  0.00     0.094 A 
ATOM     14  C   UNL d   1      53.361  29.916  54.692  0.00  0.00     0.024 A 
ATOM     15  C   UNL d   1      53.483  30.701  54.469  0.00  0.00     0.007 A 
BRANCH  13  16
ATOM     16  O   UNL d   1      53.162  28.544  54.350  0.00  0.00    -0.328 OA
ATOM     17  C   UNL d   1      53.365  28.300  55.103  0.00  0.00     0.181 C 
ENDBRANCH  13  16
ENDBRANCH   8  10
ENDBRANCH   6   7
ENDBRANCH   4   6
BRANCH   2  18
ATOM     18  C   UNL d   1      52.410  34.519  53.599  0.00  0.00     0.067 A 
ATOM     19  C   UNL d   1      52.371  34.528  54.420  0.00  0.00     0.018 A 
ATOM     20  C   UNL d   1      52.760  35.107  54.848  0.00  0.00     0.002 A 
ATOM     21  C   UNL d   1      53.195  35.685  54.461  0.00  0.00     0.000 A 
ATOM     22  C   UNL d   1      53.237  35.681  53.637  0.00  0.00     0.002 A 
ATOM     23  C   UNL d   1      52.844  35.097  53.205  0.00  0.00     0.018 A 
ENDBRANCH   2  18
BRANCH   1  24
ATOM     24  S   UNL d   1      50.709  34.595  53.033  0.00  0.00    -0.043 SA
BRANCH  24  25
ATOM     25  C   UNL d   1      49.993  34.619  52.623  0.00  0.00     0.096 C 
ATOM     26  C   UNL d   1      49.887  34.161  51.953  0.00  0.00     0.013 C 
BRANCH  25  27
ATOM     27  C   UNL d   1      49.377  35.107  52.884  0.00  0.00     0.306 C 
ATOM     28  O   UNL d   1      49.399  35.433  53.637  0.00  0.00    -0.258 OA
BRANCH  27  29
ATOM     29  O   UNL d   1      48.750  35.259  52.381  0.00  0.00    -0.271 OA
BRANCH  29  30
ATOM     30  C   UNL d   1      48.119  35.738  52.638  0.00  0.00     0.126 C 
ATOM     31  C   UNL d   1      47.543  35.974  52.128  0.00  0.00     0.029 C 
ENDBRANCH  29  30
ENDBRANCH  27  29
ENDBRANCH  25  27
ENDBRANCH  24  25
ENDBRANCH   1  24
TORSDOF 10
ENDMDL
