MODEL 1
REMARK VINA RESULT:      -2.5      0.000      0.000
REMARK  7 active torsions:
REMARK  status: ('A' for Active; 'I' for Inactive)
REMARK    1  A    between atoms: C_4  and  S_1 
REMARK    2  A    between atoms: N_6  and  S_1 
REMARK    3  A    between atoms: S_2  and  N_3 
REMARK    4  A    between atoms: C_8  and  S_2 
REMARK    5  A    between atoms: N_3  and  C_7 
REMARK    6  A    between atoms: C_20  and  N_13 
REMARK    7  A    between atoms: C_18  and  C_20 
ROOT
ATOM      1  C   UNL d   1     -40.832  14.018  21.139  0.00  0.00     0.105 A 
ATOM      2  C   UNL d   1     -40.595  14.426  20.464  0.00  0.00     0.029 A 
ATOM      3  C   UNL d   1     -39.815  14.687  20.389  0.00  0.00     0.076 A 
ATOM      4  C   UNL d   1     -40.279  13.869  21.747  0.00  0.00     0.013 A 
ATOM      5  C   UNL d   1     -39.274  14.540  20.986  0.00  0.00     0.017 A 
ATOM      6  C   UNL d   1     -39.501  14.133  21.665  0.00  0.00     0.002 A 
ATOM      7  C   UNL d   1     -41.141  14.573  19.864  0.00  0.00     0.002 C 
ATOM      8  C   UNL d   1     -38.495  14.801  20.908  0.00  0.00     0.002 C 
ENDROOT
BRANCH   1   9
ATOM      9  S   UNL d   1     -41.611  13.758  21.214  0.00  0.00     0.272 S 
ATOM     10  O   UNL d   1     -41.810  12.990  21.000  0.00  0.00    -0.200 OA
ATOM     11  O   UNL d   1     -42.189  14.272  21.504  0.00  0.00    -0.200 OA
BRANCH   9  12
ATOM     12  N   UNL d   1     -42.393  13.505  21.292  0.00  0.00    -0.226 N 
ATOM     13  C   UNL d   1     -42.555  12.703  21.332  0.00  0.00     0.111 A 
ATOM     14  C   UNL d   1     -43.337  12.450  21.410  0.00  0.00     0.100 A 
ATOM     15  N   UNL d   1     -43.948  13.002  21.447  0.00  0.00    -0.300 N 
ATOM     16  C   UNL d   1     -43.776  13.806  21.405  0.00  0.00     0.100 A 
ATOM     17  C   UNL d   1     -42.995  14.059  21.327  0.00  0.00     0.111 A 
BRANCH  15  18
ATOM     18  C   UNL d   1     -44.727  12.741  21.524  0.00  0.00     0.080 C 
BRANCH  18  19
ATOM     19  C   UNL d   1     -45.149  12.885  22.221  0.00  0.00     0.018 C 
ATOM     20  C   UNL d   1     -45.569  13.590  22.309  0.00  0.00     0.002 C 
ATOM     21  C   UNL d   1     -45.151  12.326  22.825  0.00  0.00     0.002 C 
ENDBRANCH  18  19
ENDBRANCH  15  18
ENDBRANCH   9  12
ENDBRANCH   1   9
BRANCH   3  22
ATOM     22  N   UNL d   1     -39.587  15.093  19.711  0.00  0.00    -0.229 N 
ATOM     23  C   UNL d   1     -39.635  15.922  19.685  0.00  0.00     0.111 C 
BRANCH  22  24
ATOM     24  S   UNL d   1     -39.310  14.679  19.054  0.00  0.00     0.271 S 
ATOM     25  O   UNL d   1     -39.709  15.395  18.951  0.00  0.00    -0.200 OA
ATOM     26  O   UNL d   1     -39.192  14.383  19.819  0.00  0.00    -0.200 OA
BRANCH  24  27
ATOM     27  C   UNL d   1     -39.032  14.264  18.397  0.00  0.00     0.104 A 
ATOM     28  C   UNL d   1     -39.565  13.932  17.863  0.00  0.00     0.013 A 
ATOM     29  C   UNL d   1     -39.292  13.524  17.216  0.00  0.00     0.001 A 
ATOM     30  C   UNL d   1     -38.489  13.439  17.090  0.00  0.00     0.000 A 
ATOM     31  C   UNL d   1     -37.946  13.766  17.616  0.00  0.00     0.001 A 
ATOM     32  C   UNL d   1     -38.212  13.025  16.433  0.00  0.00     0.000 C 
ATOM     33  C   UNL d   1     -38.218  14.181  18.274  0.00  0.00     0.013 A 
ENDBRANCH  24  27
ENDBRANCH  22  24
ENDBRANCH   3  22
TORSDOF 7
ENDMDL
MODEL 2
REMARK VINA RESULT:       0.2      2.729      4.616
REMARK  7 active torsions:
REMARK  status: ('A' for Active; 'I' for Inactive)
REMARK    1  A    between atoms: C_4  and  S_1 
REMARK    2  A    between atoms: N_6  and  S_1 
REMARK    3  A    between atoms: S_2  and  N_3 
REMARK    4  A    between atoms: C_8  and  S_2 
REMARK    5  A    between atoms: N_3  and  C_7 
REMARK    6  A    between atoms: C_20  and  N_13 
REMARK    7  A    between atoms: C_18  and  C_20 
ROOT
ATOM      1  C   UNL d   1     -44.955  12.661  22.478  0.00  0.00     0.105 A 
ATOM      2  C   UNL d   1     -44.496  12.866  21.825  0.00  0.00     0.029 A 
ATOM      3  C   UNL d   1     -43.763  12.508  21.704  0.00  0.00     0.076 A 
ATOM      4  C   UNL d   1     -44.673  12.088  23.016  0.00  0.00     0.013 A 
ATOM      5  C   UNL d   1     -43.488  11.946  22.233  0.00  0.00     0.017 A 
ATOM      6  C   UNL d   1     -43.938  11.734  22.889  0.00  0.00     0.002 A 
ATOM      7  C   UNL d   1     -44.776  13.431  21.294  0.00  0.00     0.002 C 
ATOM      8  C   UNL d   1     -42.754  11.590  22.108  0.00  0.00     0.002 C 
ENDROOT
BRANCH   1   9
ATOM      9  S   UNL d   1     -45.688  13.019  22.599  0.00  0.00     0.272 S 
ATOM     10  O   UNL d   1     -46.350  12.746  22.196  0.00  0.00    -0.200 OA
ATOM     11  O   UNL d   1     -45.753  13.652  23.126  0.00  0.00    -0.200 OA
BRANCH   9  12
ATOM     12  N   UNL d   1     -46.418  13.382  22.725  0.00  0.00    -0.226 N 
ATOM     13  C   UNL d   1     -47.098  12.925  22.748  0.00  0.00     0.111 A 
ATOM     14  C   UNL d   1     -47.828  13.288  22.875  0.00  0.00     0.100 A 
ATOM     15  N   UNL d   1     -47.871  14.105  22.977  0.00  0.00    -0.300 N 
ATOM     16  C   UNL d   1     -47.183  14.557  22.952  0.00  0.00     0.100 A 
ATOM     17  C   UNL d   1     -46.453  14.194  22.826  0.00  0.00     0.111 A 
BRANCH  15  18
ATOM     18  C   UNL d   1     -48.604  14.461  23.103  0.00  0.00     0.080 C 
BRANCH  18  19
ATOM     19  C   UNL d   1     -49.029  14.780  22.469  0.00  0.00     0.018 C 
ATOM     20  C   UNL d   1     -49.577  14.314  22.065  0.00  0.00     0.002 C 
ATOM     21  C   UNL d   1     -48.907  15.562  22.242  0.00  0.00     0.002 C 
ENDBRANCH  18  19
ENDBRANCH  15  18
ENDBRANCH   9  12
ENDBRANCH   1   9
BRANCH   3  22
ATOM     22  N   UNL d   1     -43.312  12.719  21.049  0.00  0.00    -0.229 N 
ATOM     23  C   UNL d   1     -43.480  12.393  20.304  0.00  0.00     0.111 C 
BRANCH  22  24
ATOM     24  S   UNL d   1     -42.692  13.256  21.130  0.00  0.00     0.271 S 
ATOM     25  O   UNL d   1     -42.860  12.931  20.389  0.00  0.00    -0.200 OA
ATOM     26  O   UNL d   1     -43.149  13.039  21.785  0.00  0.00    -0.200 OA
BRANCH  24  27
ATOM     27  C   UNL d   1     -42.071  13.794  21.212  0.00  0.00     0.104 A 
ATOM     28  C   UNL d   1     -42.201  14.597  21.083  0.00  0.00     0.013 A 
ATOM     29  C   UNL d   1     -41.590  15.126  21.163  0.00  0.00     0.001 A 
ATOM     30  C   UNL d   1     -40.844  14.867  21.371  0.00  0.00     0.000 A 
ATOM     31  C   UNL d   1     -40.700  14.067  21.503  0.00  0.00     0.001 A 
ATOM     32  C   UNL d   1     -40.223  15.404  21.453  0.00  0.00     0.000 C 
ATOM     33  C   UNL d   1     -41.317  13.526  21.423  0.00  0.00     0.013 A 
ENDBRANCH  24  27
ENDBRANCH  22  24
ENDBRANCH   3  22
TORSDOF 7
ENDMDL
