MODEL 1
REMARK VINA RESULT:     140.5      0.000      0.000
REMARK  7 active torsions:
REMARK  status: ('A' for Active; 'I' for Inactive)
REMARK    1  A    between atoms: C_11  and  C_3 
REMARK    2  A    between atoms: C_10  and  C_5 
REMARK    3  A    between atoms: O_22  and  C_13 
REMARK    4  A    between atoms: O_25  and  C_14 
REMARK    5  A    between atoms: O_24  and  C_15 
REMARK    6  A    between atoms: O_26  and  C_21 
REMARK    7  A    between atoms: C_30  and  O_26 
ROOT
ATOM      1  N   UNL d   1     -56.580-100.844 -43.280  0.00  0.00    -0.208 N 
ATOM      2  N   UNL d   1     -56.721-101.122 -42.519  0.00  0.00    -0.162 NA
ATOM      3  C   UNL d   1     -56.978-100.287 -43.741  0.00  0.00     0.184 A 
ATOM      4  C   UNL d   1     -55.913-101.225 -43.580  0.00  0.00     0.088 A 
ATOM      5  C   UNL d   1     -56.134-101.683 -42.345  0.00  0.00     0.126 A 
ATOM      6  O   UNL d   1     -56.710-100.113 -44.499  0.00  0.00    -0.287 OA
ATOM      7  C   UNL d   1     -55.644-101.049 -44.342  0.00  0.00     0.043 A 
ATOM      8  C   UNL d   1     -56.043-100.494 -44.799  0.00  0.00     0.126 A 
ATOM      9  C   UNL d   1     -55.634-101.745 -43.004  0.00  0.00     0.042 A 
ATOM     10  C   UNL d   1     -55.782-100.314 -45.555  0.00  0.00     0.123 A 
ATOM     11  C   UNL d   1     -54.978-101.431 -44.639  0.00  0.00     0.004 A 
ATOM     12  C   UNL d   1     -54.711-101.257 -45.394  0.00  0.00     0.002 A 
ATOM     13  C   UNL d   1     -55.115-100.695 -45.855  0.00  0.00     0.027 A 
ENDROOT
BRANCH   3  14
ATOM     14  C   UNL d   1     -57.645 -99.906 -43.441  0.00  0.00     0.045 A 
ATOM     15  C   UNL d   1     -58.171 -99.520 -43.956  0.00  0.00     0.030 A 
ATOM     16  C   UNL d   1     -58.838 -99.139 -43.655  0.00  0.00     0.118 A 
ATOM     17  C   UNL d   1     -58.988 -99.138 -42.848  0.00  0.00     0.138 A 
ATOM     18  C   UNL d   1     -58.460 -99.527 -42.331  0.00  0.00     0.118 A 
ATOM     19  C   UNL d   1     -57.793 -99.908 -42.631  0.00  0.00     0.030 A 
BRANCH  16  20
ATOM     20  O   UNL d   1     -59.356 -98.757 -44.168  0.00  0.00    -0.326 OA
ATOM     21  C   UNL d   1     -59.222 -98.780 -44.984  0.00  0.00     0.181 C 
ENDBRANCH  16  20
BRANCH  17  22
ATOM     22  O   UNL d   1     -59.656 -98.757 -42.549  0.00  0.00    -0.324 OA
ATOM     23  C   UNL d   1     -59.847 -98.832 -41.749  0.00  0.00     0.182 C 
ENDBRANCH  17  22
BRANCH  18  24
ATOM     24  O   UNL d   1     -58.605 -99.530 -41.519  0.00  0.00    -0.326 OA
ATOM     25  C   UNL d   1     -58.554 -98.827 -41.086  0.00  0.00     0.181 C 
ENDBRANCH  18  24
ENDBRANCH   3  14
BRANCH   5  26
ATOM     26  C   UNL d   1     -56.060-102.108 -41.634  0.00  0.00     0.119 A 
ATOM     27  O   UNL d   1     -55.378-102.168 -41.174  0.00  0.00    -0.306 OA
ATOM     28  C   UNL d   1     -55.566-102.646 -40.517  0.00  0.00     0.100 A 
ATOM     29  C   UNL d   1     -55.044-102.851 -39.914  0.00  0.00     0.027 C 
ATOM     30  C   UNL d   1     -56.361-102.874 -40.584  0.00  0.00     0.027 A 
ATOM     31  C   UNL d   1     -56.676-102.550 -41.266  0.00  0.00     0.028 A 
ENDBRANCH   5  26
BRANCH  10  32
ATOM     32  O   UNL d   1     -56.180 -99.758 -46.016  0.00  0.00    -0.303 OA
BRANCH  32  33
ATOM     33  C   UNL d   1     -55.910 -98.977 -46.056  0.00  0.00     0.123 C 
ATOM     34  C   UNL d   1     -55.228 -98.755 -45.654  0.00  0.00     0.029 C 
ENDBRANCH  32  33
ENDBRANCH  10  32
TORSDOF 7
ENDMDL
