MODEL 1
REMARK VINA RESULT:      67.0      0.000      0.000
REMARK  10 active torsions:
REMARK  status: ('A' for Active; 'I' for Inactive)
REMARK    1  A    between atoms: C_5  and  C_1 
REMARK    2  A    between atoms: N_6  and  C_2 
REMARK    3  A    between atoms: C_7  and  C_5 
REMARK    4  A    between atoms: C_8  and  C_5 
REMARK    5  A    between atoms: O_18  and  C_7 
REMARK    6  A    between atoms: C_22  and  O_18 
REMARK    7  A    between atoms: C_23  and  C_22 
REMARK    8  A    between atoms: C_26  and  C_23 
REMARK    9  A    between atoms: C_24  and  C_25 
REMARK   10  A    between atoms: C_25  and  C_26 
ROOT
ATOM      1  C   UNL d   1      59.349  49.236  50.332  0.00  0.00     0.122 A 
ATOM      2  C   UNL d   1      59.237  49.456  51.121  0.00  0.00     0.166 A 
ATOM      3  N   UNL d   1      58.472  49.611  51.388  0.00  0.00    -0.225 NA
ATOM      4  N   UNL d   1      58.704  49.171  49.816  0.00  0.00    -0.241 NA
ATOM      5  C   UNL d   1      57.829  49.549  50.884  0.00  0.00     0.101 A 
ATOM      6  C   UNL d   1      57.945  49.328  50.092  0.00  0.00     0.099 A 
ATOM      7  C   UNL d   1      57.303  49.265  49.584  0.00  0.00     0.021 A 
ATOM      8  C   UNL d   1      57.063  49.706  51.159  0.00  0.00     0.021 A 
ATOM      9  C   UNL d   1      56.418  49.642  50.643  0.00  0.00     0.002 A 
ATOM     10  C   UNL d   1      56.537  49.422  49.859  0.00  0.00     0.002 A 
ENDROOT
BRANCH   1  11
ATOM     11  C   UNL d   1      60.117  49.075  50.045  0.00  0.00     0.105 C 
BRANCH  11  12
ATOM     12  C   UNL d   1      60.301  48.342  49.720  0.00  0.00     0.303 C 
ATOM     13  O   UNL d   1      60.575  48.295  48.941  0.00  0.00    -0.259 OA
BRANCH  12  14
ATOM     14  O   UNL d   1      60.212  47.659  50.170  0.00  0.00    -0.271 OA
BRANCH  14  15
ATOM     15  C   UNL d   1      60.889  47.274  50.460  0.00  0.00     0.126 C 
BRANCH  15  16
ATOM     16  C   UNL d   1      60.936  46.455  50.422  0.00  0.00     0.027 C 
BRANCH  16  17
ATOM     17  C   UNL d   1      61.464  46.100  49.899  0.00  0.00     0.002 C 
BRANCH  17  18
ATOM     18  C   UNL d   1      61.605  45.293  49.948  0.00  0.00     0.000 C 
BRANCH  18  19
ATOM     19  C   UNL d   1      61.924  44.888  49.303  0.00  0.00     0.000 C 
ATOM     20  C   UNL d   1      61.660  44.134  49.130  0.00  0.00     0.000 C 
ENDBRANCH  18  19
ENDBRANCH  17  18
ENDBRANCH  16  17
ENDBRANCH  15  16
ENDBRANCH  14  15
ENDBRANCH  12  14
ENDBRANCH  11  12
BRANCH  11  21
ATOM     21  C   UNL d   1      60.709  49.669  50.089  0.00  0.00     0.129 C 
ATOM     22  N   UNL d   1      61.444  49.708  49.485  0.00  0.00    -0.146 N 
ENDBRANCH  11  21
ENDBRANCH   1  11
BRANCH   2  23
ATOM     23  N   UNL d   1      59.884  49.519  51.630  0.00  0.00    -0.285 N 
ATOM     24  C   UNL d   1      59.765  49.481  52.450  0.00  0.00     0.101 A 
ATOM     25  C   UNL d   1      60.401  49.542  52.966  0.00  0.00     0.100 A 
ATOM     26  N   UNL d   1      61.167  49.642  52.661  0.00  0.00    -0.299 N 
ATOM     27  C   UNL d   1      61.286  49.681  51.840  0.00  0.00     0.100 A 
ATOM     28  C   UNL d   1      61.820  49.705  53.180  0.00  0.00     0.100 C 
ATOM     29  C   UNL d   1      60.640  49.618  51.323  0.00  0.00     0.101 A 
ENDBRANCH   2  23
TORSDOF 10
ENDMDL
