MODEL 1
REMARK VINA RESULT:      -5.0      0.000      0.000
REMARK  4 active torsions:
REMARK  status: ('A' for Active; 'I' for Inactive)
REMARK       I    between atoms: N_3  and  C_1 
REMARK    1  A    between atoms: C_13  and  C_1 
REMARK    2  A    between atoms: C_2  and  N_5 
REMARK    3  A    between atoms: C_14  and  N_3 
REMARK    4  A    between atoms: C_4  and  C_14 
REMARK       I    between atoms: N_5  and  C_4 
ROOT
ATOM      1  C   UNL d   1      57.455   0.289  31.449  0.00  0.00     0.299 C 
ATOM      2  N   UNL d   1      56.670   0.041  31.412  0.00  0.00    -0.207 NA
ATOM      3  O   UNL d   1      57.861   0.295  32.167  0.00  0.00    -0.263 OA
ENDROOT
BRANCH   1   4
ATOM      4  C   UNL d   1      57.838   0.533  30.761  0.00  0.00     0.165 C 
BRANCH   4   5
ATOM      5  N   UNL d   1      58.505   0.122  30.492  0.00  0.00    -0.201 NA
ATOM      6  C   UNL d   1      58.731   0.201  29.701  0.00  0.00     0.279 C 
ATOM      7  O   UNL d   1      58.297   0.682  29.190  0.00  0.00    -0.265 OA
BRANCH   6   8
ATOM      8  C   UNL d   1      59.398  -0.208  29.422  0.00  0.00     0.058 A 
ATOM      9  C   UNL d   1      60.141   0.146  29.450  0.00  0.00     0.005 A 
ATOM     10  C   UNL d   1      60.792  -0.262  29.174  0.00  0.00     0.000 A 
ATOM     11  C   UNL d   1      60.708  -1.024  28.868  0.00  0.00     0.000 A 
ATOM     12  C   UNL d   1      59.974  -1.377  28.838  0.00  0.00     0.000 A 
ATOM     13  C   UNL d   1      59.314  -0.970  29.116  0.00  0.00     0.005 A 
ENDBRANCH   6   8
ENDBRANCH   4   5
ENDBRANCH   1   4
BRANCH   2  14
ATOM     14  C   UNL d   1      56.289  -0.204  32.104  0.00  0.00     0.086 A 
ATOM     15  C   UNL d   1      56.294  -1.001  32.318  0.00  0.00     0.031 A 
ATOM     16  C   UNL d   1      55.911  -1.232  33.010  0.00  0.00     0.060 A 
ATOM     17 CL   UNL d   1      55.946  -2.005  33.167  0.00  0.00    -0.082 Cl
ATOM     18  C   UNL d   1      55.527  -0.680  33.486  0.00  0.00     0.023 A 
ATOM     19  C   UNL d   1      55.527   0.120  33.265  0.00  0.00     0.060 A 
ATOM     20  C   UNL d   1      55.908   0.360  32.573  0.00  0.00     0.031 A 
ATOM     21 CL   UNL d   1      55.144   0.680  33.738  0.00  0.00    -0.082 Cl
ENDBRANCH   2  14
TORSDOF 4
ENDMDL
MODEL 2
REMARK VINA RESULT:      -2.6      2.624      5.093
REMARK  4 active torsions:
REMARK  status: ('A' for Active; 'I' for Inactive)
REMARK       I    between atoms: N_3  and  C_1 
REMARK    1  A    between atoms: C_13  and  C_1 
REMARK    2  A    between atoms: C_2  and  N_5 
REMARK    3  A    between atoms: C_14  and  N_3 
REMARK    4  A    between atoms: C_4  and  C_14 
REMARK       I    between atoms: N_5  and  C_4 
ROOT
ATOM      1  C   UNL d   1      58.254  -1.886  29.917  0.00  0.00     0.299 C 
ATOM      2  N   UNL d   1      58.896  -1.902  29.400  0.00  0.00    -0.207 NA
ATOM      3  O   UNL d   1      57.872  -2.583  30.137  0.00  0.00    -0.263 OA
ENDROOT
BRANCH   1   4
ATOM      4  C   UNL d   1      57.992  -1.164  30.218  0.00  0.00     0.165 C 
BRANCH   4   5
ATOM      5  N   UNL d   1      57.655  -1.132  30.974  0.00  0.00    -0.201 NA
ATOM      6  C   UNL d   1      57.288  -0.432  31.218  0.00  0.00     0.279 C 
ATOM      7  O   UNL d   1      57.260   0.221  30.714  0.00  0.00    -0.265 OA
BRANCH   6   8
ATOM      8  C   UNL d   1      56.947  -0.389  31.974  0.00  0.00     0.058 A 
ATOM      9  C   UNL d   1      57.227   0.157  32.524  0.00  0.00     0.005 A 
ATOM     10  C   UNL d   1      56.887   0.193  33.265  0.00  0.00     0.000 A 
ATOM     11  C   UNL d   1      56.267  -0.313  33.464  0.00  0.00     0.000 A 
ATOM     12  C   UNL d   1      55.987  -0.855  32.923  0.00  0.00     0.000 A 
ATOM     13  C   UNL d   1      56.327  -0.895  32.174  0.00  0.00     0.005 A 
ENDBRANCH   6   8
ENDBRANCH   4   5
ENDBRANCH   1   4
BRANCH   2  14
ATOM     14  C   UNL d   1      59.156  -2.628  29.100  0.00  0.00     0.086 A 
ATOM     15  C   UNL d   1      58.609  -3.218  28.917  0.00  0.00     0.031 A 
ATOM     16  C   UNL d   1      58.882  -3.936  28.618  0.00  0.00     0.060 A 
ATOM     17 CL   UNL d   1      58.316  -4.465  28.459  0.00  0.00    -0.082 Cl
ATOM     18  C   UNL d   1      59.686  -4.070  28.504  0.00  0.00     0.023 A 
ATOM     19  C   UNL d   1      60.229  -3.472  28.691  0.00  0.00     0.060 A 
ATOM     20  C   UNL d   1      59.966  -2.749  28.990  0.00  0.00     0.031 A 
ATOM     21 CL   UNL d   1      61.040  -3.599  28.579  0.00  0.00    -0.082 Cl
ENDBRANCH   2  14
TORSDOF 4
ENDMDL
