MODEL 1
REMARK VINA RESULT:      65.8      0.000      0.000
REMARK  5 active torsions:
REMARK  status: ('A' for Active; 'I' for Inactive)
REMARK    1  A    between atoms: S_5  and  C_3 
REMARK    2  A    between atoms: C_13  and  S_5 
REMARK    3  A    between atoms: C_23  and  N_7 
REMARK    4  A    between atoms: C_30  and  C_23 
REMARK    5  A    between atoms: O_29  and  C_30 
ROOT
ATOM      1  C   UNL d   1     -54.947-101.388 -38.029  0.00  0.00     0.155 A 
ATOM      2  C   UNL d   1     -54.872-100.691 -38.449  0.00  0.00     0.092 A 
ATOM      3  C   UNL d   1     -54.906-101.418 -39.661  0.00  0.00     0.124 A 
ATOM      4  N   UNL d   1     -54.968-101.379 -37.214  0.00  0.00    -0.210 NA
ATOM      5  N   UNL d   1     -54.840 -99.973 -37.222  0.00  0.00    -0.258 N 
ATOM      6  N   UNL d   1     -55.001-102.104 -38.422  0.00  0.00    -0.271 N 
ATOM      7  C   UNL d   1     -54.915-100.673 -36.810  0.00  0.00     0.152 A 
ATOM      8  C   UNL d   1     -54.980-102.113 -39.242  0.00  0.00     0.181 A 
ATOM      9  C   UNL d   1     -54.819 -99.981 -38.048  0.00  0.00     0.269 A 
ATOM     10  C   UNL d   1     -54.851-100.700 -39.264  0.00  0.00     0.022 A 
ATOM     11  C   UNL d   1     -54.936-100.665 -35.995  0.00  0.00     0.035 A 
ATOM     12  C   UNL d   1     -54.786 -99.262 -36.821  0.00  0.00     0.084 A 
ATOM     13  N   UNL d   1     -55.036-102.847 -39.645  0.00  0.00    -0.128 N 
ATOM     14  O   UNL d   1     -54.742 -99.262 -38.471  0.00  0.00    -0.266 OA
ATOM     15  C   UNL d   1     -54.808 -99.258 -36.003  0.00  0.00     0.019 A 
ATOM     16  C   UNL d   1     -54.882 -99.959 -35.591  0.00  0.00     0.005 A 
ATOM     17  C   UNL d   1     -55.012-101.384 -35.572  0.00  0.00     0.003 C 
ENDROOT
BRANCH   3  18
ATOM     18  S   UNL d   1     -54.885-101.434 -40.492  0.00  0.00     0.213 S 
ATOM     19  O   UNL d   1     -55.042-102.254 -40.494  0.00  0.00    -0.217 OA
ATOM     20  O   UNL d   1     -54.729-100.619 -40.498  0.00  0.00    -0.217 OA
BRANCH  18  21
ATOM     21  C   UNL d   1     -54.862-101.437 -41.326  0.00  0.00     0.088 A 
ATOM     22  C   UNL d   1     -54.850-100.724 -41.745  0.00  0.00     0.014 A 
ATOM     23  C   UNL d   1     -54.827-100.730 -42.576  0.00  0.00     0.030 A 
ATOM     24  C   UNL d   1     -54.816-101.456 -42.985  0.00  0.00     0.140 A 
ATOM     25  C   UNL d   1     -54.828-102.177 -42.554  0.00  0.00     0.030 A 
ATOM     26  F   UNL d   1     -54.792-101.468 -43.823  0.00  0.00    -0.204 F 
ATOM     27  C   UNL d   1     -54.851-102.162 -41.729  0.00  0.00     0.014 A 
ENDBRANCH  18  21
ENDBRANCH   3  18
BRANCH   6  28
ATOM     28  C   UNL d   1     -55.077-102.810 -37.996  0.00  0.00     0.109 C 
BRANCH  28  29
ATOM     29  C   UNL d   1     -55.646-102.872 -37.393  0.00  0.00     0.135 C 
BRANCH  29  30
ATOM     30  O   UNL d   1     -55.479-102.574 -36.627  0.00  0.00    -0.325 OA
ATOM     31  C   UNL d   1     -55.885-102.875 -35.966  0.00  0.00     0.182 C 
ENDBRANCH  29  30
ENDBRANCH  28  29
ENDBRANCH   6  28
TORSDOF 5
ENDMDL
