MODEL 1
REMARK VINA RESULT:      18.8      0.000      0.000
REMARK  9 active torsions:
REMARK  status: ('A' for Active; 'I' for Inactive)
REMARK    1  A    between atoms: N_7  and  N_1 
REMARK    2  A    between atoms: S_9  and  C_2 
REMARK       I    between atoms: C_8  and  N_7 
REMARK    3  A    between atoms: C_15  and  C_8 
REMARK    4  A    between atoms: C_14  and  S_9 
REMARK    5  A    between atoms: C_11  and  C_14 
REMARK       I    between atoms: N_16  and  C_11 
REMARK    6  A    between atoms: C_18  and  C_15 
REMARK    7  A    between atoms: C_19  and  N_16 
REMARK    8  A    between atoms: C_22  and  C_19 
REMARK    9  A    between atoms: C_21  and  C_22 
ROOT
ATOM      1  N   UNL d   1     -41.746-121.840 -53.963  0.00  0.00    -0.168 N 
ATOM      2  C   UNL d   1     -41.909-122.615 -53.761  0.00  0.00     0.199 A 
ATOM      3  C   UNL d   1     -42.042-121.527 -54.668  0.00  0.00     0.283 A 
ATOM      4  N   UNL d   1     -42.378-123.106 -54.263  0.00  0.00    -0.221 NA
ATOM      5  C   UNL d   1     -42.514-122.013 -55.176  0.00  0.00     0.076 A 
ATOM      6  C   UNL d   1     -42.678-122.796 -54.973  0.00  0.00     0.088 A 
ATOM      7  O   UNL d   1     -41.880-120.742 -54.878  0.00  0.00    -0.265 OA
ATOM      8  C   UNL d   1     -42.806-121.685 -55.884  0.00  0.00     0.006 A 
ATOM      9  C   UNL d   1     -43.138-123.260 -55.474  0.00  0.00     0.019 A 
ATOM     10  C   UNL d   1     -43.269-122.167 -56.380  0.00  0.00     0.000 A 
ATOM     11  C   UNL d   1     -43.433-122.949 -56.176  0.00  0.00     0.002 A 
ENDROOT
BRANCH   2  12
ATOM     12  S   UNL d   1     -41.618-122.930 -53.065  0.00  0.00    -0.043 SA
BRANCH  12  13
ATOM     13  C   UNL d   1     -42.005-123.565 -52.701  0.00  0.00     0.101 C 
BRANCH  13  14
ATOM     14  C   UNL d   1     -41.962-123.655 -51.883  0.00  0.00     0.286 C 
ATOM     15  O   UNL d   1     -41.224-123.740 -51.517  0.00  0.00    -0.265 OA
ATOM     16  N   UNL d   1     -42.648-123.662 -51.428  0.00  0.00    -0.206 NA
BRANCH  16  17
ATOM     17  C   UNL d   1     -42.605-123.752 -50.611  0.00  0.00     0.102 C 
BRANCH  17  18
ATOM     18  C   UNL d   1     -42.857-123.149 -50.111  0.00  0.00     0.021 C 
BRANCH  18  19
ATOM     19  C   UNL d   1     -42.611-123.129 -49.328  0.00  0.00     0.002 A 
ATOM     20  C   UNL d   1     -42.690-123.803 -48.853  0.00  0.00     0.000 A 
ATOM     21  C   UNL d   1     -42.439-123.779 -48.061  0.00  0.00     0.000 A 
ATOM     22  C   UNL d   1     -42.114-123.089 -47.748  0.00  0.00     0.000 A 
ATOM     23  C   UNL d   1     -42.038-122.415 -48.231  0.00  0.00     0.000 A 
ATOM     24  C   UNL d   1     -42.286-122.440 -49.013  0.00  0.00     0.000 A 
ENDBRANCH  18  19
ENDBRANCH  17  18
ENDBRANCH  16  17
ENDBRANCH  13  14
ENDBRANCH  12  13
ENDBRANCH   2  12
BRANCH   1  25
ATOM     25  N   UNL d   1     -41.291-121.377 -53.469  0.00  0.00    -0.119 NA
ATOM     26  C   UNL d   1     -41.596-120.674 -53.165  0.00  0.00     0.296 C 
ATOM     27  O   UNL d   1     -42.361-120.429 -53.354  0.00  0.00    -0.264 OA
BRANCH  26  28
ATOM     28  C   UNL d   1     -41.129-120.207 -52.664  0.00  0.00     0.064 C 
BRANCH  28  29
ATOM     29  C   UNL d   1     -41.199-119.391 -52.687  0.00  0.00     0.005 A 
ATOM     30  C   UNL d   1     -41.276-119.006 -53.406  0.00  0.00     0.000 A 
ATOM     31  C   UNL d   1     -41.347-118.184 -53.432  0.00  0.00     0.000 A 
ATOM     32  C   UNL d   1     -41.339-117.751 -52.725  0.00  0.00     0.000 A 
ATOM     33  C   UNL d   1     -41.262-118.136 -52.006  0.00  0.00     0.000 A 
ATOM     34  C   UNL d   1     -41.192-118.955 -51.980  0.00  0.00     0.000 A 
ENDBRANCH  28  29
ENDBRANCH  26  28
ENDBRANCH   1  25
TORSDOF 9
ENDMDL
