MODEL 1
REMARK VINA RESULT:       6.0      0.000      0.000
REMARK  7 active torsions:
REMARK  status: ('A' for Active; 'I' for Inactive)
REMARK    1  A    between atoms: N_2  and  S_1 
REMARK    2  A    between atoms: C_6  and  S_1 
REMARK    3  A    between atoms: C_16  and  C_3 
REMARK       I    between atoms: C_4  and  N_10 
REMARK    4  A    between atoms: C_5  and  C_4 
REMARK       I    between atoms: N_11  and  C_5 
REMARK    5  A    between atoms: N_10  and  C_16 
REMARK    6  A    between atoms: C_26  and  N_11 
REMARK    7  A    between atoms: C_25  and  C_26 
ROOT
ATOM      1  C   UNL d   1     -41.685-122.311 -52.204  0.00  0.00     0.337 C 
ATOM      2  N   UNL d   1     -42.053-122.741 -51.613  0.00  0.00    -0.199 NA
ATOM      3  O   UNL d   1     -41.495-121.518 -52.090  0.00  0.00    -0.260 OA
ENDROOT
BRANCH   2   4
ATOM      4  C   UNL d   1     -42.235-122.379 -50.898  0.00  0.00     0.146 C 
BRANCH   4   5
ATOM      5  C   UNL d   1     -43.017-122.304 -50.653  0.00  0.00     0.197 A 
ATOM      6  N   UNL d   1     -43.303-122.468 -49.906  0.00  0.00    -0.207 N 
ATOM      7  C   UNL d   1     -44.116-122.313 -49.913  0.00  0.00     0.120 A 
ATOM      8  C   UNL d   1     -44.329-122.053 -50.671  0.00  0.00     0.144 A 
ATOM      9  O   UNL d   1     -43.635-122.048 -51.134  0.00  0.00    -0.285 OA
BRANCH   6  10
ATOM     10  S   UNL d   1     -42.869-122.736 -49.265  0.00  0.00     0.273 S 
ATOM     11  O   UNL d   1     -42.766-121.964 -49.010  0.00  0.00    -0.200 OA
ATOM     12  O   UNL d   1     -42.972-123.508 -49.519  0.00  0.00    -0.200 OA
BRANCH  10  13
ATOM     13  C   UNL d   1     -42.435-123.005 -48.624  0.00  0.00     0.104 A 
ATOM     14  C   UNL d   1     -42.807-123.459 -48.030  0.00  0.00     0.013 A 
ATOM     15  C   UNL d   1     -42.373-123.728 -47.388  0.00  0.00     0.007 A 
ATOM     16  C   UNL d   1     -41.562-123.549 -47.328  0.00  0.00     0.035 A 
ATOM     17  C   UNL d   1     -41.200-123.100 -47.919  0.00  0.00     0.007 A 
ATOM     18 BR   UNL d   1     -41.124-123.817 -46.686  0.00  0.00    -0.049 Br
ATOM     19  C   UNL d   1     -41.634-122.831 -48.560  0.00  0.00     0.013 A 
ENDBRANCH  10  13
ENDBRANCH   6  10
ENDBRANCH   4   5
ENDBRANCH   2   4
BRANCH   1  20
ATOM     20  C   UNL d   1     -41.503-122.673 -52.919  0.00  0.00     0.337 C 
ATOM     21  N   UNL d   1     -41.666-122.277 -53.618  0.00  0.00    -0.202 NA
ATOM     22  O   UNL d   1     -41.164-123.420 -52.927  0.00  0.00    -0.260 OA
BRANCH  21  23
ATOM     23  C   UNL d   1     -41.483-122.640 -54.346  0.00  0.00     0.102 C 
BRANCH  23  24
ATOM     24  C   UNL d   1     -41.847-122.382 -55.042  0.00  0.00     0.021 A 
ATOM     25  C   UNL d   1     -41.418-121.928 -55.575  0.00  0.00     0.028 A 
ATOM     26  C   UNL d   1     -41.785-121.669 -56.273  0.00  0.00     0.119 A 
ATOM     27  O   UNL d   1     -41.498-121.215 -56.899  0.00  0.00    -0.300 OA
ATOM     28  C   UNL d   1     -42.573-121.866 -56.432  0.00  0.00     0.119 A 
ATOM     29  C   UNL d   1     -42.123-121.131 -57.453  0.00  0.00     0.304 A 
ATOM     30  O   UNL d   1     -42.773-121.537 -57.148  0.00  0.00    -0.300 OA
ATOM     31  C   UNL d   1     -42.991-122.323 -55.887  0.00  0.00     0.026 A 
ATOM     32  C   UNL d   1     -42.634-122.581 -55.195  0.00  0.00     0.004 A 
ENDBRANCH  23  24
ENDBRANCH  21  23
ENDBRANCH   1  20
TORSDOF 7
ENDMDL
