MODEL 1
REMARK VINA RESULT:      -3.1      0.000      0.000
REMARK  5 active torsions:
REMARK  status: ('A' for Active; 'I' for Inactive)
REMARK    1  A    between atoms: N_10  and  C_2 
REMARK    2  A    between atoms: C_7  and  C_5 
REMARK    3  A    between atoms: C_6  and  C_9 
REMARK    4  A    between atoms: C_8  and  C_7 
REMARK       I    between atoms: N_11  and  C_8 
REMARK    5  A    between atoms: C_14  and  N_11 
ROOT
ATOM      1  C   UNL d   1      32.850  19.824 -22.336  0.00  0.00     0.280 C 
ATOM      2  N   UNL d   1      33.180  19.080 -22.458  0.00  0.00    -0.208 NA
ATOM      3  O   UNL d   1      32.291  20.115 -22.867  0.00  0.00    -0.265 OA
ENDROOT
BRANCH   1   4
ATOM      4  C   UNL d   1      33.075  20.276 -21.686  0.00  0.00     0.074 C 
BRANCH   4   5
ATOM      5  C   UNL d   1      32.940  21.089 -21.678  0.00  0.00     0.093 A 
ATOM      6  C   UNL d   1      32.479  21.495 -21.128  0.00  0.00     0.272 A 
ATOM      7  N   UNL d   1      32.495  22.290 -21.326  0.00  0.00    -0.251 N 
ATOM      8  O   UNL d   1      32.073  21.160 -20.493  0.00  0.00    -0.266 OA
ATOM      9  C   UNL d   1      32.967  22.378 -21.998  0.00  0.00     0.182 A 
ATOM     10  C   UNL d   1      32.108  22.901 -20.924  0.00  0.00     0.104 C 
ATOM     11  S   UNL d   1      33.240  21.634 -22.213  0.00  0.00    -0.045 SA
BRANCH   9  12
ATOM     12  N   UNL d   1      33.134  23.087 -22.384  0.00  0.00    -0.219 NA
ATOM     13  C   UNL d   1      33.241  23.097 -23.203  0.00  0.00     0.122 C 
ENDBRANCH   9  12
ENDBRANCH   4   5
ENDBRANCH   1   4
BRANCH   2  14
ATOM     14  C   UNL d   1      32.950  18.630 -23.112  0.00  0.00     0.085 A 
ATOM     15  C   UNL d   1      32.432  17.991 -23.020  0.00  0.00     0.023 A 
ATOM     16  C   UNL d   1      32.205  17.546 -23.677  0.00  0.00     0.073 A 
ATOM     17  C   UNL d   1      32.495  17.738 -24.421  0.00  0.00     0.004 A 
ATOM     18  C   UNL d   1      33.013  18.377 -24.514  0.00  0.00     0.002 A 
ATOM     19  C   UNL d   1      33.241  18.823 -23.862  0.00  0.00     0.019 A 
BRANCH  16  20
ATOM     20  C   UNL d   1      31.688  16.908 -23.585  0.00  0.00     0.419 C 
ATOM     21  F   UNL d   1      31.218  16.329 -23.502  0.00  0.00    -0.166 F 
ATOM     22  F   UNL d   1      30.871  16.826 -23.843  0.00  0.00    -0.166 F 
ATOM     23  F   UNL d   1      31.824  16.145 -23.204  0.00  0.00    -0.166 F 
ENDBRANCH  16  20
ENDBRANCH   2  14
TORSDOF 5
ENDMDL
MODEL 2
REMARK VINA RESULT:      -2.9      1.827      2.669
REMARK  5 active torsions:
REMARK  status: ('A' for Active; 'I' for Inactive)
REMARK    1  A    between atoms: N_10  and  C_2 
REMARK    2  A    between atoms: C_7  and  C_5 
REMARK    3  A    between atoms: C_6  and  C_9 
REMARK    4  A    between atoms: C_8  and  C_7 
REMARK       I    between atoms: N_11  and  C_8 
REMARK    5  A    between atoms: C_14  and  N_11 
ROOT
ATOM      1  C   UNL d   1      32.716  17.693 -23.723  0.00  0.00     0.280 C 
ATOM      2  N   UNL d   1      32.120  17.220 -23.407  0.00  0.00    -0.208 NA
ATOM      3  O   UNL d   1      32.785  17.770 -24.540  0.00  0.00    -0.265 OA
ENDROOT
BRANCH   1   4
ATOM      4  C   UNL d   1      33.240  18.087 -23.226  0.00  0.00     0.074 C 
BRANCH   4   5
ATOM      5  C   UNL d   1      33.240  18.910 -23.189  0.00  0.00     0.093 A 
ATOM      6  C   UNL d   1      33.239  19.360 -22.498  0.00  0.00     0.272 A 
ATOM      7  N   UNL d   1      33.238  20.151 -22.714  0.00  0.00    -0.251 N 
ATOM      8  O   UNL d   1      33.238  19.067 -21.727  0.00  0.00    -0.266 OA
ATOM      9  C   UNL d   1      33.239  20.191 -23.539  0.00  0.00     0.182 A 
ATOM     10  C   UNL d   1      33.237  20.798 -22.199  0.00  0.00     0.104 C 
ATOM     11  S   UNL d   1      33.240  19.423 -23.829  0.00  0.00    -0.045 SA
BRANCH   9  12
ATOM     12  N   UNL d   1      33.239  20.881 -23.991  0.00  0.00    -0.219 NA
ATOM     13  C   UNL d   1      33.203  20.836 -24.815  0.00  0.00     0.122 C 
ENDBRANCH   9  12
ENDBRANCH   4   5
ENDBRANCH   1   4
BRANCH   2  14
ATOM     14  C   UNL d   1      31.597  16.827 -23.910  0.00  0.00     0.085 A 
ATOM     15  C   UNL d   1      30.799  17.047 -23.940  0.00  0.00     0.023 A 
ATOM     16  C   UNL d   1      30.281  16.650 -24.446  0.00  0.00     0.073 A 
ATOM     17  C   UNL d   1      30.557  16.038 -24.918  0.00  0.00     0.004 A 
ATOM     18  C   UNL d   1      31.355  15.817 -24.888  0.00  0.00     0.002 A 
ATOM     19  C   UNL d   1      31.874  16.210 -24.386  0.00  0.00     0.019 A 
BRANCH  16  20
ATOM     20  C   UNL d   1      29.484  16.870 -24.476  0.00  0.00     0.419 C 
ATOM     21  F   UNL d   1      28.762  17.070 -24.504  0.00  0.00    -0.166 F 
ATOM     22  F   UNL d   1      28.846  16.688 -23.928  0.00  0.00    -0.166 F 
ATOM     23  F   UNL d   1      29.071  17.345 -25.068  0.00  0.00    -0.166 F 
ENDBRANCH  16  20
ENDBRANCH   2  14
TORSDOF 5
ENDMDL
MODEL 3
REMARK VINA RESULT:      -2.6      2.965      5.026
REMARK  5 active torsions:
REMARK  status: ('A' for Active; 'I' for Inactive)
REMARK    1  A    between atoms: N_10  and  C_2 
REMARK    2  A    between atoms: C_7  and  C_5 
REMARK    3  A    between atoms: C_6  and  C_9 
REMARK    4  A    between atoms: C_8  and  C_7 
REMARK       I    between atoms: N_11  and  C_8 
REMARK    5  A    between atoms: C_14  and  N_11 
ROOT
ATOM      1  C   UNL d   1      32.672  18.830 -23.324  0.00  0.00     0.280 C 
ATOM      2  N   UNL d   1      33.035  19.558 -23.199  0.00  0.00    -0.208 NA
ATOM      3  O   UNL d   1      32.308  18.442 -22.695  0.00  0.00    -0.265 OA
ENDROOT
BRANCH   1   4
ATOM      4  C   UNL d   1      32.671  18.490 -24.073  0.00  0.00     0.074 C 
BRANCH   4   5
ATOM      5  C   UNL d   1      32.167  17.860 -24.244  0.00  0.00     0.093 A 
ATOM      6  C   UNL d   1      32.400  17.082 -24.385  0.00  0.00     0.272 A 
ATOM      7  N   UNL d   1      31.725  16.641 -24.531  0.00  0.00    -0.251 N 
ATOM      8  O   UNL d   1      33.174  16.798 -24.379  0.00  0.00    -0.266 OA
ATOM      9  C   UNL d   1      31.073  17.145 -24.481  0.00  0.00     0.182 A 
ATOM     10  C   UNL d   1      31.697  15.832 -24.700  0.00  0.00     0.104 C 
ATOM     11  S   UNL d   1      31.350  17.898 -24.304  0.00  0.00    -0.045 SA
BRANCH   9  12
ATOM     12  N   UNL d   1      30.284  16.931 -24.590  0.00  0.00    -0.219 NA
ATOM     13  C   UNL d   1      29.701  17.514 -24.645  0.00  0.00     0.122 C 
ENDBRANCH   9  12
ENDBRANCH   4   5
ENDBRANCH   1   4
BRANCH   2  14
ATOM     14  C   UNL d   1      33.032  19.895 -22.445  0.00  0.00     0.085 A 
ATOM     15  C   UNL d   1      32.824  20.689 -22.341  0.00  0.00     0.023 A 
ATOM     16  C   UNL d   1      32.823  21.020 -21.584  0.00  0.00     0.073 A 
ATOM     17  C   UNL d   1      33.030  20.560 -20.936  0.00  0.00     0.004 A 
ATOM     18  C   UNL d   1      33.239  19.765 -21.040  0.00  0.00     0.002 A 
ATOM     19  C   UNL d   1      33.241  19.433 -21.791  0.00  0.00     0.019 A 
BRANCH  16  20
ATOM     20  C   UNL d   1      32.615  21.813 -21.480  0.00  0.00     0.419 C 
ATOM     21  F   UNL d   1      32.425  22.533 -21.386  0.00  0.00    -0.166 F 
ATOM     22  F   UNL d   1      31.835  22.178 -21.485  0.00  0.00    -0.166 F 
ATOM     23  F   UNL d   1      33.122  22.497 -21.338  0.00  0.00    -0.166 F 
ENDBRANCH  16  20
ENDBRANCH   2  14
TORSDOF 5
ENDMDL
MODEL 4
REMARK VINA RESULT:      -2.2      2.966      4.855
REMARK  5 active torsions:
REMARK  status: ('A' for Active; 'I' for Inactive)
REMARK    1  A    between atoms: N_10  and  C_2 
REMARK    2  A    between atoms: C_7  and  C_5 
REMARK    3  A    between atoms: C_6  and  C_9 
REMARK    4  A    between atoms: C_8  and  C_7 
REMARK       I    between atoms: N_11  and  C_8 
REMARK    5  A    between atoms: C_14  and  N_11 
ROOT
ATOM      1  C   UNL d   1      33.161  19.188 -22.557  0.00  0.00     0.280 C 
ATOM      2  N   UNL d   1      33.052  19.584 -21.843  0.00  0.00    -0.208 NA
ATOM      3  O   UNL d   1      33.241  19.619 -23.254  0.00  0.00    -0.265 OA
ENDROOT
BRANCH   1   4
ATOM      4  C   UNL d   1      33.190  18.366 -22.576  0.00  0.00     0.074 C 
BRANCH   4   5
ATOM      5  C   UNL d   1      32.711  17.944 -23.097  0.00  0.00     0.093 A 
ATOM      6  C   UNL d   1      32.736  17.129 -23.222  0.00  0.00     0.272 A 
ATOM      7  N   UNL d   1      32.169  16.944 -23.783  0.00  0.00    -0.251 N 
ATOM      8  O   UNL d   1      33.241  16.596 -22.847  0.00  0.00    -0.266 OA
ATOM      9  C   UNL d   1      31.792  17.644 -24.008  0.00  0.00     0.182 A 
ATOM     10  C   UNL d   1      32.000  16.190 -24.076  0.00  0.00     0.104 C 
ATOM     11  S   UNL d   1      32.130  18.260 -23.582  0.00  0.00    -0.045 SA
BRANCH   9  12
ATOM     12  N   UNL d   1      31.185  17.713 -24.562  0.00  0.00    -0.219 NA
ATOM     13  C   UNL d   1      31.123  18.393 -25.026  0.00  0.00     0.122 C 
ENDBRANCH   9  12
ENDBRANCH   4   5
ENDBRANCH   1   4
BRANCH   2  14
ATOM     14  C   UNL d   1      33.024  20.409 -21.830  0.00  0.00     0.085 A 
ATOM     15  C   UNL d   1      32.787  20.810 -21.146  0.00  0.00     0.023 A 
ATOM     16  C   UNL d   1      32.761  21.636 -21.140  0.00  0.00     0.073 A 
ATOM     17  C   UNL d   1      32.970  22.057 -21.813  0.00  0.00     0.004 A 
ATOM     18  C   UNL d   1      33.207  21.656 -22.497  0.00  0.00     0.002 A 
ATOM     19  C   UNL d   1      33.235  20.835 -22.507  0.00  0.00     0.019 A 
BRANCH  16  20
ATOM     20  C   UNL d   1      32.524  22.036 -20.456  0.00  0.00     0.419 C 
ATOM     21  F   UNL d   1      32.309  22.399 -19.836  0.00  0.00    -0.166 F 
ATOM     22  F   UNL d   1      32.919  22.097 -19.695  0.00  0.00    -0.166 F 
ATOM     23  F   UNL d   1      31.812  22.505 -20.318  0.00  0.00    -0.166 F 
ENDBRANCH  16  20
ENDBRANCH   2  14
TORSDOF 5
ENDMDL
MODEL 5
REMARK VINA RESULT:      -1.9      3.562      5.245
REMARK  5 active torsions:
REMARK  status: ('A' for Active; 'I' for Inactive)
REMARK    1  A    between atoms: N_10  and  C_2 
REMARK    2  A    between atoms: C_7  and  C_5 
REMARK    3  A    between atoms: C_6  and  C_9 
REMARK    4  A    between atoms: C_8  and  C_7 
REMARK       I    between atoms: N_11  and  C_8 
REMARK    5  A    between atoms: C_14  and  N_11 
ROOT
ATOM      1  C   UNL d   1      30.926  17.102 -24.931  0.00  0.00     0.280 C 
ATOM      2  N   UNL d   1      30.992  17.860 -24.615  0.00  0.00    -0.208 NA
ATOM      3  O   UNL d   1      31.606  16.662 -25.081  0.00  0.00    -0.265 OA
ENDROOT
BRANCH   1   4
ATOM      4  C   UNL d   1      30.185  16.785 -25.096  0.00  0.00     0.074 C 
BRANCH   4   5
ATOM      5  C   UNL d   1      29.702  16.513 -24.486  0.00  0.00     0.093 A 
ATOM      6  C   UNL d   1      28.898  16.673 -24.400  0.00  0.00     0.272 A 
ATOM      7  N   UNL d   1      28.638  16.296 -23.721  0.00  0.00    -0.251 N 
ATOM      8  O   UNL d   1      28.437  17.130 -24.909  0.00  0.00    -0.266 OA
ATOM      9  C   UNL d   1      29.281  15.903 -23.384  0.00  0.00     0.182 A 
ATOM     10  C   UNL d   1      27.868  16.306 -23.421  0.00  0.00     0.104 C 
ATOM     11  S   UNL d   1      29.937  16.039 -23.859  0.00  0.00    -0.045 SA
BRANCH   9  12
ATOM     12  N   UNL d   1      29.267  15.453 -22.693  0.00  0.00    -0.219 NA
ATOM     13  C   UNL d   1      29.782  15.632 -22.071  0.00  0.00     0.122 C 
ENDBRANCH   9  12
ENDBRANCH   4   5
ENDBRANCH   1   4
BRANCH   2  14
ATOM     14  C   UNL d   1      31.738  18.173 -24.451  0.00  0.00     0.085 A 
ATOM     15  C   UNL d   1      31.993  18.263 -23.669  0.00  0.00     0.023 A 
ATOM     16  C   UNL d   1      32.740  18.578 -23.512  0.00  0.00     0.073 A 
ATOM     17  C   UNL d   1      33.230  18.800 -24.132  0.00  0.00     0.004 A 
ATOM     18  C   UNL d   1      32.975  18.710 -24.915  0.00  0.00     0.002 A 
ATOM     19  C   UNL d   1      32.232  18.398 -25.076  0.00  0.00     0.019 A 
BRANCH  16  20
ATOM     20  C   UNL d   1      32.994  18.668 -22.730  0.00  0.00     0.419 C 
ATOM     21  F   UNL d   1      33.225  18.749 -22.021  0.00  0.00    -0.166 F 
ATOM     22  F   UNL d   1      33.115  18.070 -22.123  0.00  0.00    -0.166 F 
ATOM     23  F   UNL d   1      33.209  19.388 -22.305  0.00  0.00    -0.166 F 
ENDBRANCH  16  20
ENDBRANCH   2  14
TORSDOF 5
ENDMDL
MODEL 6
REMARK VINA RESULT:      -1.1      2.899      4.765
REMARK  5 active torsions:
REMARK  status: ('A' for Active; 'I' for Inactive)
REMARK    1  A    between atoms: N_10  and  C_2 
REMARK    2  A    between atoms: C_7  and  C_5 
REMARK    3  A    between atoms: C_6  and  C_9 
REMARK    4  A    between atoms: C_8  and  C_7 
REMARK       I    between atoms: N_11  and  C_8 
REMARK    5  A    between atoms: C_14  and  N_11 
ROOT
ATOM      1  C   UNL d   1      33.125  20.370 -21.767  0.00  0.00     0.280 C 
ATOM      2  N   UNL d   1      32.952  20.670 -21.020  0.00  0.00    -0.208 NA
ATOM      3  O   UNL d   1      33.240  20.887 -22.398  0.00  0.00    -0.265 OA
ENDROOT
BRANCH   1   4
ATOM      4  C   UNL d   1      33.182  19.557 -21.885  0.00  0.00     0.074 C 
BRANCH   4   5
ATOM      5  C   UNL d   1      33.174  19.246 -22.648  0.00  0.00     0.093 A 
ATOM      6  C   UNL d   1      33.135  18.445 -22.841  0.00  0.00     0.272 A 
ATOM      7  N   UNL d   1      33.141  18.383 -23.658  0.00  0.00    -0.251 N 
ATOM      8  O   UNL d   1      33.096  17.818 -22.306  0.00  0.00    -0.266 OA
ATOM      9  C   UNL d   1      33.185  19.146 -23.972  0.00  0.00     0.182 A 
ATOM     10  C   UNL d   1      33.110  17.682 -24.095  0.00  0.00     0.104 C 
ATOM     11  S   UNL d   1      33.205  19.676 -23.346  0.00  0.00    -0.045 SA
BRANCH   9  12
ATOM     12  N   UNL d   1      33.204  19.340 -24.773  0.00  0.00    -0.219 NA
ATOM     13  C   UNL d   1      33.240  20.131 -25.007  0.00  0.00     0.122 C 
ENDBRANCH   9  12
ENDBRANCH   4   5
ENDBRANCH   1   4
BRANCH   2  14
ATOM     14  C   UNL d   1      32.896  21.486 -20.908  0.00  0.00     0.085 A 
ATOM     15  C   UNL d   1      32.500  21.959 -21.460  0.00  0.00     0.023 A 
ATOM     16  C   UNL d   1      32.447  22.775 -21.341  0.00  0.00     0.073 A 
ATOM     17  C   UNL d   1      32.789  23.115 -20.677  0.00  0.00     0.004 A 
ATOM     18  C   UNL d   1      33.185  22.642 -20.125  0.00  0.00     0.002 A 
ATOM     19  C   UNL d   1      33.240  21.830 -20.239  0.00  0.00     0.019 A 
BRANCH  16  20
ATOM     20  C   UNL d   1      32.051  23.247 -21.892  0.00  0.00     0.419 C 
ATOM     21  F   UNL d   1      31.692  23.675 -22.392  0.00  0.00    -0.166 F 
ATOM     22  F   UNL d   1      32.319  23.534 -22.658  0.00  0.00    -0.166 F 
ATOM     23  F   UNL d   1      31.257  23.585 -21.852  0.00  0.00    -0.166 F 
ENDBRANCH  16  20
ENDBRANCH   2  14
TORSDOF 5
ENDMDL
