MODEL 1
REMARK VINA RESULT:      35.2      0.000      0.000
REMARK  4 active torsions:
REMARK  status: ('A' for Active; 'I' for Inactive)
REMARK    1  A    between atoms: N_14  and  C_6 
REMARK    2  A    between atoms: C_19  and  N_14 
REMARK    3  A    between atoms: O_17  and  C_20 
REMARK    4  A    between atoms: C_20  and  C_19 
ROOT
ATOM      1  N   UNL d   1      57.722  49.680  51.496  0.00  0.00    -0.183 N 
ATOM      2  C   UNL d   1      58.158  49.669  50.790  0.00  0.00     0.169 A 
ATOM      3  C   UNL d   1      58.976  49.676  50.805  0.00  0.00     0.073 A 
ATOM      4  C   UNL d   1      59.355  49.694  51.529  0.00  0.00     0.185 A 
ATOM      5  N   UNL d   1      58.919  49.705  52.235  0.00  0.00    -0.142 NA
ATOM      6  C   UNL d   1      56.906  49.673  51.461  0.00  0.00     0.218 A 
ATOM      7  N   UNL d   1      57.766  49.651  50.068  0.00  0.00    -0.226 NA
ATOM      8  C   UNL d   1      59.408  49.665  50.106  0.00  0.00     0.007 A 
ATOM      9  N   UNL d   1      60.183  49.701  51.560  0.00  0.00    -0.225 NA
ATOM     10  C   UNL d   1      56.513  49.655  50.750  0.00  0.00     0.071 A 
ATOM     11  C   UNL d   1      60.225  49.671  50.121  0.00  0.00     0.019 A 
ATOM     12  C   UNL d   1      56.949  49.644  50.044  0.00  0.00     0.087 A 
ATOM     13  C   UNL d   1      60.619  49.690  50.854  0.00  0.00     0.083 A 
ATOM     14  C   UNL d   1      59.012  49.647  49.382  0.00  0.00     0.000 C 
ATOM     15  C   UNL d   1      56.538  49.626  49.295  0.00  0.00     0.021 C 
ATOM     16  C   UNL d   1      61.433  49.696  50.876  0.00  0.00     0.021 C 
ENDROOT
BRANCH   6  17
ATOM     17  N   UNL d   1      56.464  49.685  52.194  0.00  0.00    -0.378 NA
BRANCH  17  18
ATOM     18  C   UNL d   1      56.110  49.547  52.950  0.00  0.00     0.189 C 
BRANCH  18  19
ATOM     19  C   UNL d   1      56.599  49.448  53.636  0.00  0.00     0.151 C 
BRANCH  19  20
ATOM     20  O   UNL d   1      56.252  49.438  54.402  0.00  0.00    -0.323 OA
ATOM     21  C   UNL d   1      56.731  49.503  55.105  0.00  0.00     0.182 C 
ENDBRANCH  19  20
ENDBRANCH  18  19
ENDBRANCH  17  18
ENDBRANCH   6  17
TORSDOF 4
ENDMDL
