MODEL 1
REMARK VINA RESULT:      -5.7      0.000      0.000
REMARK  1 active torsions:
REMARK  status: ('A' for Active; 'I' for Inactive)
REMARK    1  A    between atoms: N_2  and  C_1 
ROOT
ATOM      1  C   UNL d   1      58.058  -0.018  30.577  0.00  0.00     0.110 A 
ATOM      2  C   UNL d   1      58.809   0.325  30.727  0.00  0.00     0.212 A 
ATOM      3  C   UNL d   1      57.897  -0.347  29.833  0.00  0.00     0.056 A 
ATOM      4  C   UNL d   1      59.378   0.332  30.136  0.00  0.00     0.046 A 
ATOM      5  S   UNL d   1      58.486  -0.333  29.239  0.00  0.00    -0.085 SA
ATOM      6  C   UNL d   1      59.223   0.006  29.390  0.00  0.00     0.033 A 
ATOM      7  O   UNL d   1      58.969   0.650  31.465  0.00  0.00    -0.285 OA
ATOM      8  C   UNL d   1      60.116   0.669  30.280  0.00  0.00     0.004 A 
ATOM      9  C   UNL d   1      59.795   0.016  28.801  0.00  0.00     0.007 A 
ATOM     10  C   UNL d   1      60.693   0.682  29.696  0.00  0.00     0.000 A 
ATOM     11  C   UNL d   1      60.531   0.354  28.952  0.00  0.00     0.001 A 
ENDROOT
BRANCH   1  12
ATOM     12  N   UNL d   1      57.479  -0.030  31.168  0.00  0.00    -0.301 N 
ATOM     13  C   UNL d   1      57.218  -0.740  31.471  0.00  0.00     0.080 A 
ATOM     14  C   UNL d   1      56.638  -0.756  32.064  0.00  0.00     0.018 A 
ATOM     15  C   UNL d   1      56.376  -1.471  32.368  0.00  0.00     0.002 A 
ATOM     16  C   UNL d   1      56.325  -0.050  32.345  0.00  0.00     0.003 A 
ATOM     17  C   UNL d   1      55.798  -1.485  32.958  0.00  0.00     0.000 A 
ATOM     18  C   UNL d   1      55.484  -0.776  33.241  0.00  0.00     0.000 A 
ATOM     19  C   UNL d   1      55.749  -0.055  32.933  0.00  0.00     0.000 A 
ATOM     20  C   UNL d   1      56.588   0.682  32.039  0.00  0.00     0.019 A 
ATOM     21  C   UNL d   1      57.163   0.682  31.452  0.00  0.00     0.080 A 
ENDBRANCH   1  12
TORSDOF 1
ENDMDL
MODEL 2
REMARK VINA RESULT:      -5.5      1.188      4.275
REMARK  1 active torsions:
REMARK  status: ('A' for Active; 'I' for Inactive)
REMARK    1  A    between atoms: N_2  and  C_1 
ROOT
ATOM      1  C   UNL d   1      57.699   0.125  31.326  0.00  0.00     0.110 A 
ATOM      2  C   UNL d   1      57.161  -0.509  31.436  0.00  0.00     0.212 A 
ATOM      3  C   UNL d   1      57.808   0.682  31.931  0.00  0.00     0.056 A 
ATOM      4  C   UNL d   1      56.746  -0.573  32.141  0.00  0.00     0.046 A 
ATOM      5  S   UNL d   1      57.378   0.605  32.645  0.00  0.00    -0.085 SA
ATOM      6  C   UNL d   1      56.850  -0.019  32.750  0.00  0.00     0.033 A 
ATOM      7  O   UNL d   1      57.053  -1.061  30.836  0.00  0.00    -0.285 OA
ATOM      8  C   UNL d   1      56.216  -1.194  32.252  0.00  0.00     0.004 A 
ATOM      9  C   UNL d   1      56.433  -0.087  33.454  0.00  0.00     0.007 A 
ATOM     10  C   UNL d   1      55.796  -1.268  32.953  0.00  0.00     0.000 A 
ATOM     11  C   UNL d   1      55.905  -0.711  33.557  0.00  0.00     0.001 A 
ENDROOT
BRANCH   1  12
ATOM     12  N   UNL d   1      58.121   0.197  30.618  0.00  0.00    -0.301 N 
ATOM     13  C   UNL d   1      58.894  -0.055  30.576  0.00  0.00     0.080 A 
ATOM     14  C   UNL d   1      59.321   0.015  29.868  0.00  0.00     0.018 A 
ATOM     15  C   UNL d   1      60.100  -0.238  29.827  0.00  0.00     0.002 A 
ATOM     16  C   UNL d   1      58.959   0.340  29.206  0.00  0.00     0.003 A 
ATOM     17  C   UNL d   1      60.523  -0.168  29.121  0.00  0.00     0.000 A 
ATOM     18  C   UNL d   1      60.159   0.158  28.456  0.00  0.00     0.000 A 
ATOM     19  C   UNL d   1      59.374   0.413  28.499  0.00  0.00     0.000 A 
ATOM     20  C   UNL d   1      58.165   0.600  29.242  0.00  0.00     0.019 A 
ATOM     21  C   UNL d   1      57.756   0.524  29.950  0.00  0.00     0.080 A 
ENDBRANCH   1  12
TORSDOF 1
ENDMDL
MODEL 3
REMARK VINA RESULT:      -5.2      0.961      1.593
REMARK  1 active torsions:
REMARK  status: ('A' for Active; 'I' for Inactive)
REMARK    1  A    between atoms: N_2  and  C_1 
ROOT
ATOM      1  C   UNL d   1      57.778  -0.165  30.985  0.00  0.00     0.110 A 
ATOM      2  C   UNL d   1      57.877  -0.651  30.309  0.00  0.00     0.212 A 
ATOM      3  C   UNL d   1      58.262   0.501  31.089  0.00  0.00     0.056 A 
ATOM      4  C   UNL d   1      58.452  -0.463  29.754  0.00  0.00     0.046 A 
ATOM      5  S   UNL d   1      58.844   0.681  30.515  0.00  0.00    -0.085 SA
ATOM      6  C   UNL d   1      58.938   0.201  29.851  0.00  0.00     0.033 A 
ATOM      7  O   UNL d   1      57.398  -1.310  30.206  0.00  0.00    -0.285 OA
ATOM      8  C   UNL d   1      58.551  -0.938  29.088  0.00  0.00     0.004 A 
ATOM      9  C   UNL d   1      59.512   0.385  29.293  0.00  0.00     0.007 A 
ATOM     10  C   UNL d   1      59.123  -0.760  28.526  0.00  0.00     0.000 A 
ATOM     11  C   UNL d   1      59.606  -0.094  28.629  0.00  0.00     0.001 A 
ENDROOT
BRANCH   1  12
ATOM     12  N   UNL d   1      57.201  -0.347  31.549  0.00  0.00    -0.301 N 
ATOM     13  C   UNL d   1      56.781   0.249  31.913  0.00  0.00     0.080 A 
ATOM     14  C   UNL d   1      56.202   0.070  32.478  0.00  0.00     0.018 A 
ATOM     15  C   UNL d   1      55.780   0.671  32.843  0.00  0.00     0.002 A 
ATOM     16  C   UNL d   1      56.052  -0.715  32.673  0.00  0.00     0.003 A 
ATOM     17  C   UNL d   1      55.203   0.491  33.407  0.00  0.00     0.000 A 
ATOM     18  C   UNL d   1      55.052  -0.296  33.602  0.00  0.00     0.000 A 
ATOM     19  C   UNL d   1      55.479  -0.902  33.233  0.00  0.00     0.000 A 
ATOM     20  C   UNL d   1      56.479  -1.331  32.304  0.00  0.00     0.019 A 
ATOM     21  C   UNL d   1      57.050  -1.138  31.745  0.00  0.00     0.080 A 
ENDBRANCH   1  12
TORSDOF 1
ENDMDL
MODEL 4
REMARK VINA RESULT:      -3.2      2.721      3.430
REMARK  1 active torsions:
REMARK  status: ('A' for Active; 'I' for Inactive)
REMARK    1  A    between atoms: N_2  and  C_1 
ROOT
ATOM      1  C   UNL d   1      58.913  -2.311  29.189  0.00  0.00     0.110 A 
ATOM      2  C   UNL d   1      59.717  -2.505  29.329  0.00  0.00     0.212 A 
ATOM      3  C   UNL d   1      58.418  -2.854  28.806  0.00  0.00     0.056 A 
ATOM      4  C   UNL d   1      60.007  -3.233  29.084  0.00  0.00     0.046 A 
ATOM      5  S   UNL d   1      58.727  -3.593  28.561  0.00  0.00    -0.085 SA
ATOM      6  C   UNL d   1      59.518  -3.781  28.700  0.00  0.00     0.033 A 
ATOM      7  O   UNL d   1      60.208  -1.967  29.709  0.00  0.00    -0.285 OA
ATOM      8  C   UNL d   1      60.796  -3.428  29.219  0.00  0.00     0.004 A 
ATOM      9  C   UNL d   1      59.812  -4.509  28.457  0.00  0.00     0.007 A 
ATOM     10  C   UNL d   1      61.097  -4.153  28.980  0.00  0.00     0.000 A 
ATOM     11  C   UNL d   1      60.603  -4.696  28.596  0.00  0.00     0.001 A 
ENDROOT
BRANCH   1  12
ATOM     12  N   UNL d   1      58.613  -1.579  29.432  0.00  0.00    -0.301 N 
ATOM     13  C   UNL d   1      58.232  -1.511  30.149  0.00  0.00     0.080 A 
ATOM     14  C   UNL d   1      57.930  -0.779  30.397  0.00  0.00     0.018 A 
ATOM     15  C   UNL d   1      57.546  -0.712  31.118  0.00  0.00     0.002 A 
ATOM     16  C   UNL d   1      58.016  -0.120  29.914  0.00  0.00     0.003 A 
ATOM     17  C   UNL d   1      57.246   0.017  31.363  0.00  0.00     0.000 A 
ATOM     18  C   UNL d   1      57.333   0.679  30.879  0.00  0.00     0.000 A 
ATOM     19  C   UNL d   1      57.720   0.611  30.151  0.00  0.00     0.000 A 
ATOM     20  C   UNL d   1      58.406  -0.182  29.177  0.00  0.00     0.019 A 
ATOM     21  C   UNL d   1      58.700  -0.914  28.946  0.00  0.00     0.080 A 
ENDBRANCH   1  12
TORSDOF 1
ENDMDL
