MODEL 1
REMARK VINA RESULT:      93.3      0.000      0.000
REMARK  5 active torsions:
REMARK  status: ('A' for Active; 'I' for Inactive)
REMARK    1  A    between atoms: C_2  and  S_1 
REMARK    2  A    between atoms: N_3  and  S_1 
REMARK    3  A    between atoms: C_18  and  N_7 
REMARK    4  A    between atoms: O_27  and  C_9 
REMARK    5  A    between atoms: C_17  and  C_18 
ROOT
ATOM      1  N   UNL d   1      61.001  46.870  50.551  0.00  0.00    -0.226 N 
ATOM      2  N   UNL d   1      60.421  48.412  50.702  0.00  0.00    -0.300 N 
ATOM      3  C   UNL d   1      60.832  47.321  49.873  0.00  0.00     0.111 A 
ATOM      4  C   UNL d   1      60.876  47.197  51.301  0.00  0.00     0.111 A 
ATOM      5  C   UNL d   1      60.542  48.092  49.956  0.00  0.00     0.100 A 
ATOM      6  C   UNL d   1      60.589  47.961  51.380  0.00  0.00     0.100 A 
ENDROOT
BRANCH   1   7
ATOM      7  S   UNL d   1      61.289  46.102  50.470  0.00  0.00     0.273 S 
ATOM      8  O   UNL d   1      61.098  45.952  51.266  0.00  0.00    -0.200 OA
ATOM      9  O   UNL d   1      61.479  46.250  49.683  0.00  0.00    -0.200 OA
BRANCH   7  10
ATOM     10  C   UNL d   1      61.576  45.337  50.392  0.00  0.00     0.128 A 
ATOM     11  C   UNL d   1      61.450  44.780  50.992  0.00  0.00     0.044 A 
ATOM     12  C   UNL d   1      61.738  44.011  50.916  0.00  0.00     0.141 A 
ATOM     13  F   UNL d   1      61.611  43.466  51.511  0.00  0.00    -0.204 F 
ATOM     14  C   UNL d   1      62.157  43.792  50.233  0.00  0.00     0.032 A 
ATOM     15  C   UNL d   1      62.282  44.346  49.635  0.00  0.00     0.027 A 
ATOM     16  C   UNL d   1      61.995  45.119  49.709  0.00  0.00     0.106 A 
BRANCH  16  17
ATOM     17  O   UNL d   1      62.125  45.666  49.107  0.00  0.00    -0.327 OA
ATOM     18  C   UNL d   1      62.884  45.798  48.828  0.00  0.00     0.181 C 
ENDBRANCH  16  17
ENDBRANCH   7  10
ENDBRANCH   1   7
BRANCH   2  19
ATOM     19  C   UNL d   1      60.131  49.181  50.783  0.00  0.00     0.080 C 
BRANCH  19  20
ATOM     20  C   UNL d   1      59.316  49.322  50.811  0.00  0.00     0.020 A 
ATOM     21  C   UNL d   1      58.857  49.238  50.136  0.00  0.00     0.028 A 
ATOM     22  C   UNL d   1      58.045  49.380  50.165  0.00  0.00     0.119 A 
ATOM     23  O   UNL d   1      57.453  49.342  49.593  0.00  0.00    -0.300 OA
ATOM     24  C   UNL d   1      57.692  49.608  50.882  0.00  0.00     0.119 A 
ATOM     25  C   UNL d   1      56.737  49.545  49.951  0.00  0.00     0.304 A 
ATOM     26  O   UNL d   1      56.887  49.708  50.741  0.00  0.00    -0.300 OA
ATOM     27  C   UNL d   1      58.156  49.692  51.559  0.00  0.00     0.026 A 
ATOM     28  C   UNL d   1      58.963  49.551  51.528  0.00  0.00     0.004 A 
ENDBRANCH  19  20
ENDBRANCH   2  19
TORSDOF 5
ENDMDL
MODEL 2
REMARK VINA RESULT:      95.2      2.090      5.557
REMARK  5 active torsions:
REMARK  status: ('A' for Active; 'I' for Inactive)
REMARK    1  A    between atoms: C_2  and  S_1 
REMARK    2  A    between atoms: N_3  and  S_1 
REMARK    3  A    between atoms: C_18  and  N_7 
REMARK    4  A    between atoms: O_27  and  C_9 
REMARK    5  A    between atoms: C_17  and  C_18 
ROOT
ATOM      1  N   UNL d   1      61.274  46.773  50.419  0.00  0.00    -0.226 N 
ATOM      2  N   UNL d   1      61.551  45.301  49.715  0.00  0.00    -0.300 N 
ATOM      3  C   UNL d   1      60.854  46.102  50.674  0.00  0.00     0.111 A 
ATOM      4  C   UNL d   1      61.831  46.699  49.811  0.00  0.00     0.111 A 
ATOM      5  C   UNL d   1      60.997  45.369  50.317  0.00  0.00     0.100 A 
ATOM      6  C   UNL d   1      61.971  45.971  49.460  0.00  0.00     0.100 A 
ENDROOT
BRANCH   1   7
ATOM      7  S   UNL d   1      61.133  47.503  50.773  0.00  0.00     0.273 S 
ATOM      8  O   UNL d   1      60.418  47.209  51.082  0.00  0.00    -0.200 OA
ATOM      9  O   UNL d   1      61.839  47.795  50.468  0.00  0.00    -0.200 OA
BRANCH   7  10
ATOM     10  C   UNL d   1      60.989  48.230  51.127  0.00  0.00     0.128 A 
ATOM     11  C   UNL d   1      61.166  48.348  51.927  0.00  0.00     0.044 A 
ATOM     12  C   UNL d   1      61.023  49.077  52.284  0.00  0.00     0.141 A 
ATOM     13  F   UNL d   1      61.199  49.187  53.075  0.00  0.00    -0.204 F 
ATOM     14  C   UNL d   1      60.699  49.699  51.838  0.00  0.00     0.032 A 
ATOM     15  C   UNL d   1      60.523  49.583  51.042  0.00  0.00     0.027 A 
ATOM     16  C   UNL d   1      60.666  48.852  50.681  0.00  0.00     0.106 A 
BRANCH  16  17
ATOM     17  O   UNL d   1      60.487  48.744  49.883  0.00  0.00    -0.327 OA
ATOM     18  C   UNL d   1      60.148  49.352  49.452  0.00  0.00     0.181 C 
ENDBRANCH  16  17
ENDBRANCH   7  10
ENDBRANCH   1   7
BRANCH   2  19
ATOM     19  C   UNL d   1      61.692  44.569  49.361  0.00  0.00     0.080 C 
BRANCH  19  20
ATOM     20  C   UNL d   1      62.075  43.967  49.780  0.00  0.00     0.020 A 
ATOM     21  C   UNL d   1      61.775  43.706  50.498  0.00  0.00     0.028 A 
ATOM     22  C   UNL d   1      62.158  43.105  50.914  0.00  0.00     0.119 A 
ATOM     23  O   UNL d   1      61.994  42.735  51.632  0.00  0.00    -0.300 OA
ATOM     24  C   UNL d   1      62.850  42.764  50.604  0.00  0.00     0.119 A 
ATOM     25  C   UNL d   1      62.579  42.168  51.767  0.00  0.00     0.304 A 
ATOM     26  O   UNL d   1      63.102  42.188  51.136  0.00  0.00    -0.300 OA
ATOM     27  C   UNL d   1      63.148  43.028  49.882  0.00  0.00     0.026 A 
ATOM     28  C   UNL d   1      62.767  43.626  49.470  0.00  0.00     0.004 A 
ENDBRANCH  19  20
ENDBRANCH   2  19
TORSDOF 5
ENDMDL
MODEL 3
REMARK VINA RESULT:      95.2      1.982      5.341
REMARK  5 active torsions:
REMARK  status: ('A' for Active; 'I' for Inactive)
REMARK    1  A    between atoms: C_2  and  S_1 
REMARK    2  A    between atoms: N_3  and  S_1 
REMARK    3  A    between atoms: C_18  and  N_7 
REMARK    4  A    between atoms: O_27  and  C_9 
REMARK    5  A    between atoms: C_17  and  C_18 
ROOT
ATOM      1  N   UNL d   1      59.212  48.863  50.630  0.00  0.00    -0.226 N 
ATOM      2  N   UNL d   1      60.801  48.429  50.480  0.00  0.00    -0.300 N 
ATOM      3  C   UNL d   1      59.507  48.208  51.047  0.00  0.00     0.111 A 
ATOM      4  C   UNL d   1      59.718  49.297  50.140  0.00  0.00     0.111 A 
ATOM      5  C   UNL d   1      60.304  47.996  50.968  0.00  0.00     0.100 A 
ATOM      6  C   UNL d   1      60.507  49.085  50.063  0.00  0.00     0.100 A 
ENDROOT
BRANCH   1   7
ATOM      7  S   UNL d   1      58.419  49.075  50.709  0.00  0.00     0.273 S 
ATOM      8  O   UNL d   1      58.221  48.532  50.110  0.00  0.00    -0.200 OA
ATOM      9  O   UNL d   1      58.615  49.612  51.300  0.00  0.00    -0.200 OA
BRANCH   7  10
ATOM     10  C   UNL d   1      57.629  49.284  50.784  0.00  0.00     0.128 A 
ATOM     11  C   UNL d   1      57.273  49.309  51.532  0.00  0.00     0.044 A 
ATOM     12  C   UNL d   1      56.479  49.519  51.610  0.00  0.00     0.141 A 
ATOM     13  F   UNL d   1      56.133  49.541  52.350  0.00  0.00    -0.204 F 
ATOM     14  C   UNL d   1      56.033  49.708  50.935  0.00  0.00     0.032 A 
ATOM     15  C   UNL d   1      56.387  49.684  50.191  0.00  0.00     0.027 A 
ATOM     16  C   UNL d   1      57.183  49.473  50.109  0.00  0.00     0.106 A 
BRANCH  16  17
ATOM     17  O   UNL d   1      57.529  49.452  49.361  0.00  0.00    -0.327 OA
ATOM     18  C   UNL d   1      58.301  49.707  49.258  0.00  0.00     0.181 C 
ENDBRANCH  16  17
ENDBRANCH   7  10
ENDBRANCH   1   7
BRANCH   2  19
ATOM     19  C   UNL d   1      61.595  48.217  50.402  0.00  0.00     0.080 C 
BRANCH  19  20
ATOM     20  C   UNL d   1      61.804  47.491  50.064  0.00  0.00     0.020 A 
ATOM     21  C   UNL d   1      61.495  46.791  50.361  0.00  0.00     0.028 A 
ATOM     22  C   UNL d   1      61.704  46.068  50.024  0.00  0.00     0.119 A 
ATOM     23  O   UNL d   1      61.490  45.291  50.196  0.00  0.00    -0.300 OA
ATOM     24  C   UNL d   1      62.230  46.049  49.381  0.00  0.00     0.119 A 
ATOM     25  C   UNL d   1      61.879  44.793  49.665  0.00  0.00     0.304 A 
ATOM     26  O   UNL d   1      62.332  45.261  49.167  0.00  0.00    -0.300 OA
ATOM     27  C   UNL d   1      62.539  46.754  49.085  0.00  0.00     0.026 A 
ATOM     28  C   UNL d   1      62.330  47.472  49.421  0.00  0.00     0.004 A 
ENDBRANCH  19  20
ENDBRANCH   2  19
TORSDOF 5
ENDMDL
