MODEL 1
REMARK VINA RESULT:      -2.4      0.000      0.000
REMARK  2 active torsions:
REMARK  status: ('A' for Active; 'I' for Inactive)
REMARK    1  A    between atoms: C_4  and  C_3 
REMARK    2  A    between atoms: S_11  and  C_6 
ROOT
ATOM      1  N   UNL d   1      30.790  15.960 -23.235  0.00  0.00    -0.146 NA
ATOM      2  N   UNL d   1      29.995  15.748 -23.318  0.00  0.00    -0.142 NA
ATOM      3  C   UNL d   1      31.110  16.545 -23.716  0.00  0.00     0.126 A 
ATOM      4  C   UNL d   1      29.525  16.124 -23.883  0.00  0.00     0.128 A 
ATOM      5  C   UNL d   1      30.640  16.921 -24.280  0.00  0.00     0.025 A 
ATOM      6  C   UNL d   1      29.849  16.711 -24.363  0.00  0.00     0.029 A 
ENDROOT
BRANCH   3   7
ATOM      7  C   UNL d   1      31.897  16.760 -23.638  0.00  0.00     0.119 A 
ATOM      8  O   UNL d   1      32.176  17.446 -23.279  0.00  0.00    -0.304 OA
ATOM      9  C   UNL d   1      33.003  17.450 -23.318  0.00  0.00     0.123 A 
ATOM     10  C   UNL d   1      33.239  16.755 -23.709  0.00  0.00     0.029 A 
ATOM     11  C   UNL d   1      32.554  16.333 -23.905  0.00  0.00     0.028 A 
ENDBRANCH   3   7
BRANCH   4  12
ATOM     12  S   UNL d   1      28.730  15.913 -23.967  0.00  0.00    -0.092 SA
ATOM     13  C   UNL d   1      28.160  16.245 -23.471  0.00  0.00     0.076 C 
ENDBRANCH   4  12
TORSDOF 2
ENDMDL
MODEL 2
REMARK VINA RESULT:      -2.4      1.825      3.345
REMARK  2 active torsions:
REMARK  status: ('A' for Active; 'I' for Inactive)
REMARK    1  A    between atoms: C_4  and  C_3 
REMARK    2  A    between atoms: S_11  and  C_6 
ROOT
ATOM      1  N   UNL d   1      30.377  17.291 -24.364  0.00  0.00    -0.146 NA
ATOM      2  N   UNL d   1      31.114  17.665 -24.328  0.00  0.00    -0.142 NA
ATOM      3  C   UNL d   1      30.277  16.551 -24.019  0.00  0.00     0.126 A 
ATOM      4  C   UNL d   1      31.746  17.296 -23.947  0.00  0.00     0.128 A 
ATOM      5  C   UNL d   1      30.909  16.182 -23.638  0.00  0.00     0.025 A 
ATOM      6  C   UNL d   1      31.642  16.554 -23.602  0.00  0.00     0.029 A 
ENDROOT
BRANCH   3   7
ATOM      7  C   UNL d   1      29.550  16.174 -24.051  0.00  0.00     0.119 A 
ATOM      8  O   UNL d   1      29.261  15.739 -24.687  0.00  0.00    -0.304 OA
ATOM      9  C   UNL d   1      28.509  15.453 -24.494  0.00  0.00     0.123 A 
ATOM     10  C   UNL d   1      28.330  15.716 -23.726  0.00  0.00     0.029 A 
ATOM     11  C   UNL d   1      28.974  16.160 -23.456  0.00  0.00     0.028 A 
ENDBRANCH   3   7
BRANCH   4  12
ATOM     12  S   UNL d   1      32.483  17.670 -23.911  0.00  0.00    -0.092 SA
ATOM     13  C   UNL d   1      32.587  18.332 -23.430  0.00  0.00     0.076 C 
ENDBRANCH   4  12
TORSDOF 2
ENDMDL
MODEL 3
REMARK VINA RESULT:      -2.3      7.770      8.643
REMARK  2 active torsions:
REMARK  status: ('A' for Active; 'I' for Inactive)
REMARK    1  A    between atoms: C_4  and  C_3 
REMARK    2  A    between atoms: S_11  and  C_6 
ROOT
ATOM      1  N   UNL d   1      32.195  23.702 -19.444  0.00  0.00    -0.146 NA
ATOM      2  N   UNL d   1      32.227  23.578 -20.261  0.00  0.00    -0.142 NA
ATOM      3  C   UNL d   1      32.665  23.250 -18.943  0.00  0.00     0.126 A 
ATOM      4  C   UNL d   1      32.728  23.002 -20.572  0.00  0.00     0.128 A 
ATOM      5  C   UNL d   1      33.167  22.673 -19.254  0.00  0.00     0.025 A 
ATOM      6  C   UNL d   1      33.198  22.550 -20.067  0.00  0.00     0.029 A 
ENDROOT
BRANCH   3   7
ATOM      7  C   UNL d   1      32.639  23.367 -18.133  0.00  0.00     0.119 A 
ATOM      8  O   UNL d   1      33.241  23.187 -17.601  0.00  0.00    -0.304 OA
ATOM      9  C   UNL d   1      32.992  23.391 -16.838  0.00  0.00     0.123 A 
ATOM     10  C   UNL d   1      32.224  23.702 -16.900  0.00  0.00     0.029 A 
ATOM     11  C   UNL d   1      32.010  23.686 -17.699  0.00  0.00     0.028 A 
ENDBRANCH   3   7
BRANCH   4  12
ATOM     12  S   UNL d   1      32.760  22.877 -21.389  0.00  0.00    -0.092 SA
ATOM     13  C   UNL d   1      32.534  23.478 -21.907  0.00  0.00     0.076 C 
ENDBRANCH   4  12
TORSDOF 2
ENDMDL
MODEL 4
REMARK VINA RESULT:      -2.3      1.825      3.180
REMARK  2 active torsions:
REMARK  status: ('A' for Active; 'I' for Inactive)
REMARK    1  A    between atoms: C_4  and  C_3 
REMARK    2  A    between atoms: S_11  and  C_6 
ROOT
ATOM      1  N   UNL d   1      31.469  16.499 -23.538  0.00  0.00    -0.146 NA
ATOM      2  N   UNL d   1      32.163  16.861 -23.270  0.00  0.00    -0.142 NA
ATOM      3  C   UNL d   1      30.997  16.881 -24.093  0.00  0.00     0.126 A 
ATOM      4  C   UNL d   1      32.380  17.602 -23.558  0.00  0.00     0.128 A 
ATOM      5  C   UNL d   1      31.214  17.622 -24.382  0.00  0.00     0.025 A 
ATOM      6  C   UNL d   1      31.905  17.982 -24.115  0.00  0.00     0.029 A 
ENDROOT
BRANCH   3   7
ATOM      7  C   UNL d   1      30.309  16.529 -24.363  0.00  0.00     0.119 A 
ATOM      8  O   UNL d   1      29.567  16.588 -24.011  0.00  0.00    -0.304 OA
ATOM      9  C   UNL d   1      29.024  16.152 -24.457  0.00  0.00     0.123 A 
ATOM     10  C   UNL d   1      29.436  15.817 -25.096  0.00  0.00     0.029 A 
ATOM     11  C   UNL d   1      30.228  16.051 -25.035  0.00  0.00     0.028 A 
ENDBRANCH   3   7
BRANCH   4  12
ATOM     12  S   UNL d   1      33.074  17.964 -23.290  0.00  0.00    -0.092 SA
ATOM     13  C   UNL d   1      33.036  18.556 -22.717  0.00  0.00     0.076 C 
ENDBRANCH   4  12
TORSDOF 2
ENDMDL
MODEL 5
REMARK VINA RESULT:      -1.9      5.081      6.018
REMARK  2 active torsions:
REMARK  status: ('A' for Active; 'I' for Inactive)
REMARK    1  A    between atoms: C_4  and  C_3 
REMARK    2  A    between atoms: S_11  and  C_6 
ROOT
ATOM      1  N   UNL d   1      32.194  21.137 -20.990  0.00  0.00    -0.146 NA
ATOM      2  N   UNL d   1      32.038  21.881 -20.663  0.00  0.00    -0.142 NA
ATOM      3  C   UNL d   1      32.759  21.062 -21.583  0.00  0.00     0.126 A 
ATOM      4  C   UNL d   1      32.449  22.544 -20.931  0.00  0.00     0.128 A 
ATOM      5  C   UNL d   1      33.169  21.725 -21.852  0.00  0.00     0.025 A 
ATOM      6  C   UNL d   1      33.014  22.465 -21.526  0.00  0.00     0.029 A 
ENDROOT
BRANCH   3   7
ATOM      7  C   UNL d   1      32.918  20.329 -21.912  0.00  0.00     0.119 A 
ATOM      8  O   UNL d   1      33.130  19.650 -21.496  0.00  0.00    -0.304 OA
ATOM      9  C   UNL d   1      33.241  19.032 -22.035  0.00  0.00     0.123 A 
ATOM     10  C   UNL d   1      33.096  19.332 -22.796  0.00  0.00     0.029 A 
ATOM     11  C   UNL d   1      32.897  20.132 -22.716  0.00  0.00     0.028 A 
ENDBRANCH   3   7
BRANCH   4  12
ATOM     12  S   UNL d   1      32.293  23.288 -20.604  0.00  0.00    -0.092 SA
ATOM     13  C   UNL d   1      32.479  23.439 -19.815  0.00  0.00     0.076 C 
ENDBRANCH   4  12
TORSDOF 2
ENDMDL
MODEL 6
REMARK VINA RESULT:      -0.6      5.258      6.194
REMARK  2 active torsions:
REMARK  status: ('A' for Active; 'I' for Inactive)
REMARK    1  A    between atoms: C_4  and  C_3 
REMARK    2  A    between atoms: S_11  and  C_6 
ROOT
ATOM      1  N   UNL d   1      32.341  21.052 -21.026  0.00  0.00    -0.146 NA
ATOM      2  N   UNL d   1      32.563  20.324 -21.348  0.00  0.00    -0.142 NA
ATOM      3  C   UNL d   1      32.570  21.750 -21.396  0.00  0.00     0.126 A 
ATOM      4  C   UNL d   1      33.013  20.298 -22.039  0.00  0.00     0.128 A 
ATOM      5  C   UNL d   1      33.020  21.724 -22.087  0.00  0.00     0.025 A 
ATOM      6  C   UNL d   1      33.241  20.999 -22.408  0.00  0.00     0.029 A 
ENDROOT
BRANCH   3   7
ATOM      7  C   UNL d   1      32.354  22.476 -21.083  0.00  0.00     0.119 A 
ATOM      8  O   UNL d   1      31.793  22.989 -21.399  0.00  0.00    -0.304 OA
ATOM      9  C   UNL d   1      31.742  23.658 -20.915  0.00  0.00     0.123 A 
ATOM     10  C   UNL d   1      32.280  23.557 -20.290  0.00  0.00     0.029 A 
ATOM     11  C   UNL d   1      32.656  22.827 -20.397  0.00  0.00     0.028 A 
ENDBRANCH   3   7
BRANCH   4  12
ATOM     12  S   UNL d   1      33.235  19.569 -22.361  0.00  0.00    -0.092 SA
ATOM     13  C   UNL d   1      32.736  19.183 -22.892  0.00  0.00     0.076 C 
ENDBRANCH   4  12
TORSDOF 2
ENDMDL
