MODEL 1
REMARK VINA RESULT:      -1.0      0.000      0.000
REMARK  6 active torsions:
REMARK  status: ('A' for Active; 'I' for Inactive)
REMARK    1  A    between atoms: C_7  and  S_1 
REMARK    2  A    between atoms: N_18  and  S_1 
REMARK    3  A    between atoms: C_6  and  C_4 
REMARK    4  A    between atoms: C_9  and  C_24 
REMARK    5  A    between atoms: C_26  and  N_18 
REMARK    6  A    between atoms: C_24  and  C_26 
ROOT
ATOM      1  S   UNL d   1      31.781  21.335 -21.050  0.00  0.00     0.285 S 
ATOM      2  O   UNL d   1      31.407  20.744 -21.488  0.00  0.00    -0.198 OA
ATOM      3  O   UNL d   1      31.046  21.605 -20.803  0.00  0.00    -0.198 OA
ENDROOT
BRANCH   1   4
ATOM      4  C   UNL d   1      32.145  21.925 -20.612  0.00  0.00     0.105 A 
ATOM      5  C   UNL d   1      32.259  21.827 -19.801  0.00  0.00     0.019 A 
ATOM      6  C   UNL d   1      32.622  22.414 -19.363  0.00  0.00     0.100 A 
ATOM      7  C   UNL d   1      32.876  23.109 -19.732  0.00  0.00     0.144 A 
ATOM      8  C   UNL d   1      32.763  23.208 -20.539  0.00  0.00     0.030 A 
ATOM      9  F   UNL d   1      33.241  23.702 -19.298  0.00  0.00    -0.204 F 
ATOM     10  C   UNL d   1      32.399  22.620 -20.982  0.00  0.00     0.015 A 
BRANCH   6  11
ATOM     11  C   UNL d   1      32.734  22.314 -18.559  0.00  0.00     0.421 C 
ATOM     12  F   UNL d   1      32.831  22.227 -17.817  0.00  0.00    -0.166 F 
ATOM     13  F   UNL d   1      33.223  21.742 -18.142  0.00  0.00    -0.166 F 
ATOM     14  F   UNL d   1      32.387  22.758 -17.905  0.00  0.00    -0.166 F 
ENDBRANCH   6  11
ENDBRANCH   1   4
BRANCH   1  15
ATOM     15  N   UNL d   1      32.516  21.055 -21.305  0.00  0.00    -0.157 NA
BRANCH  15  16
ATOM     16  C   UNL d   1      32.564  20.526 -21.916  0.00  0.00     0.114 C 
BRANCH  16  17
ATOM     17  C   UNL d   1      33.241  20.053 -22.008  0.00  0.00     0.042 C 
BRANCH  17  18
ATOM     18  C   UNL d   1      33.187  19.339 -22.445  0.00  0.00     0.102 A 
ATOM     19  N   UNL d   1      33.231  18.588 -22.140  0.00  0.00    -0.227 NA
ATOM     20  C   UNL d   1      33.153  18.043 -22.756  0.00  0.00     0.148 A 
ATOM     21  C   UNL d   1      33.155  17.221 -22.769  0.00  0.00     0.037 A 
ATOM     22  N   UNL d   1      33.058  18.465 -23.453  0.00  0.00    -0.288 N 
ATOM     23  C   UNL d   1      33.063  16.824 -23.482  0.00  0.00     0.004 A 
ATOM     24  C   UNL d   1      33.066  15.999 -23.492  0.00  0.00     0.000 C 
ATOM     25  C   UNL d   1      32.967  17.234 -24.185  0.00  0.00     0.019 A 
ATOM     26  C   UNL d   1      32.965  18.065 -24.168  0.00  0.00     0.082 A 
ATOM     27  C   UNL d   1      33.077  19.276 -23.271  0.00  0.00     0.101 A 
ENDBRANCH  17  18
ENDBRANCH  16  17
ENDBRANCH  15  16
ENDBRANCH   1  15
TORSDOF 6
ENDMDL
MODEL 2
REMARK VINA RESULT:      -0.2      1.236      1.367
REMARK  6 active torsions:
REMARK  status: ('A' for Active; 'I' for Inactive)
REMARK    1  A    between atoms: C_7  and  S_1 
REMARK    2  A    between atoms: N_18  and  S_1 
REMARK    3  A    between atoms: C_6  and  C_4 
REMARK    4  A    between atoms: C_9  and  C_24 
REMARK    5  A    between atoms: C_26  and  N_18 
REMARK    6  A    between atoms: C_24  and  C_26 
ROOT
ATOM      1  S   UNL d   1      33.079  22.147 -22.709  0.00  0.00     0.285 S 
ATOM      2  O   UNL d   1      33.192  21.778 -23.437  0.00  0.00    -0.198 OA
ATOM      3  O   UNL d   1      32.922  22.852 -23.101  0.00  0.00    -0.198 OA
ENDROOT
BRANCH   1   4
ATOM      4  C   UNL d   1      32.964  22.523 -21.988  0.00  0.00     0.105 A 
ATOM      5  C   UNL d   1      32.696  22.093 -21.337  0.00  0.00     0.019 A 
ATOM      6  C   UNL d   1      32.582  22.465 -20.618  0.00  0.00     0.100 A 
ATOM      7  C   UNL d   1      32.734  23.274 -20.542  0.00  0.00     0.144 A 
ATOM      8  C   UNL d   1      33.000  23.702 -21.189  0.00  0.00     0.030 A 
ATOM      9  F   UNL d   1      32.621  23.654 -19.823  0.00  0.00    -0.204 F 
ATOM     10  C   UNL d   1      33.116  23.332 -21.912  0.00  0.00     0.015 A 
BRANCH   6  11
ATOM     11  C   UNL d   1      32.317  22.036 -19.974  0.00  0.00     0.421 C 
ATOM     12  F   UNL d   1      32.065  21.645 -19.382  0.00  0.00    -0.166 F 
ATOM     13  F   UNL d   1      32.734  21.460 -19.491  0.00  0.00    -0.166 F 
ATOM     14  F   UNL d   1      31.538  22.046 -19.602  0.00  0.00    -0.166 F 
ENDBRANCH   6  11
ENDBRANCH   1   4
BRANCH   1  15
ATOM     15  N   UNL d   1      33.238  21.433 -22.325  0.00  0.00    -0.157 NA
BRANCH  15  16
ATOM     16  C   UNL d   1      33.200  20.733 -22.728  0.00  0.00     0.114 C 
BRANCH  16  17
ATOM     17  C   UNL d   1      33.207  20.011 -22.317  0.00  0.00     0.042 C 
BRANCH  17  18
ATOM     18  C   UNL d   1      33.114  19.294 -22.743  0.00  0.00     0.102 A 
ATOM     19  N   UNL d   1      33.239  18.547 -22.452  0.00  0.00    -0.227 NA
ATOM     20  C   UNL d   1      33.085  17.997 -23.051  0.00  0.00     0.148 A 
ATOM     21  C   UNL d   1      33.121  17.176 -23.068  0.00  0.00     0.037 A 
ATOM     22  N   UNL d   1      32.861  18.414 -23.721  0.00  0.00    -0.288 N 
ATOM     23  C   UNL d   1      32.931  16.775 -23.759  0.00  0.00     0.004 A 
ATOM     24  C   UNL d   1      32.968  15.951 -23.773  0.00  0.00     0.000 C 
ATOM     25  C   UNL d   1      32.706  17.179 -24.435  0.00  0.00     0.019 A 
ATOM     26  C   UNL d   1      32.671  18.009 -24.414  0.00  0.00     0.082 A 
ATOM     27  C   UNL d   1      32.875  19.225 -23.541  0.00  0.00     0.101 A 
ENDBRANCH  17  18
ENDBRANCH  16  17
ENDBRANCH  15  16
ENDBRANCH   1  15
TORSDOF 6
ENDMDL
MODEL 3
REMARK VINA RESULT:       0.0      3.511      4.847
REMARK  6 active torsions:
REMARK  status: ('A' for Active; 'I' for Inactive)
REMARK    1  A    between atoms: C_7  and  S_1 
REMARK    2  A    between atoms: N_18  and  S_1 
REMARK    3  A    between atoms: C_6  and  C_4 
REMARK    4  A    between atoms: C_9  and  C_24 
REMARK    5  A    between atoms: C_26  and  N_18 
REMARK    6  A    between atoms: C_24  and  C_26 
ROOT
ATOM      1  S   UNL d   1      32.375  18.040 -24.332  0.00  0.00     0.285 S 
ATOM      2  O   UNL d   1      32.163  17.817 -25.096  0.00  0.00    -0.198 OA
ATOM      3  O   UNL d   1      32.780  18.683 -24.641  0.00  0.00    -0.198 OA
ENDROOT
BRANCH   1   4
ATOM      4  C   UNL d   1      32.590  18.268 -23.573  0.00  0.00     0.105 A 
ATOM      5  C   UNL d   1      32.446  19.040 -23.318  0.00  0.00     0.019 A 
ATOM      6  C   UNL d   1      32.660  19.269 -22.563  0.00  0.00     0.100 A 
ATOM      7  C   UNL d   1      33.021  18.728 -22.053  0.00  0.00     0.144 A 
ATOM      8  C   UNL d   1      33.165  17.961 -22.306  0.00  0.00     0.030 A 
ATOM      9  F   UNL d   1      33.238  18.951 -21.293  0.00  0.00    -0.204 F 
ATOM     10  C   UNL d   1      32.951  17.727 -23.063  0.00  0.00     0.015 A 
BRANCH   6  11
ATOM     11  C   UNL d   1      32.516  20.034 -22.313  0.00  0.00     0.421 C 
ATOM     12  F   UNL d   1      32.390  20.742 -22.087  0.00  0.00    -0.166 F 
ATOM     13  F   UNL d   1      31.911  20.330 -21.779  0.00  0.00    -0.166 F 
ATOM     14  F   UNL d   1      32.938  20.758 -22.519  0.00  0.00    -0.166 F 
ENDBRANCH   6  11
ENDBRANCH   1   4
BRANCH   1  15
ATOM     15  N   UNL d   1      31.964  17.388 -24.031  0.00  0.00    -0.157 NA
BRANCH  15  16
ATOM     16  C   UNL d   1      31.542  16.906 -24.525  0.00  0.00     0.114 C 
BRANCH  16  17
ATOM     17  C   UNL d   1      31.305  16.151 -24.272  0.00  0.00     0.042 C 
BRANCH  17  18
ATOM     18  C   UNL d   1      30.543  16.052 -23.934  0.00  0.00     0.102 A 
ATOM     19  N   UNL d   1      29.839  16.276 -24.269  0.00  0.00    -0.227 NA
ATOM     20  C   UNL d   1      29.222  16.078 -23.754  0.00  0.00     0.148 A 
ATOM     21  C   UNL d   1      28.408  16.174 -23.808  0.00  0.00     0.037 A 
ATOM     22  N   UNL d   1      29.553  15.725 -23.092  0.00  0.00    -0.288 N 
ATOM     23  C   UNL d   1      27.926  15.916 -23.195  0.00  0.00     0.004 A 
ATOM     24  C   UNL d   1      27.109  16.014 -23.251  0.00  0.00     0.000 C 
ATOM     25  C   UNL d   1      28.244  15.562 -22.528  0.00  0.00     0.019 A 
ATOM     26  C   UNL d   1      29.068  15.467 -22.477  0.00  0.00     0.082 A 
ATOM     27  C   UNL d   1      30.378  15.703 -23.192  0.00  0.00     0.101 A 
ENDBRANCH  17  18
ENDBRANCH  16  17
ENDBRANCH  15  16
ENDBRANCH   1  15
TORSDOF 6
ENDMDL
