MODEL 1
REMARK VINA RESULT:      -2.3      0.000      0.000
REMARK  1 active torsions:
REMARK  status: ('A' for Active; 'I' for Inactive)
REMARK    1  A    between atoms: C_6  and  CA_1 
ROOT
ATOM      1  CA  UNL d   1      46.554 -19.440  42.422  0.00  0.00     0.147 A 
ATOM      2  N   UNL d   1      46.583 -20.153  42.825  0.00  0.00    -0.237 NA
ATOM      3  C   UNL d   1      46.522 -18.828  42.975  0.00  0.00     0.052 A 
ATOM      4  C   UNL d   1      46.568 -19.985  43.633  0.00  0.00     0.106 A 
ATOM      5  C   UNL d   1      46.530 -19.168  43.725  0.00  0.00     0.119 A 
ATOM      6  C   UNL d   1      46.577 -20.326  44.384  0.00  0.00     0.048 A 
ATOM      7  O   UNL d   1      46.516 -19.001  44.534  0.00  0.00    -0.303 OA
ATOM      8  C   UNL d   1      46.544 -19.717  44.944  0.00  0.00     0.124 A 
ENDROOT
BRANCH   1   9
ATOM      9  C   UNL d   1      46.557 -19.350  41.599  0.00  0.00     0.230 C 
ATOM     10  O   UNL d   1      46.625 -20.008  41.111  0.00  0.00    -0.643 OA
ATOM     11  OXT UNL d   1      46.493 -18.600  41.268  0.00  0.00    -0.643 OA
ENDBRANCH   1   9
TORSDOF 1
ENDMDL
MODEL 2
REMARK VINA RESULT:      -1.9      0.627      2.631
REMARK  1 active torsions:
REMARK  status: ('A' for Active; 'I' for Inactive)
REMARK    1  A    between atoms: C_6  and  CA_1 
ROOT
ATOM      1  CA  UNL d   1      46.517 -19.502  43.656  0.00  0.00     0.147 A 
ATOM      2  N   UNL d   1      46.561 -20.115  43.114  0.00  0.00    -0.237 NA
ATOM      3  C   UNL d   1      46.521 -18.787  43.243  0.00  0.00     0.052 A 
ATOM      4  C   UNL d   1      46.593 -19.781  42.360  0.00  0.00     0.106 A 
ATOM      5  C   UNL d   1      46.568 -18.962  42.440  0.00  0.00     0.119 A 
ATOM      6  C   UNL d   1      46.640 -19.957  41.555  0.00  0.00     0.048 A 
ATOM      7  O   UNL d   1      46.600 -18.629  41.685  0.00  0.00    -0.303 OA
ATOM      8  C   UNL d   1      46.645 -19.244  41.135  0.00  0.00     0.124 A 
ENDROOT
BRANCH   1   9
ATOM      9  C   UNL d   1      46.475 -19.586  44.479  0.00  0.00     0.230 C 
ATOM     10  O   UNL d   1      46.275 -18.943  44.950  0.00  0.00    -0.643 OA
ATOM     11  OXT UNL d   1      46.634 -20.314  44.825  0.00  0.00    -0.643 OA
ENDBRANCH   1   9
TORSDOF 1
ENDMDL
MODEL 3
REMARK VINA RESULT:      -1.0      7.839      7.972
REMARK  1 active torsions:
REMARK  status: ('A' for Active; 'I' for Inactive)
REMARK    1  A    between atoms: C_6  and  CA_1 
ROOT
ATOM      1  CA  UNL d   1      44.407 -15.485  36.695  0.00  0.00     0.147 A 
ATOM      2  N   UNL d   1      45.137 -15.782  36.470  0.00  0.00    -0.237 NA
ATOM      3  C   UNL d   1      44.524 -14.753  37.060  0.00  0.00     0.052 A 
ATOM      4  C   UNL d   1      45.712 -15.235  36.695  0.00  0.00     0.106 A 
ATOM      5  C   UNL d   1      45.334 -14.600  37.059  0.00  0.00     0.119 A 
ATOM      6  C   UNL d   1      46.522 -15.082  36.694  0.00  0.00     0.048 A 
ATOM      7  O   UNL d   1      45.910 -14.052  37.283  0.00  0.00    -0.303 OA
ATOM      8  C   UNL d   1      46.647 -14.349  37.058  0.00  0.00     0.124 A 
ENDROOT
BRANCH   1   9
ATOM      9  C   UNL d   1      43.676 -15.855  36.577  0.00  0.00     0.230 C 
ATOM     10  O   UNL d   1      42.978 -15.442  36.705  0.00  0.00    -0.643 OA
ATOM     11  OXT UNL d   1      43.649 -16.639  36.330  0.00  0.00    -0.643 OA
ENDBRANCH   1   9
TORSDOF 1
ENDMDL
MODEL 4
REMARK VINA RESULT:      -0.8      7.796      8.137
REMARK  1 active torsions:
REMARK  status: ('A' for Active; 'I' for Inactive)
REMARK    1  A    between atoms: C_6  and  CA_1 
ROOT
ATOM      1  CA  UNL d   1      45.225 -15.071  36.730  0.00  0.00     0.147 A 
ATOM      2  N   UNL d   1      44.495 -14.699  36.721  0.00  0.00    -0.237 NA
ATOM      3  C   UNL d   1      45.111 -15.876  36.587  0.00  0.00     0.052 A 
ATOM      4  C   UNL d   1      43.923 -15.274  36.572  0.00  0.00     0.106 A 
ATOM      5  C   UNL d   1      44.302 -16.000  36.490  0.00  0.00     0.119 A 
ATOM      6  C   UNL d   1      43.113 -15.398  36.475  0.00  0.00     0.048 A 
ATOM      7  O   UNL d   1      43.729 -16.575  36.341  0.00  0.00    -0.303 OA
ATOM      8  C   UNL d   1      42.991 -16.205  36.331  0.00  0.00     0.124 A 
ENDROOT
BRANCH   1   9
ATOM      9  C   UNL d   1      45.955 -14.701  36.860  0.00  0.00     0.230 C 
ATOM     10  O   UNL d   1      46.647 -15.040  36.575  0.00  0.00    -0.643 OA
ATOM     11  OXT UNL d   1      45.987 -13.992  37.276  0.00  0.00    -0.643 OA
ENDBRANCH   1   9
TORSDOF 1
ENDMDL
MODEL 5
REMARK VINA RESULT:      -0.7      5.848      6.352
REMARK  1 active torsions:
REMARK  status: ('A' for Active; 'I' for Inactive)
REMARK    1  A    between atoms: C_6  and  CA_1 
ROOT
ATOM      1  CA  UNL d   1      45.057 -13.005  43.449  0.00  0.00     0.147 A 
ATOM      2  N   UNL d   1      44.588 -13.584  43.789  0.00  0.00    -0.237 NA
ATOM      3  C   UNL d   1      45.839 -13.133  43.679  0.00  0.00     0.052 A 
ATOM      4  C   UNL d   1      45.079 -14.076  44.233  0.00  0.00     0.106 A 
ATOM      5  C   UNL d   1      45.851 -13.798  44.165  0.00  0.00     0.119 A 
ATOM      6  C   UNL d   1      45.091 -14.742  44.720  0.00  0.00     0.048 A 
ATOM      7  O   UNL d   1      46.343 -14.290  44.610  0.00  0.00    -0.303 OA
ATOM      8  C   UNL d   1      45.874 -14.876  44.955  0.00  0.00     0.124 A 
ENDROOT
BRANCH   1   9
ATOM      9  C   UNL d   1      44.790 -12.394  42.957  0.00  0.00     0.230 C 
ATOM     10  O   UNL d   1      45.277 -12.099  42.364  0.00  0.00    -0.643 OA
ATOM     11  OXT UNL d   1      44.037 -12.082  43.062  0.00  0.00    -0.643 OA
ENDBRANCH   1   9
TORSDOF 1
ENDMDL
MODEL 6
REMARK VINA RESULT:       0.6      5.593      6.436
REMARK  1 active torsions:
REMARK  status: ('A' for Active; 'I' for Inactive)
REMARK    1  A    between atoms: C_6  and  CA_1 
ROOT
ATOM      1  CA  UNL d   1      45.393 -14.304  44.365  0.00  0.00     0.147 A 
ATOM      2  N   UNL d   1      45.862 -13.641  44.472  0.00  0.00    -0.237 NA
ATOM      3  C   UNL d   1      44.812 -14.126  43.806  0.00  0.00     0.052 A 
ATOM      4  C   UNL d   1      45.574 -13.046  43.978  0.00  0.00     0.106 A 
ATOM      5  C   UNL d   1      44.926 -13.346  43.567  0.00  0.00     0.119 A 
ATOM      6  C   UNL d   1      45.688 -12.265  43.738  0.00  0.00     0.048 A 
ATOM      7  O   UNL d   1      44.638 -12.751  43.072  0.00  0.00    -0.303 OA
ATOM      8  C   UNL d   1      45.108 -12.080  43.177  0.00  0.00     0.124 A 
ENDROOT
BRANCH   1   9
ATOM      9  C   UNL d   1      45.486 -15.030  44.753  0.00  0.00     0.230 C 
ATOM     10  O   UNL d   1      44.828 -15.487  44.937  0.00  0.00    -0.643 OA
ATOM     11  OXT UNL d   1      46.238 -15.294  44.955  0.00  0.00    -0.643 OA
ENDBRANCH   1   9
TORSDOF 1
ENDMDL
