MODEL 1
REMARK VINA RESULT:      77.3      0.000      0.000
REMARK  5 active torsions:
REMARK  status: ('A' for Active; 'I' for Inactive)
REMARK    1  A    between atoms: C_10  and  N_2 
REMARK    2  A    between atoms: C_11  and  N_4 
REMARK    3  A    between atoms: C_12  and  C_11 
REMARK       I    between atoms: N_16  and  C_12 
REMARK       I    between atoms: C_15  and  N_17 
REMARK    4  A    between atoms: C_22  and  N_16 
REMARK    5  A    between atoms: N_17  and  C_23 
ROOT
ATOM      1  C   UNL d   1      46.011 -17.670  44.106  0.00  0.00     0.172 A 
ATOM      2  N   UNL d   1      46.006 -16.328  43.591  0.00  0.00    -0.226 N 
ATOM      3  C   UNL d   1      46.265 -16.631  42.847  0.00  0.00     0.342 A 
ATOM      4  N   UNL d   1      46.388 -17.433  42.751  0.00  0.00    -0.252 N 
ATOM      5  C   UNL d   1      46.263 -17.951  43.373  0.00  0.00     0.098 A 
ATOM      6  C   UNL d   1      45.883 -16.855  44.211  0.00  0.00     0.292 A 
ATOM      7  O   UNL d   1      45.931 -18.301  44.623  0.00  0.00    -0.301 OA
ATOM      8  C   UNL d   1      46.333 -18.763  43.461  0.00  0.00     0.041 A 
ATOM      9  C   UNL d   1      46.127 -18.962  44.227  0.00  0.00     0.102 A 
ATOM     10  O   UNL d   1      46.396 -16.108  42.201  0.00  0.00    -0.245 OA
ATOM     11  O   UNL d   1      45.627 -16.568  44.954  0.00  0.00    -0.264 OA
ATOM     12  C   UNL d   1      46.564 -19.355  42.922  0.00  0.00     0.004 A 
ATOM     13  C   UNL d   1      46.148 -19.755  44.470  0.00  0.00     0.025 A 
ATOM     14  C   UNL d   1      46.585 -20.148  43.166  0.00  0.00     0.000 A 
ATOM     15  C   UNL d   1      46.376 -20.330  43.935  0.00  0.00     0.002 A 
ENDROOT
BRANCH   4  16
ATOM     16  C   UNL d   1      46.646 -17.735  42.007  0.00  0.00     0.147 C 
BRANCH  16  17
ATOM     17  C   UNL d   1      46.158 -17.620  41.322  0.00  0.00     0.297 C 
ATOM     18  N   UNL d   1      46.499 -17.403  40.618  0.00  0.00    -0.207 NA
ATOM     19  O   UNL d   1      45.344 -17.731  41.387  0.00  0.00    -0.264 OA
BRANCH  18  20
ATOM     20  C   UNL d   1      46.030 -17.293  39.964  0.00  0.00     0.085 A 
ATOM     21  C   UNL d   1      46.132 -16.636  39.476  0.00  0.00     0.021 A 
ATOM     22  C   UNL d   1      45.657 -16.528  38.817  0.00  0.00     0.021 A 
ATOM     23  C   UNL d   1      45.069 -17.083  38.636  0.00  0.00     0.085 A 
ATOM     24  C   UNL d   1      44.960 -17.749  39.124  0.00  0.00     0.021 A 
ATOM     25  C   UNL d   1      45.441 -17.854  39.788  0.00  0.00     0.021 A 
BRANCH  23  26
ATOM     26  N   UNL d   1      44.588 -16.978  37.972  0.00  0.00    -0.208 NA
ATOM     27  C   UNL d   1      44.734 -16.344  37.451  0.00  0.00     0.279 C 
ATOM     28  O   UNL d   1      44.266 -16.246  36.809  0.00  0.00    -0.265 OA
ATOM     29  C   UNL d   1      45.374 -15.822  37.617  0.00  0.00     0.068 C 
ENDBRANCH  23  26
ENDBRANCH  18  20
ENDBRANCH  16  17
ENDBRANCH   4  16
BRANCH   2  30
ATOM     30  C   UNL d   1      45.876 -15.514  43.705  0.00  0.00     0.071 A 
ATOM     31  C   UNL d   1      46.504 -14.989  43.700  0.00  0.00     0.020 A 
ATOM     32  C   UNL d   1      46.384 -14.190  43.811  0.00  0.00     0.031 A 
ATOM     33  C   UNL d   1      45.619 -13.909  43.929  0.00  0.00     0.140 A 
ATOM     34  C   UNL d   1      44.989 -14.416  43.936  0.00  0.00     0.031 A 
ATOM     35  F   UNL d   1      45.497 -13.092  44.042  0.00  0.00    -0.204 F 
ATOM     36  C   UNL d   1      45.111 -15.232  43.823  0.00  0.00     0.020 A 
ENDBRANCH   2  30
TORSDOF 5
ENDMDL
