MODEL 1
REMARK VINA RESULT:     115.4      0.000      0.000
REMARK  5 active torsions:
REMARK  status: ('A' for Active; 'I' for Inactive)
REMARK    1  A    between atoms: N_2  and  S_1 
REMARK    2  A    between atoms: C_6  and  S_1 
REMARK       I    between atoms: C_3  and  N_4 
REMARK    3  A    between atoms: C_5  and  C_3 
REMARK    4  A    between atoms: O_20  and  C_21 
REMARK    5  A    between atoms: C_24  and  O_20 
ROOT
ATOM      1  S   UNL d   1      56.847  48.924  49.974  0.00  0.00     0.271 S 
ATOM      2  O   UNL d   1      56.745  49.665  49.631  0.00  0.00    -0.200 OA
ATOM      3  O   UNL d   1      56.040  48.779  49.901  0.00  0.00    -0.200 OA
ENDROOT
BRANCH   1   4
ATOM      4  N   UNL d   1      57.656  49.066  50.048  0.00  0.00    -0.226 N 
ATOM      5  C   UNL d   1      58.026  48.999  50.776  0.00  0.00     0.111 A 
ATOM      6  C   UNL d   1      58.833  49.142  50.846  0.00  0.00     0.103 A 
ATOM      7  N   UNL d   1      59.265  49.351  50.178  0.00  0.00    -0.267 N 
ATOM      8  C   UNL d   1      60.073  49.494  50.249  0.00  0.00     0.288 C 
ATOM      9  C   UNL d   1      58.903  49.420  49.448  0.00  0.00     0.103 A 
ATOM     10  O   UNL d   1      60.516  49.705  49.586  0.00  0.00    -0.264 OA
ATOM     11  C   UNL d   1      58.093  49.278  49.373  0.00  0.00     0.111 A 
BRANCH   8  12
ATOM     12  C   UNL d   1      60.446  49.427  50.984  0.00  0.00     0.156 A 
ATOM     13  O   UNL d   1      61.183  49.081  51.134  0.00  0.00    -0.300 OA
ATOM     14  C   UNL d   1      61.335  49.136  51.938  0.00  0.00     0.123 A 
ATOM     15  C   UNL d   1      60.696  49.518  52.299  0.00  0.00     0.029 A 
ATOM     16  C   UNL d   1      60.147  49.696  51.703  0.00  0.00     0.032 A 
ENDBRANCH   8  12
ENDBRANCH   1   4
BRANCH   1  17
ATOM     17  C   UNL d   1      56.946  48.181  50.317  0.00  0.00     0.104 A 
ATOM     18  C   UNL d   1      56.693  48.033  51.091  0.00  0.00     0.015 A 
ATOM     19  C   UNL d   1      56.794  47.291  51.427  0.00  0.00     0.025 A 
ATOM     20  C   UNL d   1      57.148  46.692  50.993  0.00  0.00     0.100 A 
ATOM     21  C   UNL d   1      57.405  46.828  50.219  0.00  0.00     0.025 A 
ATOM     22  C   UNL d   1      57.305  47.570  49.880  0.00  0.00     0.015 A 
BRANCH  20  23
ATOM     23  O   UNL d   1      57.250  45.941  51.337  0.00  0.00    -0.307 OA
BRANCH  23  24
ATOM     24  C   UNL d   1      57.284  45.269  50.851  0.00  0.00     0.100 A 
ATOM     25  C   UNL d   1      56.587  44.891  50.603  0.00  0.00     0.025 A 
ATOM     26  C   UNL d   1      56.629  44.224  50.120  0.00  0.00     0.002 A 
ATOM     27  C   UNL d   1      57.364  43.932  49.884  0.00  0.00     0.000 A 
ATOM     28  C   UNL d   1      58.061  44.311  50.132  0.00  0.00     0.002 A 
ATOM     29  C   UNL d   1      58.020  44.979  50.615  0.00  0.00     0.025 A 
ENDBRANCH  23  24
ENDBRANCH  20  23
ENDBRANCH   1  17
TORSDOF 5
ENDMDL
MODEL 2
REMARK VINA RESULT:     116.9      3.126      4.247
REMARK  5 active torsions:
REMARK  status: ('A' for Active; 'I' for Inactive)
REMARK    1  A    between atoms: N_2  and  S_1 
REMARK    2  A    between atoms: C_6  and  S_1 
REMARK       I    between atoms: C_3  and  N_4 
REMARK    3  A    between atoms: C_5  and  C_3 
REMARK    4  A    between atoms: O_20  and  C_21 
REMARK    5  A    between atoms: C_24  and  O_20 
ROOT
ATOM      1  S   UNL d   1      62.062  46.728  49.370  0.00  0.00     0.271 S 
ATOM      2  O   UNL d   1      62.376  47.317  48.890  0.00  0.00    -0.200 OA
ATOM      3  O   UNL d   1      62.400  46.154  48.887  0.00  0.00    -0.200 OA
ENDROOT
BRANCH   1   4
ATOM      4  N   UNL d   1      61.722  47.300  49.857  0.00  0.00    -0.226 N 
ATOM      5  C   UNL d   1      60.960  47.567  49.717  0.00  0.00     0.111 A 
ATOM      6  C   UNL d   1      60.623  48.138  50.205  0.00  0.00     0.103 A 
ATOM      7  N   UNL d   1      61.060  48.439  50.833  0.00  0.00    -0.267 N 
ATOM      8  C   UNL d   1      60.723  49.011  51.320  0.00  0.00     0.288 C 
ATOM      9  C   UNL d   1      61.821  48.178  50.978  0.00  0.00     0.103 A 
ATOM     10  O   UNL d   1      61.152  49.320  51.953  0.00  0.00    -0.264 OA
ATOM     11  C   UNL d   1      62.162  47.605  50.492  0.00  0.00     0.111 A 
BRANCH   8  12
ATOM     12  C   UNL d   1      59.954  49.280  51.180  0.00  0.00     0.156 A 
ATOM     13  O   UNL d   1      59.368  49.422  51.746  0.00  0.00    -0.300 OA
ATOM     14  C   UNL d   1      58.693  49.682  51.361  0.00  0.00     0.123 A 
ATOM     15  C   UNL d   1      58.848  49.706  50.549  0.00  0.00     0.029 A 
ATOM     16  C   UNL d   1      59.632  49.455  50.441  0.00  0.00     0.032 A 
ENDBRANCH   8  12
ENDBRANCH   1   4
BRANCH   1  17
ATOM     17  C   UNL d   1      61.748  46.134  49.850  0.00  0.00     0.104 A 
ATOM     18  C   UNL d   1      61.819  46.172  50.673  0.00  0.00     0.015 A 
ATOM     19  C   UNL d   1      61.505  45.578  51.144  0.00  0.00     0.025 A 
ATOM     20  C   UNL d   1      61.118  44.943  50.797  0.00  0.00     0.100 A 
ATOM     21  C   UNL d   1      61.041  44.895  49.976  0.00  0.00     0.025 A 
ATOM     22  C   UNL d   1      61.355  45.489  49.500  0.00  0.00     0.015 A 
BRANCH  20  23
ATOM     23  O   UNL d   1      60.800  44.343  51.278  0.00  0.00    -0.307 OA
BRANCH  23  24
ATOM     24  C   UNL d   1      61.255  43.670  51.447  0.00  0.00     0.100 A 
ATOM     25  C   UNL d   1      61.910  43.473  50.975  0.00  0.00     0.025 A 
ATOM     26  C   UNL d   1      62.358  42.803  51.150  0.00  0.00     0.002 A 
ATOM     27  C   UNL d   1      62.155  42.328  51.793  0.00  0.00     0.000 A 
ATOM     28  C   UNL d   1      61.499  42.525  52.264  0.00  0.00     0.002 A 
ATOM     29  C   UNL d   1      61.051  43.196  52.091  0.00  0.00     0.025 A 
ENDBRANCH  23  24
ENDBRANCH  20  23
ENDBRANCH   1  17
TORSDOF 5
ENDMDL
