MODEL 1
REMARK VINA RESULT:       9.6      0.000      0.000
REMARK  4 active torsions:
REMARK  status: ('A' for Active; 'I' for Inactive)
REMARK    1  A    between atoms: C_14  and  C_4 
REMARK       I    between atoms: C_6  and  N_8 
REMARK    2  A    between atoms: C_9  and  C_6 
REMARK    3  A    between atoms: N_8  and  C_14 
REMARK    4  A    between atoms: O_16  and  C_15 
ROOT
ATOM      1  C   UNL d   1      46.196 -18.376  44.217  0.00  0.00     0.279 C 
ATOM      2  N   UNL d   1      46.089 -17.562  44.162  0.00  0.00    -0.205 NA
ATOM      3  O   UNL d   1      46.155 -18.747  44.955  0.00  0.00    -0.265 OA
ENDROOT
BRANCH   1   4
ATOM      4  C   UNL d   1      46.343 -18.816  43.540  0.00  0.00     0.060 A 
ATOM      5  C   UNL d   1      46.399 -18.438  42.808  0.00  0.00     0.029 A 
ATOM      6  C   UNL d   1      46.547 -18.890  42.130  0.00  0.00     0.094 A 
ATOM      7  C   UNL d   1      46.639 -19.714  42.180  0.00  0.00     0.024 A 
ATOM      8  C   UNL d   1      46.581 -20.083  42.911  0.00  0.00     0.002 A 
ATOM      9  C   UNL d   1      46.434 -19.644  43.597  0.00  0.00     0.005 A 
BRANCH   6  10
ATOM     10  O   UNL d   1      46.603 -18.513  41.404  0.00  0.00    -0.328 OA
ATOM     11  C   UNL d   1      46.571 -18.961  40.703  0.00  0.00     0.181 C 
ENDBRANCH   6  10
ENDBRANCH   1   4
BRANCH   2  12
ATOM     12  C   UNL d   1      45.942 -17.120  44.841  0.00  0.00     0.123 C 
BRANCH  12  13
ATOM     13  C   UNL d   1      45.803 -16.310  44.786  0.00  0.00     0.120 A 
ATOM     14  N   UNL d   1      46.354 -15.736  44.572  0.00  0.00    -0.219 NA
ATOM     15  C   UNL d   1      45.980 -15.000  44.589  0.00  0.00     0.180 A 
ATOM     16  N   UNL d   1      45.186 -15.120  44.818  0.00  0.00    -0.282 N 
ATOM     17  S   UNL d   1      46.086 -14.192  44.469  0.00  0.00    -0.048 SA
ATOM     18  C   UNL d   1      45.082 -15.933  44.938  0.00  0.00     0.103 A 
ATOM     19  C   UNL d   1      44.818 -14.388  44.834  0.00  0.00     0.089 A 
ATOM     20  C   UNL d   1      45.364 -13.815  44.621  0.00  0.00     0.057 A 
ENDBRANCH  12  13
ENDBRANCH   2  12
TORSDOF 4
ENDMDL
MODEL 2
REMARK VINA RESULT:      10.0      2.109      4.748
REMARK  4 active torsions:
REMARK  status: ('A' for Active; 'I' for Inactive)
REMARK    1  A    between atoms: C_14  and  C_4 
REMARK       I    between atoms: C_6  and  N_8 
REMARK    2  A    between atoms: C_9  and  C_6 
REMARK    3  A    between atoms: N_8  and  C_14 
REMARK    4  A    between atoms: O_16  and  C_15 
ROOT
ATOM      1  C   UNL d   1      45.225 -15.236  44.640  0.00  0.00     0.279 C 
ATOM      2  N   UNL d   1      45.737 -15.864  44.498  0.00  0.00    -0.205 NA
ATOM      3  O   UNL d   1      44.472 -15.381  44.947  0.00  0.00    -0.265 OA
ENDROOT
BRANCH   1   4
ATOM      4  C   UNL d   1      45.464 -14.468  44.475  0.00  0.00     0.060 A 
ATOM      5  C   UNL d   1      45.120 -14.055  43.849  0.00  0.00     0.029 A 
ATOM      6  C   UNL d   1      45.368 -13.281  43.690  0.00  0.00     0.094 A 
ATOM      7  C   UNL d   1      45.956 -12.919  44.153  0.00  0.00     0.024 A 
ATOM      8  C   UNL d   1      46.293 -13.336  44.774  0.00  0.00     0.002 A 
ATOM      9  C   UNL d   1      46.055 -14.111  44.945  0.00  0.00     0.005 A 
BRANCH   6  10
ATOM     10  O   UNL d   1      45.025 -12.872  43.067  0.00  0.00    -0.328 OA
ATOM     11  C   UNL d   1      44.683 -12.126  43.202  0.00  0.00     0.181 C 
ENDBRANCH   6  10
ENDBRANCH   1   4
BRANCH   2  12
ATOM     12  C   UNL d   1      45.499 -16.634  44.663  0.00  0.00     0.123 C 
BRANCH  12  13
ATOM     13  C   UNL d   1      45.779 -17.261  44.209  0.00  0.00     0.120 A 
ATOM     14  N   UNL d   1      45.849 -17.273  43.388  0.00  0.00    -0.219 NA
ATOM     15  C   UNL d   1      46.152 -18.008  43.165  0.00  0.00     0.180 A 
ATOM     16  N   UNL d   1      46.272 -18.458  43.859  0.00  0.00    -0.282 N 
ATOM     17  S   UNL d   1      46.383 -18.471  42.524  0.00  0.00    -0.048 SA
ATOM     18  C   UNL d   1      46.039 -17.990  44.501  0.00  0.00     0.103 A 
ATOM     19  C   UNL d   1      46.573 -19.186  43.634  0.00  0.00     0.089 A 
ATOM     20  C   UNL d   1      46.644 -19.201  42.818  0.00  0.00     0.057 A 
ENDBRANCH  12  13
ENDBRANCH   2  12
TORSDOF 4
ENDMDL
