MODEL 1
REMARK VINA RESULT:      -0.9      0.000      0.000
REMARK  8 active torsions:
REMARK  status: ('A' for Active; 'I' for Inactive)
REMARK    1  A    between atoms: C_6  and  N_1 
REMARK    2  A    between atoms: C_7  and  C_2 
REMARK    3  A    between atoms: C_8  and  C_6 
REMARK    4  A    between atoms: O_14  and  C_8 
REMARK    5  A    between atoms: O_15  and  C_8 
REMARK    6  A    between atoms: O_18  and  C_11 
REMARK    7  A    between atoms: C_20  and  O_14 
REMARK    8  A    between atoms: C_19  and  O_15 
ROOT
ATOM      1  N   UNL d   1      58.595   0.482  31.276  0.00  0.00    -0.286 N 
ATOM      2  C   UNL d   1      58.370   0.501  32.071  0.00  0.00     0.148 A 
ATOM      3  N   UNL d   1      59.070   0.577  32.502  0.00  0.00    -0.227 NA
ATOM      4  C   UNL d   1      59.396   0.543  31.226  0.00  0.00     0.083 A 
ATOM      5  C   UNL d   1      59.694   0.602  31.994  0.00  0.00     0.099 A 
ATOM      6  C   UNL d   1      59.910   0.554  30.578  0.00  0.00     0.019 A 
ATOM      7  C   UNL d   1      60.497   0.670  32.092  0.00  0.00     0.021 A 
ATOM      8  C   UNL d   1      60.700   0.622  30.715  0.00  0.00     0.002 A 
ATOM      9  C   UNL d   1      60.998   0.681  31.483  0.00  0.00     0.002 A 
ENDROOT
BRANCH   1  10
ATOM     10  C   UNL d   1      58.085   0.413  30.652  0.00  0.00     0.133 C 
BRANCH  10  11
ATOM     11  C   UNL d   1      58.295  -0.096  30.024  0.00  0.00     0.222 C 
BRANCH  11  12
ATOM     12  O   UNL d   1      58.323   0.181  29.244  0.00  0.00    -0.282 OA
BRANCH  12  13
ATOM     13  C   UNL d   1      57.977   0.276  28.513  0.00  0.00     0.125 C 
ATOM     14  C   UNL d   1      57.251   0.674  28.455  0.00  0.00     0.029 C 
ENDBRANCH  12  13
ENDBRANCH  11  12
BRANCH  11  15
ATOM     15  O   UNL d   1      58.483  -0.909  30.173  0.00  0.00    -0.282 OA
BRANCH  15  16
ATOM     16  C   UNL d   1      58.186  -1.645  29.958  0.00  0.00     0.125 C 
ATOM     17  C   UNL d   1      58.564  -2.097  29.383  0.00  0.00     0.029 C 
ENDBRANCH  15  16
ENDBRANCH  11  15
ENDBRANCH  10  11
ENDBRANCH   1  10
BRANCH   2  18
ATOM     18  C   UNL d   1      57.603   0.455  32.372  0.00  0.00     0.035 A 
ATOM     19  C   UNL d   1      56.955   0.576  31.870  0.00  0.00     0.005 A 
ATOM     20  C   UNL d   1      56.189   0.530  32.171  0.00  0.00     0.024 A 
ATOM     21  C   UNL d   1      56.070   0.362  32.974  0.00  0.00     0.094 A 
ATOM     22  C   UNL d   1      56.716   0.242  33.471  0.00  0.00     0.024 A 
ATOM     23  C   UNL d   1      57.483   0.288  33.170  0.00  0.00     0.005 A 
BRANCH  21  24
ATOM     24  O   UNL d   1      55.303   0.315  33.275  0.00  0.00    -0.328 OA
ATOM     25  C   UNL d   1      55.134   0.623  34.026  0.00  0.00     0.181 C 
ENDBRANCH  21  24
ENDBRANCH   2  18
TORSDOF 8
ENDMDL
