MODEL 1
REMARK VINA RESULT:      -8.3      0.000      0.000
REMARK  3 active torsions:
REMARK  status: ('A' for Active; 'I' for Inactive)
REMARK    1  A    between atoms: C_2  and  C_1 
REMARK       I    between atoms: N_7  and  C_2 
REMARK    2  A    between atoms: C_9  and  N_7 
REMARK    3  A    between atoms: O_13  and  C_11 
ROOT
ATOM      1  C   UNL d   1     -49.294  11.771  23.013  0.00  0.00     0.280 C 
ATOM      2  N   UNL d   1     -50.021  12.098  23.212  0.00  0.00    -0.208 NA
ATOM      3  O   UNL d   1     -49.094  11.020  23.279  0.00  0.00    -0.265 OA
ENDROOT
BRANCH   1   4
ATOM      4  C   UNL d   1     -48.764  12.197  22.544  0.00  0.00     0.065 A 
ATOM      5  C   UNL d   1     -48.009  12.438  22.759  0.00  0.00     0.011 A 
ATOM      6  C   UNL d   1     -47.671  12.848  22.127  0.00  0.00     0.030 A 
ATOM      7  C   UNL d   1     -47.586  12.333  23.459  0.00  0.00     0.001 A 
ATOM      8  C   UNL d   1     -46.909  13.154  22.194  0.00  0.00     0.006 A 
ATOM      9  S   UNL d   1     -48.220  12.868  21.502  0.00  0.00    -0.086 SA
ATOM     10  C   UNL d   1     -46.484  13.050  22.893  0.00  0.00     0.001 A 
ATOM     11  C   UNL d   1     -46.822  12.640  23.525  0.00  0.00     0.000 A 
ATOM     12  C   UNL d   1     -48.900  12.467  21.751  0.00  0.00     0.040 A 
ENDBRANCH   1   4
BRANCH   2  13
ATOM     13  C   UNL d   1     -50.225  12.859  22.942  0.00  0.00     0.087 A 
ATOM     14  C   UNL d   1     -50.134  13.504  23.447  0.00  0.00     0.043 A 
ATOM     15  C   UNL d   1     -50.338  14.261  23.176  0.00  0.00     0.096 A 
ATOM     16  C   UNL d   1     -50.628  14.363  22.408  0.00  0.00     0.024 A 
ATOM     17  C   UNL d   1     -50.715  13.706  21.910  0.00  0.00     0.004 A 
ATOM     18  C   UNL d   1     -50.514  12.955  22.176  0.00  0.00     0.019 A 
BRANCH  15  19
ATOM     19  O   UNL d   1     -50.246  14.905  23.680  0.00  0.00    -0.328 OA
ATOM     20  C   UNL d   1     -49.928  15.613  23.399  0.00  0.00     0.181 C 
ENDBRANCH  15  19
ENDBRANCH   2  13
TORSDOF 3
ENDMDL
MODEL 2
REMARK VINA RESULT:      -8.0      1.511      3.434
REMARK  3 active torsions:
REMARK  status: ('A' for Active; 'I' for Inactive)
REMARK    1  A    between atoms: C_2  and  C_1 
REMARK       I    between atoms: N_7  and  C_2 
REMARK    2  A    between atoms: C_9  and  N_7 
REMARK    3  A    between atoms: O_13  and  C_11 
ROOT
ATOM      1  C   UNL d   1     -48.557  14.380  22.949  0.00  0.00     0.280 C 
ATOM      2  N   UNL d   1     -47.767  14.472  23.151  0.00  0.00    -0.208 NA
ATOM      3  O   UNL d   1     -49.113  14.933  23.198  0.00  0.00    -0.265 OA
ENDROOT
BRANCH   1   4
ATOM      4  C   UNL d   1     -48.796  13.731  22.496  0.00  0.00     0.065 A 
ATOM      5  C   UNL d   1     -49.300  13.130  22.735  0.00  0.00     0.011 A 
ATOM      6  C   UNL d   1     -49.389  12.594  22.113  0.00  0.00     0.030 A 
ATOM      7  C   UNL d   1     -49.692  13.003  23.449  0.00  0.00     0.001 A 
ATOM      8  C   UNL d   1     -49.871  11.932  22.203  0.00  0.00     0.006 A 
ATOM      9  S   UNL d   1     -48.934  12.861  21.469  0.00  0.00    -0.086 SA
ATOM     10  C   UNL d   1     -50.263  11.804  22.917  0.00  0.00     0.001 A 
ATOM     11  C   UNL d   1     -50.174  12.339  23.540  0.00  0.00     0.000 A 
ATOM     12  C   UNL d   1     -48.563  13.565  21.697  0.00  0.00     0.040 A 
ENDBRANCH   1   4
BRANCH   2  13
ATOM     13  C   UNL d   1     -47.203  13.912  22.899  0.00  0.00     0.087 A 
ATOM     14  C   UNL d   1     -46.949  13.332  23.425  0.00  0.00     0.043 A 
ATOM     15  C   UNL d   1     -46.387  12.775  23.172  0.00  0.00     0.096 A 
ATOM     16  C   UNL d   1     -46.090  12.807  22.400  0.00  0.00     0.024 A 
ATOM     17  C   UNL d   1     -46.354  13.396  21.881  0.00  0.00     0.004 A 
ATOM     18  C   UNL d   1     -46.910  13.948  22.129  0.00  0.00     0.019 A 
BRANCH  15  19
ATOM     19  O   UNL d   1     -46.134  12.195  23.697  0.00  0.00    -0.328 OA
ATOM     20  C   UNL d   1     -46.124  11.401  23.470  0.00  0.00     0.181 C 
ENDBRANCH  15  19
ENDBRANCH   2  13
TORSDOF 3
ENDMDL
MODEL 3
REMARK VINA RESULT:      -7.8      1.500      3.242
REMARK  3 active torsions:
REMARK  status: ('A' for Active; 'I' for Inactive)
REMARK    1  A    between atoms: C_2  and  C_1 
REMARK       I    between atoms: N_7  and  C_2 
REMARK    2  A    between atoms: C_9  and  N_7 
REMARK    3  A    between atoms: O_13  and  C_11 
ROOT
ATOM      1  C   UNL d   1     -49.120  13.079  21.585  0.00  0.00     0.280 C 
ATOM      2  N   UNL d   1     -48.438  12.622  21.573  0.00  0.00    -0.208 NA
ATOM      3  O   UNL d   1     -49.490  13.285  20.880  0.00  0.00    -0.265 OA
ENDROOT
BRANCH   1   4
ATOM      4  C   UNL d   1     -49.436  13.333  22.306  0.00  0.00     0.065 A 
ATOM      5  C   UNL d   1     -49.508  14.110  22.559  0.00  0.00     0.011 A 
ATOM      6  C   UNL d   1     -49.851  14.114  23.310  0.00  0.00     0.030 A 
ATOM      7  C   UNL d   1     -49.300  14.820  22.195  0.00  0.00     0.001 A 
ATOM      8  C   UNL d   1     -49.988  14.828  23.698  0.00  0.00     0.006 A 
ATOM      9  S   UNL d   1     -49.999  13.327  23.536  0.00  0.00    -0.086 SA
ATOM     10  C   UNL d   1     -49.781  15.539  23.335  0.00  0.00     0.001 A 
ATOM     11  C   UNL d   1     -49.437  15.535  22.584  0.00  0.00     0.000 A 
ATOM     12  C   UNL d   1     -49.746  12.836  22.920  0.00  0.00     0.040 A 
ENDBRANCH   1   4
BRANCH   2  13
ATOM     13  C   UNL d   1     -48.063  12.413  22.287  0.00  0.00     0.087 A 
ATOM     14  C   UNL d   1     -47.410  12.846  22.542  0.00  0.00     0.043 A 
ATOM     15  C   UNL d   1     -47.038  12.635  23.254  0.00  0.00     0.096 A 
ATOM     16  C   UNL d   1     -47.323  11.998  23.698  0.00  0.00     0.024 A 
ATOM     17  C   UNL d   1     -47.981  11.571  23.430  0.00  0.00     0.004 A 
ATOM     18  C   UNL d   1     -48.351  11.777  22.727  0.00  0.00     0.019 A 
BRANCH  15  19
ATOM     19  O   UNL d   1     -46.386  13.068  23.508  0.00  0.00    -0.328 OA
ATOM     20  C   UNL d   1     -45.823  13.330  22.965  0.00  0.00     0.181 C 
ENDBRANCH  15  19
ENDBRANCH   2  13
TORSDOF 3
ENDMDL
MODEL 4
REMARK VINA RESULT:      -7.4      1.166      2.960
REMARK  3 active torsions:
REMARK  status: ('A' for Active; 'I' for Inactive)
REMARK    1  A    between atoms: C_2  and  C_1 
REMARK       I    between atoms: N_7  and  C_2 
REMARK    2  A    between atoms: C_9  and  N_7 
REMARK    3  A    between atoms: O_13  and  C_11 
ROOT
ATOM      1  C   UNL d   1     -50.119  12.113  23.216  0.00  0.00     0.280 C 
ATOM      2  N   UNL d   1     -49.359  11.825  23.334  0.00  0.00    -0.208 NA
ATOM      3  O   UNL d   1     -50.756  11.767  23.603  0.00  0.00    -0.265 OA
ENDROOT
BRANCH   1   4
ATOM      4  C   UNL d   1     -50.244  12.752  22.706  0.00  0.00     0.065 A 
ATOM      5  C   UNL d   1     -50.527  13.493  22.916  0.00  0.00     0.011 A 
ATOM      6  C   UNL d   1     -50.566  13.964  22.238  0.00  0.00     0.030 A 
ATOM      7  C   UNL d   1     -50.756  13.799  23.646  0.00  0.00     0.001 A 
ATOM      8  C   UNL d   1     -50.835  14.741  22.290  0.00  0.00     0.006 A 
ATOM      9  S   UNL d   1     -50.304  13.514  21.590  0.00  0.00    -0.086 SA
ATOM     10  C   UNL d   1     -51.064  15.049  23.020  0.00  0.00     0.001 A 
ATOM     11  C   UNL d   1     -51.025  14.578  23.698  0.00  0.00     0.000 A 
ATOM     12  C   UNL d   1     -50.102  12.761  21.869  0.00  0.00     0.040 A 
ENDBRANCH   1   4
BRANCH   2  13
ATOM     13  C   UNL d   1     -48.713  12.175  22.942  0.00  0.00     0.087 A 
ATOM     14  C   UNL d   1     -48.217  12.685  23.357  0.00  0.00     0.043 A 
ATOM     15  C   UNL d   1     -47.574  13.033  22.964  0.00  0.00     0.096 A 
ATOM     16  C   UNL d   1     -47.437  12.867  22.165  0.00  0.00     0.024 A 
ATOM     17  C   UNL d   1     -47.943  12.351  21.759  0.00  0.00     0.004 A 
ATOM     18  C   UNL d   1     -48.580  12.006  22.145  0.00  0.00     0.019 A 
BRANCH  15  19
ATOM     19  O   UNL d   1     -47.079  13.543  23.379  0.00  0.00    -0.328 OA
ATOM     20  C   UNL d   1     -46.676  14.146  22.985  0.00  0.00     0.181 C 
ENDBRANCH  15  19
ENDBRANCH   2  13
TORSDOF 3
ENDMDL
MODEL 5
REMARK VINA RESULT:      -7.1      1.668      2.276
REMARK  3 active torsions:
REMARK  status: ('A' for Active; 'I' for Inactive)
REMARK    1  A    between atoms: C_2  and  C_1 
REMARK       I    between atoms: N_7  and  C_2 
REMARK    2  A    between atoms: C_9  and  N_7 
REMARK    3  A    between atoms: O_13  and  C_11 
ROOT
ATOM      1  C   UNL d   1     -50.473  13.060  21.620  0.00  0.00     0.280 C 
ATOM      2  N   UNL d   1     -50.415  13.857  21.432  0.00  0.00    -0.208 NA
ATOM      3  O   UNL d   1     -50.780  12.529  21.073  0.00  0.00    -0.265 OA
ENDROOT
BRANCH   1   4
ATOM      4  C   UNL d   1     -50.223  12.791  22.361  0.00  0.00     0.065 A 
ATOM      5  C   UNL d   1     -49.595  12.284  22.508  0.00  0.00     0.011 A 
ATOM      6  C   UNL d   1     -49.539  12.160  23.323  0.00  0.00     0.030 A 
ATOM      7  C   UNL d   1     -49.063  11.917  21.996  0.00  0.00     0.001 A 
ATOM      8  C   UNL d   1     -48.951  11.669  23.626  0.00  0.00     0.006 A 
ATOM      9  S   UNL d   1     -50.141  12.595  23.697  0.00  0.00    -0.086 SA
ATOM     10  C   UNL d   1     -48.418  11.301  23.115  0.00  0.00     0.001 A 
ATOM     11  C   UNL d   1     -48.475  11.425  22.300  0.00  0.00     0.000 A 
ATOM     12  C   UNL d   1     -50.570  12.990  23.110  0.00  0.00     0.040 A 
ENDBRANCH   1   4
BRANCH   2  13
ATOM     13  C   UNL d   1     -50.104  14.396  21.986  0.00  0.00     0.087 A 
ATOM     14  C   UNL d   1     -49.335  14.675  21.890  0.00  0.00     0.043 A 
ATOM     15  C   UNL d   1     -49.028  15.212  22.444  0.00  0.00     0.096 A 
ATOM     16  C   UNL d   1     -49.492  15.461  23.082  0.00  0.00     0.024 A 
ATOM     17  C   UNL d   1     -50.265  15.173  23.166  0.00  0.00     0.004 A 
ATOM     18  C   UNL d   1     -50.571  14.642  22.620  0.00  0.00     0.019 A 
BRANCH  15  19
ATOM     19  O   UNL d   1     -48.260  15.490  22.348  0.00  0.00    -0.328 OA
ATOM     20  C   UNL d   1     -47.635  15.140  22.760  0.00  0.00     0.181 C 
ENDBRANCH  15  19
ENDBRANCH   2  13
TORSDOF 3
ENDMDL
MODEL 6
REMARK VINA RESULT:      -7.0      1.619      2.189
REMARK  3 active torsions:
REMARK  status: ('A' for Active; 'I' for Inactive)
REMARK    1  A    between atoms: C_2  and  C_1 
REMARK       I    between atoms: N_7  and  C_2 
REMARK    2  A    between atoms: C_9  and  N_7 
REMARK    3  A    between atoms: O_13  and  C_11 
ROOT
ATOM      1  C   UNL d   1     -47.340  11.530  23.455  0.00  0.00     0.280 C 
ATOM      2  N   UNL d   1     -48.079  11.197  23.327  0.00  0.00    -0.208 NA
ATOM      3  O   UNL d   1     -46.705  11.054  23.668  0.00  0.00    -0.265 OA
ENDROOT
BRANCH   1   4
ATOM      4  C   UNL d   1     -47.233  12.345  23.368  0.00  0.00     0.065 A 
ATOM      5  C   UNL d   1     -46.633  12.716  22.948  0.00  0.00     0.011 A 
ATOM      6  C   UNL d   1     -46.735  13.533  23.005  0.00  0.00     0.030 A 
ATOM      7  C   UNL d   1     -46.002  12.406  22.517  0.00  0.00     0.001 A 
ATOM      8  C   UNL d   1     -46.206  14.042  22.631  0.00  0.00     0.006 A 
ATOM      9  S   UNL d   1     -47.409  13.683  23.468  0.00  0.00    -0.086 SA
ATOM     10  C   UNL d   1     -45.574  13.734  22.200  0.00  0.00     0.001 A 
ATOM     11  C   UNL d   1     -45.472  12.916  22.143  0.00  0.00     0.000 A 
ATOM     12  C   UNL d   1     -47.725  12.953  23.698  0.00  0.00     0.040 A 
ENDBRANCH   1   4
BRANCH   2  13
ATOM     13  C   UNL d   1     -48.723  11.679  23.111  0.00  0.00     0.087 A 
ATOM     14  C   UNL d   1     -48.890  11.795  22.312  0.00  0.00     0.043 A 
ATOM     15  C   UNL d   1     -49.532  12.276  22.099  0.00  0.00     0.096 A 
ATOM     16  C   UNL d   1     -49.997  12.632  22.685  0.00  0.00     0.024 A 
ATOM     17  C   UNL d   1     -49.818  12.506  23.484  0.00  0.00     0.004 A 
ATOM     18  C   UNL d   1     -49.183  12.031  23.698  0.00  0.00     0.019 A 
BRANCH  15  19
ATOM     19  O   UNL d   1     -49.699  12.392  21.302  0.00  0.00    -0.328 OA
ATOM     20  C   UNL d   1     -50.237  12.972  21.068  0.00  0.00     0.181 C 
ENDBRANCH  15  19
ENDBRANCH   2  13
TORSDOF 3
ENDMDL
MODEL 7
REMARK VINA RESULT:      -6.2      8.877     10.304
REMARK  3 active torsions:
REMARK  status: ('A' for Active; 'I' for Inactive)
REMARK    1  A    between atoms: C_2  and  C_1 
REMARK       I    between atoms: N_7  and  C_2 
REMARK    2  A    between atoms: C_9  and  N_7 
REMARK    3  A    between atoms: O_13  and  C_11 
ROOT
ATOM      1  C   UNL d   1     -39.312  13.901  18.997  0.00  0.00     0.280 C 
ATOM      2  N   UNL d   1     -39.372  13.831  18.181  0.00  0.00    -0.208 NA
ATOM      3  O   UNL d   1     -39.068  13.259  19.449  0.00  0.00    -0.265 OA
ENDROOT
BRANCH   1   4
ATOM      4  C   UNL d   1     -39.499  14.617  19.364  0.00  0.00     0.065 A 
ATOM      5  C   UNL d   1     -40.092  14.740  19.917  0.00  0.00     0.011 A 
ATOM      6  C   UNL d   1     -40.087  15.536  20.140  0.00  0.00     0.030 A 
ATOM      7  C   UNL d   1     -40.641  14.222  20.248  0.00  0.00     0.001 A 
ATOM      8  C   UNL d   1     -40.630  15.813  20.694  0.00  0.00     0.006 A 
ATOM      9  S   UNL d   1     -39.480  15.922  19.722  0.00  0.00    -0.086 SA
ATOM     10  C   UNL d   1     -41.180  15.295  21.025  0.00  0.00     0.001 A 
ATOM     11  C   UNL d   1     -41.186  14.500  20.802  0.00  0.00     0.000 A 
ATOM     12  C   UNL d   1     -39.110  15.361  19.239  0.00  0.00     0.040 A 
ENDBRANCH   1   4
BRANCH   2  13
ATOM     13  C   UNL d   1     -39.619  14.480  17.722  0.00  0.00     0.087 A 
ATOM     14  C   UNL d   1     -40.401  14.518  17.464  0.00  0.00     0.043 A 
ATOM     15  C   UNL d   1     -40.645  15.167  17.007  0.00  0.00     0.096 A 
ATOM     16  C   UNL d   1     -40.106  15.766  16.816  0.00  0.00     0.024 A 
ATOM     17  C   UNL d   1     -39.323  15.715  17.081  0.00  0.00     0.004 A 
ATOM     18  C   UNL d   1     -39.079  15.075  17.533  0.00  0.00     0.019 A 
BRANCH  15  19
ATOM     19  O   UNL d   1     -41.425  15.204  16.750  0.00  0.00    -0.328 OA
ATOM     20  C   UNL d   1     -41.748  15.922  16.501  0.00  0.00     0.181 C 
ENDBRANCH  15  19
ENDBRANCH   2  13
TORSDOF 3
ENDMDL
MODEL 8
REMARK VINA RESULT:      -5.9      9.287     10.853
REMARK  3 active torsions:
REMARK  status: ('A' for Active; 'I' for Inactive)
REMARK    1  A    between atoms: C_2  and  C_1 
REMARK       I    between atoms: N_7  and  C_2 
REMARK    2  A    between atoms: C_9  and  N_7 
REMARK    3  A    between atoms: O_13  and  C_11 
ROOT
ATOM      1  C   UNL d   1     -40.635  15.520  18.324  0.00  0.00     0.280 C 
ATOM      2  N   UNL d   1     -40.549  15.105  17.621  0.00  0.00    -0.208 NA
ATOM      3  O   UNL d   1     -41.335  15.922  18.482  0.00  0.00    -0.265 OA
ENDROOT
BRANCH   1   4
ATOM      4  C   UNL d   1     -40.019  15.535  18.874  0.00  0.00     0.065 A 
ATOM      5  C   UNL d   1     -40.043  15.240  19.640  0.00  0.00     0.011 A 
ATOM      6  C   UNL d   1     -39.309  15.368  19.997  0.00  0.00     0.030 A 
ATOM      7  C   UNL d   1     -40.647  14.868  20.059  0.00  0.00     0.001 A 
ATOM      8  C   UNL d   1     -39.179  15.124  20.773  0.00  0.00     0.006 A 
ATOM      9  S   UNL d   1     -38.813  15.750  19.449  0.00  0.00    -0.086 SA
ATOM     10  C   UNL d   1     -39.783  14.752  21.193  0.00  0.00     0.001 A 
ATOM     11  C   UNL d   1     -40.517  14.624  20.836  0.00  0.00     0.000 A 
ATOM     12  C   UNL d   1     -39.244  15.857  18.751  0.00  0.00     0.040 A 
ENDBRANCH   1   4
BRANCH   2  13
ATOM     13  C   UNL d   1     -39.840  14.697  17.461  0.00  0.00     0.087 A 
ATOM     14  C   UNL d   1     -39.795  13.889  17.615  0.00  0.00     0.043 A 
ATOM     15  C   UNL d   1     -39.088  13.486  17.455  0.00  0.00     0.096 A 
ATOM     16  C   UNL d   1     -38.438  13.894  17.143  0.00  0.00     0.024 A 
ATOM     17  C   UNL d   1     -38.497  14.707  16.993  0.00  0.00     0.004 A 
ATOM     18  C   UNL d   1     -39.195  15.108  17.151  0.00  0.00     0.019 A 
BRANCH  15  19
ATOM     19  O   UNL d   1     -39.043  12.679  17.609  0.00  0.00    -0.328 OA
ATOM     20  C   UNL d   1     -38.312  12.319  17.738  0.00  0.00     0.181 C 
ENDBRANCH  15  19
ENDBRANCH   2  13
TORSDOF 3
ENDMDL
MODEL 9
REMARK VINA RESULT:      -5.5      1.276      2.052
REMARK  3 active torsions:
REMARK  status: ('A' for Active; 'I' for Inactive)
REMARK    1  A    between atoms: C_2  and  C_1 
REMARK       I    between atoms: N_7  and  C_2 
REMARK    2  A    between atoms: C_9  and  N_7 
REMARK    3  A    between atoms: O_13  and  C_11 
ROOT
ATOM      1  C   UNL d   1     -48.813  14.784  22.393  0.00  0.00     0.280 C 
ATOM      2  N   UNL d   1     -49.611  14.700  22.569  0.00  0.00    -0.208 NA
ATOM      3  O   UNL d   1     -48.445  15.513  22.485  0.00  0.00    -0.265 OA
ENDROOT
BRANCH   1   4
ATOM      4  C   UNL d   1     -48.380  14.134  22.123  0.00  0.00     0.065 A 
ATOM      5  C   UNL d   1     -47.692  13.835  22.457  0.00  0.00     0.011 A 
ATOM      6  C   UNL d   1     -47.443  13.184  22.014  0.00  0.00     0.030 A 
ATOM      7  C   UNL d   1     -47.260  14.077  23.116  0.00  0.00     0.001 A 
ATOM      8  C   UNL d   1     -46.760  12.775  22.229  0.00  0.00     0.006 A 
ATOM      9  S   UNL d   1     -47.980  13.070  21.389  0.00  0.00    -0.086 SA
ATOM     10  C   UNL d   1     -46.327  13.017  22.888  0.00  0.00     0.001 A 
ATOM     11  C   UNL d   1     -46.577  13.667  23.331  0.00  0.00     0.000 A 
ATOM     12  C   UNL d   1     -48.564  13.653  21.448  0.00  0.00     0.040 A 
ENDBRANCH   1   4
BRANCH   2  13
ATOM     13  C   UNL d   1     -49.985  13.962  22.475  0.00  0.00     0.087 A 
ATOM     14  C   UNL d   1     -50.100  13.482  23.135  0.00  0.00     0.043 A 
ATOM     15  C   UNL d   1     -50.473  12.746  23.039  0.00  0.00     0.096 A 
ATOM     16  C   UNL d   1     -50.724  12.502  22.289  0.00  0.00     0.024 A 
ATOM     17  C   UNL d   1     -50.601  12.995  21.634  0.00  0.00     0.004 A 
ATOM     18  C   UNL d   1     -50.233  13.723  21.726  0.00  0.00     0.019 A 
BRANCH  15  19
ATOM     19  O   UNL d   1     -50.588  12.267  23.698  0.00  0.00    -0.328 OA
ATOM     20  C   UNL d   1     -50.320  11.486  23.698  0.00  0.00     0.181 C 
ENDBRANCH  15  19
ENDBRANCH   2  13
TORSDOF 3
ENDMDL
