MODEL 1
REMARK VINA RESULT:      -7.0      0.000      0.000
REMARK  3 active torsions:
REMARK  status: ('A' for Active; 'I' for Inactive)
REMARK    1  A    between atoms: C_4  and  C_1 
REMARK    2  A    between atoms: O_10  and  C_4 
REMARK    3  A    between atoms: C_13  and  O_10 
ROOT
ATOM      1  C   UNL d   1     -48.683  13.579  23.003  0.00  0.00     0.121 A 
ATOM      2  C   UNL d   1     -47.845  13.511  22.970  0.00  0.00     0.204 A 
ATOM      3  C   UNL d   1     -47.493  12.814  23.203  0.00  0.00     0.057 A 
ATOM      4  N   UNL d   1     -48.749  12.244  23.499  0.00  0.00    -0.244 NA
ATOM      5  C   UNL d   1     -49.136  12.944  23.268  0.00  0.00     0.107 A 
ATOM      6  C   UNL d   1     -47.946  12.179  23.468  0.00  0.00     0.085 A 
ATOM      7  O   UNL d   1     -47.397  14.139  22.708  0.00  0.00    -0.286 OA
ATOM      8  C   UNL d   1     -46.662  12.751  23.169  0.00  0.00     0.005 A 
ATOM      9  C   UNL d   1     -47.566  11.483  23.698  0.00  0.00     0.019 A 
ATOM     10  C   UNL d   1     -46.292  12.042  23.404  0.00  0.00     0.000 A 
ATOM     11  C   UNL d   1     -46.745  11.407  23.669  0.00  0.00     0.002 A 
ENDROOT
BRANCH   1  12
ATOM     12  C   UNL d   1     -49.051  14.286  22.768  0.00  0.00     0.305 C 
ATOM     13  O   UNL d   1     -49.169  14.448  21.964  0.00  0.00    -0.259 OA
BRANCH  12  14
ATOM     14  O   UNL d   1     -49.294  14.816  23.323  0.00  0.00    -0.271 OA
BRANCH  14  15
ATOM     15  C   UNL d   1     -49.787  15.440  23.108  0.00  0.00     0.126 C 
ATOM     16  C   UNL d   1     -50.132  15.922  23.693  0.00  0.00     0.029 C 
ENDBRANCH  14  15
ENDBRANCH  12  14
ENDBRANCH   1  12
TORSDOF 3
ENDMDL
MODEL 2
REMARK VINA RESULT:      -6.9      1.832      3.141
REMARK  3 active torsions:
REMARK  status: ('A' for Active; 'I' for Inactive)
REMARK    1  A    between atoms: C_4  and  C_1 
REMARK    2  A    between atoms: O_10  and  C_4 
REMARK    3  A    between atoms: C_13  and  O_10 
ROOT
ATOM      1  C   UNL d   1     -47.374  13.140  22.949  0.00  0.00     0.121 A 
ATOM      2  C   UNL d   1     -47.755  12.476  23.299  0.00  0.00     0.204 A 
ATOM      3  C   UNL d   1     -48.566  12.413  23.252  0.00  0.00     0.057 A 
ATOM      4  N   UNL d   1     -48.650  13.623  22.533  0.00  0.00    -0.244 NA
ATOM      5  C   UNL d   1     -47.822  13.714  22.565  0.00  0.00     0.107 A 
ATOM      6  C   UNL d   1     -49.014  12.987  22.869  0.00  0.00     0.085 A 
ATOM      7  O   UNL d   1     -47.312  11.908  23.679  0.00  0.00    -0.286 OA
ATOM      8  C   UNL d   1     -48.940  11.754  23.601  0.00  0.00     0.005 A 
ATOM      9  C   UNL d   1     -49.834  12.901  22.834  0.00  0.00     0.019 A 
ATOM     10  C   UNL d   1     -49.769  11.679  23.559  0.00  0.00     0.000 A 
ATOM     11  C   UNL d   1     -50.217  12.253  23.175  0.00  0.00     0.002 A 
ENDROOT
BRANCH   1  12
ATOM     12  C   UNL d   1     -46.547  13.213  22.992  0.00  0.00     0.305 C 
ATOM     13  O   UNL d   1     -46.185  13.450  23.698  0.00  0.00    -0.259 OA
BRANCH  12  14
ATOM     14  O   UNL d   1     -46.096  13.053  22.345  0.00  0.00    -0.271 OA
BRANCH  14  15
ATOM     15  C   UNL d   1     -45.336  13.365  22.286  0.00  0.00     0.126 C 
ATOM     16  C   UNL d   1     -44.783  13.025  21.764  0.00  0.00     0.029 C 
ENDBRANCH  14  15
ENDBRANCH  12  14
ENDBRANCH   1  12
TORSDOF 3
ENDMDL
MODEL 3
REMARK VINA RESULT:      -6.8      1.343      3.422
REMARK  3 active torsions:
REMARK  status: ('A' for Active; 'I' for Inactive)
REMARK    1  A    between atoms: C_4  and  C_1 
REMARK    2  A    between atoms: O_10  and  C_4 
REMARK    3  A    between atoms: C_13  and  O_10 
ROOT
ATOM      1  C   UNL d   1     -47.144  13.586  22.833  0.00  0.00     0.121 A 
ATOM      2  C   UNL d   1     -47.488  14.351  22.763  0.00  0.00     0.204 A 
ATOM      3  C   UNL d   1     -48.297  14.419  22.700  0.00  0.00     0.057 A 
ATOM      4  N   UNL d   1     -48.451  13.019  22.771  0.00  0.00    -0.244 NA
ATOM      5  C   UNL d   1     -47.626  12.919  22.837  0.00  0.00     0.107 A 
ATOM      6  C   UNL d   1     -48.779  13.752  22.704  0.00  0.00     0.085 A 
ATOM      7  O   UNL d   1     -47.010  15.012  22.759  0.00  0.00    -0.286 OA
ATOM      8  C   UNL d   1     -48.634  15.179  22.630  0.00  0.00     0.005 A 
ATOM      9  C   UNL d   1     -49.597  13.846  22.639  0.00  0.00     0.019 A 
ATOM     10  C   UNL d   1     -49.462  15.259  22.565  0.00  0.00     0.000 A 
ATOM     11  C   UNL d   1     -49.944  14.592  22.569  0.00  0.00     0.002 A 
ENDROOT
BRANCH   1  12
ATOM     12  C   UNL d   1     -46.319  13.508  22.898  0.00  0.00     0.305 C 
ATOM     13  O   UNL d   1     -45.942  13.647  23.622  0.00  0.00    -0.259 OA
BRANCH  12  14
ATOM     14  O   UNL d   1     -45.885  13.295  22.254  0.00  0.00    -0.271 OA
BRANCH  14  15
ATOM     15  C   UNL d   1     -45.099  13.066  22.347  0.00  0.00     0.126 C 
ATOM     16  C   UNL d   1     -44.632  12.890  21.679  0.00  0.00     0.029 C 
ENDBRANCH  14  15
ENDBRANCH  12  14
ENDBRANCH   1  12
TORSDOF 3
ENDMDL
MODEL 4
REMARK VINA RESULT:      -6.4      1.697      3.418
REMARK  3 active torsions:
REMARK  status: ('A' for Active; 'I' for Inactive)
REMARK    1  A    between atoms: C_4  and  C_1 
REMARK    2  A    between atoms: O_10  and  C_4 
REMARK    3  A    between atoms: C_13  and  O_10 
ROOT
ATOM      1  C   UNL d   1     -47.993  13.456  22.617  0.00  0.00     0.121 A 
ATOM      2  C   UNL d   1     -48.568  12.941  22.281  0.00  0.00     0.204 A 
ATOM      3  C   UNL d   1     -49.304  13.236  22.093  0.00  0.00     0.057 A 
ATOM      4  N   UNL d   1     -48.939  14.520  22.548  0.00  0.00    -0.244 NA
ATOM      5  C   UNL d   1     -48.179  14.246  22.751  0.00  0.00     0.107 A 
ATOM      6  C   UNL d   1     -49.490  14.027  22.226  0.00  0.00     0.085 A 
ATOM      7  O   UNL d   1     -48.384  12.158  22.149  0.00  0.00    -0.286 OA
ATOM      8  C   UNL d   1     -49.871  12.723  21.760  0.00  0.00     0.005 A 
ATOM      9  C   UNL d   1     -50.242  14.302  22.027  0.00  0.00     0.019 A 
ATOM     10  C   UNL d   1     -50.627  13.014  21.563  0.00  0.00     0.000 A 
ATOM     11  C   UNL d   1     -50.813  13.805  21.697  0.00  0.00     0.002 A 
ENDROOT
BRANCH   1  12
ATOM     12  C   UNL d   1     -47.239  13.164  22.812  0.00  0.00     0.305 C 
ATOM     13  O   UNL d   1     -47.130  12.722  23.504  0.00  0.00    -0.259 OA
BRANCH  12  14
ATOM     14  O   UNL d   1     -46.614  13.311  22.327  0.00  0.00    -0.271 OA
BRANCH  14  15
ATOM     15  C   UNL d   1     -45.846  13.175  22.594  0.00  0.00     0.126 C 
ATOM     16  C   UNL d   1     -45.199  13.290  22.083  0.00  0.00     0.029 C 
ENDBRANCH  14  15
ENDBRANCH  12  14
ENDBRANCH   1  12
TORSDOF 3
ENDMDL
MODEL 5
REMARK VINA RESULT:      -4.9      1.618      2.201
REMARK  3 active torsions:
REMARK  status: ('A' for Active; 'I' for Inactive)
REMARK    1  A    between atoms: C_4  and  C_1 
REMARK    2  A    between atoms: O_10  and  C_4 
REMARK    3  A    between atoms: C_13  and  O_10 
ROOT
ATOM      1  C   UNL d   1     -48.761  13.261  22.521  0.00  0.00     0.121 A 
ATOM      2  C   UNL d   1     -48.037  12.833  22.477  0.00  0.00     0.204 A 
ATOM      3  C   UNL d   1     -47.333  13.235  22.558  0.00  0.00     0.057 A 
ATOM      4  N   UNL d   1     -48.015  14.459  22.723  0.00  0.00    -0.244 NA
ATOM      5  C   UNL d   1     -48.750  14.074  22.644  0.00  0.00     0.107 A 
ATOM      6  C   UNL d   1     -47.322  14.049  22.681  0.00  0.00     0.085 A 
ATOM      7  O   UNL d   1     -48.049  12.028  22.355  0.00  0.00    -0.286 OA
ATOM      8  C   UNL d   1     -46.618  12.808  22.514  0.00  0.00     0.005 A 
ATOM      9  C   UNL d   1     -46.596  14.433  22.760  0.00  0.00     0.019 A 
ATOM     10  C   UNL d   1     -45.892  13.209  22.596  0.00  0.00     0.000 A 
ATOM     11  C   UNL d   1     -45.881  14.023  22.719  0.00  0.00     0.002 A 
ENDROOT
BRANCH   1  12
ATOM     12  C   UNL d   1     -49.485  12.859  22.439  0.00  0.00     0.305 C 
ATOM     13  O   UNL d   1     -49.690  12.511  21.717  0.00  0.00    -0.259 OA
BRANCH  12  14
ATOM     14  O   UNL d   1     -49.988  12.809  23.066  0.00  0.00    -0.271 OA
BRANCH  14  15
ATOM     15  C   UNL d   1     -50.669  12.349  23.009  0.00  0.00     0.126 C 
ATOM     16  C   UNL d   1     -51.065  12.098  23.698  0.00  0.00     0.029 C 
ENDBRANCH  14  15
ENDBRANCH  12  14
ENDBRANCH   1  12
TORSDOF 3
ENDMDL
