MODEL 1
REMARK VINA RESULT:      65.2      0.000      0.000
REMARK  4 active torsions:
REMARK  status: ('A' for Active; 'I' for Inactive)
REMARK    1  A    between atoms: C_14  and  N_3 
REMARK    2  A    between atoms: C_13  and  N_7 
REMARK       I    between atoms: N_9  and  C_10 
REMARK    3  A    between atoms: C_10  and  C_13 
REMARK    4  A    between atoms: C_19  and  C_14 
ROOT
ATOM      1  C   UNL d   1      14.356  16.774  -4.971  0.00  0.00     0.191 A 
ATOM      2  C   UNL d   1      14.617  16.623  -4.204  0.00  0.00     0.196 A 
ATOM      3  N   UNL d   1      14.649  17.502  -5.201  0.00  0.00    -0.191 N 
ATOM      4  N   UNL d   1      13.877  16.215  -5.366  0.00  0.00    -0.204 NA
ATOM      5  N   UNL d   1      15.075  17.272  -3.968  0.00  0.00    -0.122 NA
ATOM      6  N   UNL d   1      15.089  17.810  -4.590  0.00  0.00    -0.058 NA
ATOM      7  N   UNL d   1      13.936  15.368  -4.206  0.00  0.00    -0.249 N 
ATOM      8  C   UNL d   1      14.415  15.931  -3.818  0.00  0.00     0.289 A 
ATOM      9  C   UNL d   1      13.665  15.507  -4.981  0.00  0.00     0.187 A 
ATOM     10  O   UNL d   1      14.676  15.780  -3.051  0.00  0.00    -0.265 OA
ENDROOT
BRANCH   7  11
ATOM     11  C   UNL d   1      13.723  14.670  -3.835  0.00  0.00     0.146 C 
BRANCH  11  12
ATOM     12  C   UNL d   1      13.282  14.093  -4.212  0.00  0.00     0.283 C 
ATOM     13  N   UNL d   1      13.248  13.312  -3.924  0.00  0.00    -0.272 N 
ATOM     14  C   UNL d   1      13.673  13.113  -3.237  0.00  0.00     0.067 A 
ATOM     15  C   UNL d   1      12.805  12.753  -4.309  0.00  0.00     0.083 A 
ATOM     16  C   UNL d   1      13.639  12.332  -2.949  0.00  0.00     0.016 A 
ATOM     17  C   UNL d   1      14.122  13.672  -2.842  0.00  0.00     0.018 A 
ATOM     18  C   UNL d   1      14.064  12.132  -2.261  0.00  0.00     0.001 A 
ATOM     19  C   UNL d   1      13.192  11.784  -3.344  0.00  0.00     0.003 A 
ATOM     20  C   UNL d   1      14.511  12.697  -1.872  0.00  0.00     0.000 A 
ATOM     21  C   UNL d   1      14.545  13.478  -2.160  0.00  0.00     0.002 A 
ATOM     22  C   UNL d   1      12.771  11.972  -4.022  0.00  0.00     0.019 A 
ATOM     23  O   UNL d   1      12.856  14.293  -4.900  0.00  0.00    -0.265 OA
ENDBRANCH  11  12
ENDBRANCH   7  11
BRANCH   3  24
ATOM     24  C   UNL d   1      14.516  17.863  -5.935  0.00  0.00     0.104 C 
BRANCH  24  25
ATOM     25  C   UNL d   1      14.326  18.650  -5.978  0.00  0.00     0.019 A 
ATOM     26  C   UNL d   1      14.830  19.217  -5.656  0.00  0.00     0.002 A 
ATOM     27  C   UNL d   1      14.632  20.004  -5.702  0.00  0.00     0.000 A 
ATOM     28  C   UNL d   1      13.937  20.246  -6.066  0.00  0.00     0.000 A 
ATOM     29  C   UNL d   1      13.433  19.679  -6.388  0.00  0.00     0.000 A 
ATOM     30  C   UNL d   1      13.624  18.892  -6.345  0.00  0.00     0.002 A 
ENDBRANCH  24  25
ENDBRANCH   3  24
TORSDOF 4
ENDMDL
