MODEL 1
REMARK VINA RESULT:      -3.9      0.000      0.000
REMARK  6 active torsions:
REMARK  status: ('A' for Active; 'I' for Inactive)
REMARK    1  A    between atoms: C_9  and  N_1 
REMARK    2  A    between atoms: S_10  and  C_6 
REMARK    3  A    between atoms: C_16  and  C_9 
REMARK    4  A    between atoms: C_15  and  S_10 
REMARK    5  A    between atoms: C_12  and  C_15 
REMARK       I    between atoms: N_13  and  C_12 
REMARK    6  A    between atoms: C_19  and  N_13 
ROOT
ATOM      1  N   UNL d   1      31.198  16.914 -24.280  0.00  0.00    -0.192 N 
ATOM      2  N   UNL d   1      30.886  17.660 -24.422  0.00  0.00    -0.058 NA
ATOM      3  C   UNL d   1      31.897  17.013 -23.855  0.00  0.00     0.189 A 
ATOM      4  C   UNL d   1      32.006  17.826 -23.740  0.00  0.00     0.164 A 
ATOM      5  N   UNL d   1      31.372  18.215 -24.096  0.00  0.00    -0.125 NA
ATOM      6  C   UNL d   1      32.657  18.102 -23.332  0.00  0.00     0.135 A 
ATOM      7  N   UNL d   1      32.439  16.477 -23.562  0.00  0.00    -0.203 NA
ATOM      8  N   UNL d   1      33.214  17.563 -23.031  0.00  0.00    -0.216 NA
ATOM      9  C   UNL d   1      33.104  16.750 -23.146  0.00  0.00     0.201 A 
ENDROOT
BRANCH   6  10
ATOM     10  S   UNL d   1      32.766  18.915 -23.217  0.00  0.00    -0.061 SA
BRANCH  10  11
ATOM     11  C   UNL d   1      33.038  19.199 -22.501  0.00  0.00     0.099 C 
BRANCH  11  12
ATOM     12  C   UNL d   1      32.956  20.003 -22.319  0.00  0.00     0.286 C 
ATOM     13  N   UNL d   1      32.825  20.230 -21.530  0.00  0.00    -0.208 NA
ATOM     14  O   UNL d   1      33.003  20.576 -22.909  0.00  0.00    -0.265 OA
BRANCH  13  15
ATOM     15  C   UNL d   1      32.742  21.032 -21.339  0.00  0.00     0.085 A 
ATOM     16  C   UNL d   1      33.147  21.718 -21.602  0.00  0.00     0.019 A 
ATOM     17  C   UNL d   1      32.815  22.352 -21.213  0.00  0.00     0.002 A 
ATOM     18  C   UNL d   1      32.236  22.075 -20.734  0.00  0.00     0.002 A 
ATOM     19  C   UNL d   1      32.173  21.271 -20.794  0.00  0.00     0.019 A 
ENDBRANCH  13  15
ENDBRANCH  11  12
ENDBRANCH  10  11
ENDBRANCH   6  10
BRANCH   1  20
ATOM     20  C   UNL d   1      30.861  16.184 -24.526  0.00  0.00     0.104 C 
BRANCH  20  21
ATOM     21  C   UNL d   1      30.059  16.012 -24.364  0.00  0.00     0.019 A 
ATOM     22  C   UNL d   1      29.493  16.079 -24.963  0.00  0.00     0.004 A 
ATOM     23  C   UNL d   1      28.707  15.911 -24.810  0.00  0.00     0.030 A 
ATOM     24  C   UNL d   1      28.479  15.673 -24.049  0.00  0.00     0.140 A 
ATOM     25  C   UNL d   1      29.045  15.603 -23.440  0.00  0.00     0.030 A 
ATOM     26  F   UNL d   1      27.668  15.503 -23.901  0.00  0.00    -0.204 F 
ATOM     27  C   UNL d   1      29.823  15.774 -23.610  0.00  0.00     0.004 A 
ENDBRANCH  20  21
ENDBRANCH   1  20
TORSDOF 6
ENDMDL
MODEL 2
REMARK VINA RESULT:      -3.1      3.373      7.080
REMARK  6 active torsions:
REMARK  status: ('A' for Active; 'I' for Inactive)
REMARK    1  A    between atoms: C_9  and  N_1 
REMARK    2  A    between atoms: S_10  and  C_6 
REMARK    3  A    between atoms: C_16  and  C_9 
REMARK    4  A    between atoms: C_15  and  S_10 
REMARK    5  A    between atoms: C_12  and  C_15 
REMARK       I    between atoms: N_13  and  C_12 
REMARK    6  A    between atoms: C_19  and  N_13 
ROOT
ATOM      1  N   UNL d   1      32.734  22.735 -19.840  0.00  0.00    -0.192 N 
ATOM      2  N   UNL d   1      32.925  22.009 -19.508  0.00  0.00    -0.058 NA
ATOM      3  C   UNL d   1      32.742  22.644 -20.659  0.00  0.00     0.189 A 
ATOM      4  C   UNL d   1      32.941  21.857 -20.821  0.00  0.00     0.164 A 
ATOM      5  N   UNL d   1      33.052  21.475 -20.099  0.00  0.00    -0.125 NA
ATOM      6  C   UNL d   1      32.995  21.593 -21.592  0.00  0.00     0.135 A 
ATOM      7  N   UNL d   1      32.597  23.168 -21.269  0.00  0.00    -0.203 NA
ATOM      8  N   UNL d   1      32.849  22.120 -22.218  0.00  0.00    -0.216 NA
ATOM      9  C   UNL d   1      32.650  22.908 -22.057  0.00  0.00     0.201 A 
ENDROOT
BRANCH   6  10
ATOM     10  S   UNL d   1      33.194  20.806 -21.754  0.00  0.00    -0.061 SA
BRANCH  10  11
ATOM     11  C   UNL d   1      33.161  20.519 -22.518  0.00  0.00     0.099 C 
BRANCH  11  12
ATOM     12  C   UNL d   1      33.111  19.703 -22.650  0.00  0.00     0.286 C 
ATOM     13  N   UNL d   1      33.059  19.420 -23.430  0.00  0.00    -0.208 NA
ATOM     14  O   UNL d   1      33.113  19.172 -22.020  0.00  0.00    -0.265 OA
BRANCH  13  15
ATOM     15  C   UNL d   1      33.009  18.605 -23.571  0.00  0.00     0.085 A 
ATOM     16  C   UNL d   1      32.977  17.946 -23.055  0.00  0.00     0.019 A 
ATOM     17  C   UNL d   1      32.931  17.280 -23.524  0.00  0.00     0.002 A 
ATOM     18  C   UNL d   1      32.934  17.514 -24.290  0.00  0.00     0.002 A 
ATOM     19  C   UNL d   1      32.981  18.320 -24.343  0.00  0.00     0.019 A 
ENDBRANCH  13  15
ENDBRANCH  11  12
ENDBRANCH  10  11
ENDBRANCH   6  10
BRANCH   1  20
ATOM     20  C   UNL d   1      32.560  23.440 -19.417  0.00  0.00     0.104 C 
BRANCH  20  21
ATOM     21  C   UNL d   1      32.559  23.443 -18.581  0.00  0.00     0.019 A 
ATOM     22  C   UNL d   1      31.879  23.673 -18.169  0.00  0.00     0.004 A 
ATOM     23  C   UNL d   1      31.873  23.677 -17.351  0.00  0.00     0.030 A 
ATOM     24  C   UNL d   1      32.553  23.449 -16.934  0.00  0.00     0.140 A 
ATOM     25  C   UNL d   1      33.241  23.216 -17.343  0.00  0.00     0.030 A 
ATOM     26  F   UNL d   1      32.535  23.457 -16.093  0.00  0.00    -0.204 F 
ATOM     27  C   UNL d   1      33.230  23.217 -18.157  0.00  0.00     0.004 A 
ENDBRANCH  20  21
ENDBRANCH   1  20
TORSDOF 6
ENDMDL
