MODEL 1
REMARK VINA RESULT:      -1.7      0.000      0.000
REMARK  4 active torsions:
REMARK  status: ('A' for Active; 'I' for Inactive)
REMARK    1  A    between atoms: C_2  and  C_1 
REMARK    2  A    between atoms: C_7  and  O_14 
REMARK       I    between atoms: N_12  and  C_7 
REMARK    3  A    between atoms: O_14  and  C_11 
REMARK    4  A    between atoms: C_24  and  C_18 
ROOT
ATOM      1  C   UNL d   1      32.819  18.345 -22.858  0.00  0.00     0.099 A 
ATOM      2  C   UNL d   1      32.694  19.108 -23.143  0.00  0.00     0.202 A 
ATOM      3  C   UNL d   1      32.830  19.766 -22.653  0.00  0.00     0.062 A 
ATOM      4  C   UNL d   1      33.083  18.231 -22.078  0.00  0.00     0.129 A 
ATOM      5  C   UNL d   1      33.092  19.652 -21.878  0.00  0.00     0.105 A 
ATOM      6  O   UNL d   1      33.220  18.889 -21.587  0.00  0.00    -0.305 OA
ATOM      7  C   UNL d   1      33.101  21.057 -21.683  0.00  0.00     0.107 A 
ATOM      8  C   UNL d   1      32.705  20.529 -22.939  0.00  0.00     0.007 A 
ATOM      9  C   UNL d   1      33.229  20.302 -21.389  0.00  0.00     0.050 A 
ATOM     10  C   UNL d   1      32.841  21.170 -22.451  0.00  0.00     0.023 A 
ATOM     11  O   UNL d   1      32.433  19.221 -23.915  0.00  0.00    -0.286 OA
ENDROOT
BRANCH   1  12
ATOM     12  C   UNL d   1      32.684  17.691 -23.344  0.00  0.00     0.168 A 
ATOM     13  N   UNL d   1      33.227  17.348 -23.858  0.00  0.00    -0.225 NA
ATOM     14  C   UNL d   1      32.855  16.705 -24.234  0.00  0.00     0.101 A 
ATOM     15  C   UNL d   1      33.118  16.167 -24.792  0.00  0.00     0.021 A 
ATOM     16  C   UNL d   1      32.083  16.659 -23.947  0.00  0.00     0.101 A 
ATOM     17  C   UNL d   1      32.618  15.575 -25.073  0.00  0.00     0.002 A 
ATOM     18  C   UNL d   1      31.840  15.531 -24.780  0.00  0.00     0.002 A 
ATOM     19  C   UNL d   1      31.574  16.075 -24.217  0.00  0.00     0.021 A 
ATOM     20  N   UNL d   1      31.979  17.269 -23.396  0.00  0.00    -0.225 NA
ENDBRANCH   1  12
BRANCH  10  21
ATOM     21  C   UNL d   1      32.716  21.941 -22.735  0.00  0.00     0.002 C 
ATOM     22  C   UNL d   1      32.970  22.145 -23.494  0.00  0.00     0.000 C 
ENDBRANCH  10  21
BRANCH   7  23
ATOM     23  O   UNL d   1      33.240  21.714 -21.185  0.00  0.00    -0.259 OA
BRANCH  23  24
ATOM     24  C   UNL d   1      33.236  21.622 -20.364  0.00  0.00     0.378 C 
ATOM     25  N   UNL d   1      33.227  22.285 -19.874  0.00  0.00    -0.247 N 
ATOM     26  C   UNL d   1      33.222  22.185 -19.054  0.00  0.00     0.112 A 
ATOM     27  C   UNL d   1      33.222  23.040 -20.206  0.00  0.00     0.112 A 
ATOM     28  C   UNL d   1      33.213  22.843 -18.564  0.00  0.00     0.142 A 
ATOM     29  O   UNL d   1      33.208  23.602 -18.891  0.00  0.00    -0.300 OA
ATOM     30  C   UNL d   1      33.213  23.702 -19.711  0.00  0.00     0.142 A 
ATOM     31  O   UNL d   1      33.240  20.867 -20.032  0.00  0.00    -0.237 OA
ENDBRANCH  23  24
ENDBRANCH   7  23
TORSDOF 4
ENDMDL
MODEL 2
REMARK VINA RESULT:      -0.6      1.047      5.913
REMARK  4 active torsions:
REMARK  status: ('A' for Active; 'I' for Inactive)
REMARK    1  A    between atoms: C_2  and  C_1 
REMARK    2  A    between atoms: C_7  and  O_14 
REMARK       I    between atoms: N_12  and  C_7 
REMARK    3  A    between atoms: O_14  and  C_11 
REMARK    4  A    between atoms: C_24  and  C_18 
ROOT
ATOM      1  C   UNL d   1      33.111  20.828 -20.647  0.00  0.00     0.099 A 
ATOM      2  C   UNL d   1      33.141  21.000 -21.453  0.00  0.00     0.202 A 
ATOM      3  C   UNL d   1      33.160  20.384 -22.011  0.00  0.00     0.062 A 
ATOM      4  C   UNL d   1      33.098  20.037 -20.391  0.00  0.00     0.129 A 
ATOM      5  C   UNL d   1      33.148  19.598 -21.756  0.00  0.00     0.105 A 
ATOM      6  O   UNL d   1      33.117  19.421 -20.950  0.00  0.00    -0.305 OA
ATOM      7  C   UNL d   1      33.197  19.167 -23.107  0.00  0.00     0.107 A 
ATOM      8  C   UNL d   1      33.191  20.556 -22.817  0.00  0.00     0.007 A 
ATOM      9  C   UNL d   1      33.166  18.985 -22.307  0.00  0.00     0.050 A 
ATOM     10  C   UNL d   1      33.209  19.945 -23.360  0.00  0.00     0.023 A 
ATOM     11  O   UNL d   1      33.154  21.782 -21.706  0.00  0.00    -0.286 OA
ENDROOT
BRANCH   1  12
ATOM     12  C   UNL d   1      33.092  21.438 -20.091  0.00  0.00     0.168 A 
ATOM     13  N   UNL d   1      32.928  22.231 -20.246  0.00  0.00    -0.225 NA
ATOM     14  C   UNL d   1      32.969  22.646 -19.526  0.00  0.00     0.101 A 
ATOM     15  C   UNL d   1      32.860  23.436 -19.340  0.00  0.00     0.021 A 
ATOM     16  C   UNL d   1      33.160  22.105 -18.933  0.00  0.00     0.101 A 
ATOM     17  C   UNL d   1      32.938  23.700 -18.563  0.00  0.00     0.002 A 
ATOM     18  C   UNL d   1      33.130  23.150 -17.968  0.00  0.00     0.002 A 
ATOM     19  C   UNL d   1      33.241  22.353 -18.156  0.00  0.00     0.021 A 
ATOM     20  N   UNL d   1      33.235  21.359 -19.285  0.00  0.00    -0.225 NA
ENDBRANCH   1  12
BRANCH  10  21
ATOM     21  C   UNL d   1      33.240  20.115 -24.174  0.00  0.00     0.002 C 
ATOM     22  C   UNL d   1      33.202  20.899 -24.431  0.00  0.00     0.000 C 
ENDBRANCH  10  21
BRANCH   7  23
ATOM     23  O   UNL d   1      33.216  18.544 -23.663  0.00  0.00    -0.259 OA
BRANCH  23  24
ATOM     24  C   UNL d   1      32.955  17.789 -23.452  0.00  0.00     0.378 C 
ATOM     25  N   UNL d   1      32.409  17.392 -23.925  0.00  0.00    -0.247 N 
ATOM     26  C   UNL d   1      32.152  16.638 -23.706  0.00  0.00     0.112 A 
ATOM     27  C   UNL d   1      32.123  17.751 -24.611  0.00  0.00     0.112 A 
ATOM     28  C   UNL d   1      31.609  16.242 -24.176  0.00  0.00     0.142 A 
ATOM     29  O   UNL d   1      31.320  16.596 -24.864  0.00  0.00    -0.300 OA
ATOM     30  C   UNL d   1      31.576  17.350 -25.083  0.00  0.00     0.142 A 
ATOM     31  O   UNL d   1      33.240  17.430 -22.765  0.00  0.00    -0.237 OA
ENDBRANCH  23  24
ENDBRANCH   7  23
TORSDOF 4
ENDMDL
