MODEL 1
REMARK VINA RESULT:      67.0      0.000      0.000
REMARK  5 active torsions:
REMARK  status: ('A' for Active; 'I' for Inactive)
REMARK    1  A    between atoms: N_2  and  C_1 
REMARK    2  A    between atoms: N_3  and  C_1 
REMARK       I    between atoms: C_4  and  N_3 
REMARK    3  A    between atoms: C_11  and  C_4 
REMARK    4  A    between atoms: O_7  and  C_11 
REMARK    5  A    between atoms: C_8  and  O_7 
ROOT
ATOM      1  N   UNL d   1      60.515  49.702  50.577  0.00  0.00    -0.178 NA
ATOM      2  C   UNL d   1      60.998  49.027  50.611  0.00  0.00     0.304 C 
ATOM      3  O   UNL d   1      61.759  49.049  50.302  0.00  0.00    -0.263 OA
ENDROOT
BRANCH   2   4
ATOM      4  C   UNL d   1      60.715  48.331  50.956  0.00  0.00     0.158 C 
ATOM      5  C   UNL d   1      60.754  48.236  51.770  0.00  0.00     0.032 C 
BRANCH   4   6
ATOM      6  O   UNL d   1      60.396  47.736  50.485  0.00  0.00    -0.301 OA
BRANCH   6   7
ATOM      7  C   UNL d   1      60.806  47.038  50.358  0.00  0.00     0.111 A 
ATOM      8  C   UNL d   1      60.563  46.329  50.707  0.00  0.00     0.081 A 
ATOM      9  C   UNL d   1      60.982  45.631  50.574  0.00  0.00     0.025 A 
ATOM     10 CL   UNL d   1      59.897  46.319  51.193  0.00  0.00    -0.080 Cl
ATOM     11  C   UNL d   1      61.644  45.637  50.092  0.00  0.00     0.059 A 
ATOM     12  C   UNL d   1      61.893  46.347  49.738  0.00  0.00     0.013 A 
ATOM     13 CL   UNL d   1      62.074  44.927  49.954  0.00  0.00    -0.082 Cl
ATOM     14  C   UNL d   1      61.476  47.043  49.870  0.00  0.00     0.026 A 
ENDBRANCH   6   7
ENDBRANCH   4   6
ENDBRANCH   2   4
BRANCH   1  15
ATOM     15  C   UNL d   1      59.754  49.681  50.886  0.00  0.00     0.209 C 
ATOM     16  S   UNL d   1      59.642  49.653  51.707  0.00  0.00    -0.038 SA
BRANCH  15  17
ATOM     17  N   UNL d   1      59.097  49.687  50.386  0.00  0.00    -0.282 N 
ATOM     18  C   UNL d   1      58.313  49.688  50.611  0.00  0.00     0.066 A 
ATOM     19  C   UNL d   1      57.847  49.695  49.931  0.00  0.00     0.018 A 
ATOM     20  C   UNL d   1      57.959  49.683  51.360  0.00  0.00     0.018 A 
ATOM     21  C   UNL d   1      57.025  49.697  49.994  0.00  0.00     0.002 A 
ATOM     22  C   UNL d   1      58.343  49.698  49.285  0.00  0.00     0.021 A 
ATOM     23  C   UNL d   1      56.660  49.692  50.742  0.00  0.00     0.000 A 
ATOM     24  C   UNL d   1      57.126  49.685  51.423  0.00  0.00     0.002 A 
ATOM     25  C   UNL d   1      59.122  49.693  49.558  0.00  0.00     0.082 A 
ENDBRANCH  15  17
ENDBRANCH   1  15
TORSDOF 5
ENDMDL
