MODEL 1
REMARK VINA RESULT:      -1.5      0.000      0.000
REMARK  1 active torsions:
REMARK  status: ('A' for Active; 'I' for Inactive)
REMARK    1  A    between atoms: C_6  and  C_2 
ROOT
ATOM      1  C   UNL d   1      24.225  12.891  -1.495  0.00  0.00     0.019 A 
ATOM      2  C   UNL d   1      23.542  12.616  -1.142  0.00  0.00     0.001 A 
ATOM      3  C   UNL d   1      24.703  13.441  -1.128  0.00  0.00     0.001 A 
ATOM      4  C   UNL d   1      24.498  13.728  -0.385  0.00  0.00     0.000 A 
ATOM      5  C   UNL d   1      23.329  12.901  -0.394  0.00  0.00     0.000 A 
ATOM      6  C   UNL d   1      23.806  13.455  -0.019  0.00  0.00     0.000 A 
ENDROOT
BRANCH   1   7
ATOM      7  C   UNL d   1      24.436  12.603  -2.246  0.00  0.00     0.102 A 
ATOM      8  N   UNL d   1      24.575  13.060  -2.917  0.00  0.00    -0.222 NA
ATOM      9  C   UNL d   1      24.768  12.549  -3.538  0.00  0.00     0.199 A 
ATOM     10  N   UNL d   1      24.749  11.779  -3.249  0.00  0.00    -0.221 NA
ATOM     11  C   UNL d   1      24.544  11.807  -2.450  0.00  0.00     0.120 A 
ENDBRANCH   1   7
TORSDOF 1
ENDMDL
