MODEL 1
REMARK VINA RESULT:      -8.8      0.000      0.000
REMARK  4 active torsions:
REMARK  status: ('A' for Active; 'I' for Inactive)
REMARK    1  A    between atoms: C_16  and  C_4 
REMARK    2  A    between atoms: C_8  and  S_14 
REMARK    3  A    between atoms: C_18  and  C_9 
REMARK    4  A    between atoms: S_14  and  C_16 
ROOT
ATOM      1  N   UNL d   1      52.488  33.321  53.710  0.00  0.00    -0.218 NA
ATOM      2  C   UNL d   1      51.871  33.136  53.183  0.00  0.00     0.215 A 
ATOM      3  C   UNL d   1      53.184  32.918  53.699  0.00  0.00     0.104 A 
ATOM      4  N   UNL d   1      51.974  32.522  52.634  0.00  0.00    -0.121 NA
ATOM      5  N   UNL d   1      52.690  32.104  52.619  0.00  0.00    -0.143 NA
ATOM      6  C   UNL d   1      53.286  32.294  53.138  0.00  0.00     0.141 A 
ENDROOT
BRANCH   2   7
ATOM      7  S   UNL d   1      51.170  33.551  53.203  0.00  0.00    -0.045 SA
BRANCH   7   8
ATOM      8  C   UNL d   1      50.949  33.994  52.553  0.00  0.00     0.060 C 
BRANCH   8   9
ATOM      9  C   UNL d   1      50.225  34.434  52.564  0.00  0.00     0.124 A 
ATOM     10  N   UNL d   1      49.942  34.886  53.158  0.00  0.00    -0.059 NA
ATOM     11  C   UNL d   1      49.224  35.204  52.920  0.00  0.00     0.735 A 
ATOM     12  N   UNL d   1      49.080  34.929  52.157  0.00  0.00    -0.136 N 
ATOM     13  N   UNL d   1      48.676  35.707  53.288  0.00  0.00    -0.059 NA
ATOM     14  C   UNL d   1      49.706  34.449  51.939  0.00  0.00     0.118 A 
ATOM     15  C   UNL d   1      48.396  35.151  51.760  0.00  0.00     0.100 A 
ATOM     16  C   UNL d   1      47.849  35.653  52.127  0.00  0.00     0.041 A 
ATOM     17  C   UNL d   1      47.987  35.932  52.890  0.00  0.00     0.119 A 
ENDBRANCH   8   9
ENDBRANCH   7   8
ENDBRANCH   2   7
BRANCH   3  18
ATOM     18  C   UNL d   1      53.801  33.109  54.232  0.00  0.00     0.019 A 
ATOM     19  C   UNL d   1      54.419  33.575  53.961  0.00  0.00     0.002 A 
ATOM     20  C   UNL d   1      55.036  33.766  54.493  0.00  0.00     0.000 A 
ATOM     21  C   UNL d   1      55.014  33.488  55.270  0.00  0.00     0.000 A 
ATOM     22  C   UNL d   1      54.371  33.016  55.517  0.00  0.00     0.000 A 
ATOM     23  C   UNL d   1      53.775  32.836  54.989  0.00  0.00     0.002 A 
ENDBRANCH   3  18
TORSDOF 4
ENDMDL
MODEL 2
REMARK VINA RESULT:      -8.0      1.139      1.922
REMARK  4 active torsions:
REMARK  status: ('A' for Active; 'I' for Inactive)
REMARK    1  A    between atoms: C_16  and  C_4 
REMARK    2  A    between atoms: C_8  and  S_14 
REMARK    3  A    between atoms: C_18  and  C_9 
REMARK    4  A    between atoms: S_14  and  C_16 
ROOT
ATOM      1  N   UNL d   1      52.078  33.072  52.896  0.00  0.00    -0.218 NA
ATOM      2  C   UNL d   1      51.843  33.870  52.864  0.00  0.00     0.215 A 
ATOM      3  C   UNL d   1      52.752  32.849  53.271  0.00  0.00     0.104 A 
ATOM      4  N   UNL d   1      52.314  34.449  53.226  0.00  0.00    -0.121 NA
ATOM      5  N   UNL d   1      53.010  34.223  53.615  0.00  0.00    -0.143 NA
ATOM      6  C   UNL d   1      53.230  33.441  53.640  0.00  0.00     0.141 A 
ENDROOT
BRANCH   2   7
ATOM      7  S   UNL d   1      51.156  34.086  52.480  0.00  0.00    -0.045 SA
BRANCH   7   8
ATOM      8  C   UNL d   1      50.546  34.418  52.909  0.00  0.00     0.060 C 
BRANCH   8   9
ATOM      9  C   UNL d   1      49.825  34.641  52.522  0.00  0.00     0.124 A 
ATOM     10  N   UNL d   1      49.575  34.416  51.799  0.00  0.00    -0.059 NA
ATOM     11  C   UNL d   1      48.847  34.767  51.656  0.00  0.00     0.735 A 
ATOM     12  N   UNL d   1      48.664  35.217  52.322  0.00  0.00    -0.136 N 
ATOM     13  N   UNL d   1      48.322  34.745  51.016  0.00  0.00    -0.059 NA
ATOM     14  C   UNL d   1      49.276  35.135  52.859  0.00  0.00     0.118 A 
ATOM     15  C   UNL d   1      47.962  35.642  52.353  0.00  0.00     0.100 A 
ATOM     16  C   UNL d   1      47.437  35.620  51.712  0.00  0.00     0.041 A 
ATOM     17  C   UNL d   1      47.615  35.173  51.044  0.00  0.00     0.119 A 
ENDBRANCH   8   9
ENDBRANCH   7   8
ENDBRANCH   2   7
BRANCH   3  18
ATOM     18  C   UNL d   1      52.983  32.045  53.300  0.00  0.00     0.019 A 
ATOM     19  C   UNL d   1      53.673  31.852  53.700  0.00  0.00     0.002 A 
ATOM     20  C   UNL d   1      53.904  31.047  53.729  0.00  0.00     0.000 A 
ATOM     21  C   UNL d   1      53.442  30.471  53.361  0.00  0.00     0.000 A 
ATOM     22  C   UNL d   1      52.746  30.697  52.961  0.00  0.00     0.000 A 
ATOM     23  C   UNL d   1      52.530  31.485  52.940  0.00  0.00     0.002 A 
ENDBRANCH   3  18
TORSDOF 4
ENDMDL
MODEL 3
REMARK VINA RESULT:      -7.3      0.914      5.412
REMARK  4 active torsions:
REMARK  status: ('A' for Active; 'I' for Inactive)
REMARK    1  A    between atoms: C_16  and  C_4 
REMARK    2  A    between atoms: C_8  and  S_14 
REMARK    3  A    between atoms: C_18  and  C_9 
REMARK    4  A    between atoms: S_14  and  C_16 
ROOT
ATOM      1  N   UNL d   1      49.493  34.976  52.921  0.00  0.00    -0.218 NA
ATOM      2  C   UNL d   1      50.093  34.471  52.641  0.00  0.00     0.215 A 
ATOM      3  C   UNL d   1      48.881  35.200  52.451  0.00  0.00     0.104 A 
ATOM      4  N   UNL d   1      50.060  34.192  51.861  0.00  0.00    -0.121 NA
ATOM      5  N   UNL d   1      49.430  34.421  51.373  0.00  0.00    -0.143 NA
ATOM      6  C   UNL d   1      48.850  34.914  51.657  0.00  0.00     0.141 A 
ENDROOT
BRANCH   2   7
ATOM      7  S   UNL d   1      50.710  34.250  53.127  0.00  0.00    -0.045 SA
BRANCH   7   8
ATOM      8  C   UNL d   1      51.470  34.243  52.829  0.00  0.00     0.060 C 
BRANCH   8   9
ATOM      9  C   UNL d   1      52.126  34.076  53.340  0.00  0.00     0.124 A 
ATOM     10  N   UNL d   1      52.522  34.591  53.803  0.00  0.00    -0.059 NA
ATOM     11  C   UNL d   1      53.113  34.182  54.199  0.00  0.00     0.735 A 
ATOM     12  N   UNL d   1      53.062  33.395  53.958  0.00  0.00    -0.136 N 
ATOM     13  N   UNL d   1      53.693  34.409  54.745  0.00  0.00    -0.059 NA
ATOM     14  C   UNL d   1      52.446  33.334  53.423  0.00  0.00     0.118 A 
ATOM     15  C   UNL d   1      53.584  32.837  54.257  0.00  0.00     0.100 A 
ATOM     16  C   UNL d   1      54.164  33.064  54.804  0.00  0.00     0.041 A 
ATOM     17  C   UNL d   1      54.220  33.848  55.048  0.00  0.00     0.119 A 
ENDBRANCH   8   9
ENDBRANCH   7   8
ENDBRANCH   2   7
BRANCH   3  18
ATOM     18  C   UNL d   1      48.281  35.708  52.739  0.00  0.00     0.019 A 
ATOM     19  C   UNL d   1      47.679  35.928  52.227  0.00  0.00     0.002 A 
ATOM     20  C   UNL d   1      47.079  36.437  52.515  0.00  0.00     0.000 A 
ATOM     21  C   UNL d   1      47.101  36.704  53.295  0.00  0.00     0.000 A 
ATOM     22  C   UNL d   1      47.727  36.463  53.792  0.00  0.00     0.000 A 
ATOM     23  C   UNL d   1      48.307  35.967  53.501  0.00  0.00     0.002 A 
ENDBRANCH   3  18
TORSDOF 4
ENDMDL
MODEL 4
REMARK VINA RESULT:      -6.7      1.898      5.274
REMARK  4 active torsions:
REMARK  status: ('A' for Active; 'I' for Inactive)
REMARK    1  A    between atoms: C_16  and  C_4 
REMARK    2  A    between atoms: C_8  and  S_14 
REMARK    3  A    between atoms: C_18  and  C_9 
REMARK    4  A    between atoms: S_14  and  C_16 
ROOT
ATOM      1  N   UNL d   1      51.970  33.565  53.168  0.00  0.00    -0.218 NA
ATOM      2  C   UNL d   1      52.743  33.465  53.461  0.00  0.00     0.215 A 
ATOM      3  C   UNL d   1      51.714  34.276  52.896  0.00  0.00     0.104 A 
ATOM      4  N   UNL d   1      53.261  34.111  53.472  0.00  0.00    -0.121 NA
ATOM      5  N   UNL d   1      53.002  34.847  53.192  0.00  0.00    -0.143 NA
ATOM      6  C   UNL d   1      52.245  34.933  52.909  0.00  0.00     0.141 A 
ENDROOT
BRANCH   2   7
ATOM      7  S   UNL d   1      52.992  32.738  53.735  0.00  0.00    -0.045 SA
BRANCH   7   8
ATOM      8  C   UNL d   1      53.247  32.175  53.200  0.00  0.00     0.060 C 
BRANCH   8   9
ATOM      9  C   UNL d   1      53.195  31.351  53.392  0.00  0.00     0.124 A 
ATOM     10  N   UNL d   1      52.742  30.799  53.036  0.00  0.00    -0.059 NA
ATOM     11  C   UNL d   1      52.873  30.079  53.407  0.00  0.00     0.735 A 
ATOM     12  N   UNL d   1      53.425  30.214  54.004  0.00  0.00    -0.136 N 
ATOM     13  N   UNL d   1      52.569  29.317  53.290  0.00  0.00    -0.059 NA
ATOM     14  C   UNL d   1      53.623  31.008  53.991  0.00  0.00     0.118 A 
ATOM     15  C   UNL d   1      53.675  29.595  54.482  0.00  0.00     0.100 A 
ATOM     16  C   UNL d   1      53.372  28.833  54.365  0.00  0.00     0.041 A 
ATOM     17  C   UNL d   1      52.820  28.692  53.770  0.00  0.00     0.119 A 
ENDBRANCH   8   9
ENDBRANCH   7   8
ENDBRANCH   2   7
BRANCH   3  18
ATOM     18  C   UNL d   1      50.935  34.371  52.603  0.00  0.00     0.019 A 
ATOM     19  C   UNL d   1      50.800  34.233  51.806  0.00  0.00     0.002 A 
ATOM     20  C   UNL d   1      50.021  34.327  51.513  0.00  0.00     0.000 A 
ATOM     21  C   UNL d   1      49.412  34.554  52.022  0.00  0.00     0.000 A 
ATOM     22  C   UNL d   1      49.580  34.687  52.828  0.00  0.00     0.000 A 
ATOM     23  C   UNL d   1      50.344  34.591  53.102  0.00  0.00     0.002 A 
ENDBRANCH   3  18
TORSDOF 4
ENDMDL
MODEL 5
REMARK VINA RESULT:      -6.6      1.501      2.399
REMARK  4 active torsions:
REMARK  status: ('A' for Active; 'I' for Inactive)
REMARK    1  A    between atoms: C_16  and  C_4 
REMARK    2  A    between atoms: C_8  and  S_14 
REMARK    3  A    between atoms: C_18  and  C_9 
REMARK    4  A    between atoms: S_14  and  C_16 
ROOT
ATOM      1  N   UNL d   1      50.813  34.505  53.183  0.00  0.00    -0.218 NA
ATOM      2  C   UNL d   1      50.185  34.518  52.638  0.00  0.00     0.215 A 
ATOM      3  C   UNL d   1      51.559  34.304  52.959  0.00  0.00     0.104 A 
ATOM      4  N   UNL d   1      50.328  34.319  51.846  0.00  0.00    -0.121 NA
ATOM      5  N   UNL d   1      51.095  34.111  51.610  0.00  0.00    -0.143 NA
ATOM      6  C   UNL d   1      51.701  34.102  52.150  0.00  0.00     0.141 A 
ENDROOT
BRANCH   2   7
ATOM      7  S   UNL d   1      49.432  34.724  52.877  0.00  0.00    -0.045 SA
BRANCH   7   8
ATOM      8  C   UNL d   1      49.207  35.508  52.855  0.00  0.00     0.060 C 
BRANCH   8   9
ATOM      9  C   UNL d   1      48.418  35.731  53.072  0.00  0.00     0.124 A 
ATOM     10  N   UNL d   1      47.777  35.767  52.598  0.00  0.00    -0.059 NA
ATOM     11  C   UNL d   1      47.136  36.009  53.049  0.00  0.00     0.735 A 
ATOM     12  N   UNL d   1      47.411  36.119  53.818  0.00  0.00    -0.136 N 
ATOM     13  N   UNL d   1      46.338  36.146  52.873  0.00  0.00    -0.059 NA
ATOM     14  C   UNL d   1      48.210  35.945  53.828  0.00  0.00     0.118 A 
ATOM     15  C   UNL d   1      46.897  36.365  54.409  0.00  0.00     0.100 A 
ATOM     16  C   UNL d   1      46.098  36.501  54.233  0.00  0.00     0.041 A 
ATOM     17  C   UNL d   1      45.818  36.393  53.466  0.00  0.00     0.119 A 
ENDBRANCH   8   9
ENDBRANCH   7   8
ENDBRANCH   2   7
BRANCH   3  18
ATOM     18  C   UNL d   1      52.187  34.294  53.512  0.00  0.00     0.019 A 
ATOM     19  C   UNL d   1      52.559  35.001  53.692  0.00  0.00     0.002 A 
ATOM     20  C   UNL d   1      53.188  34.991  54.245  0.00  0.00     0.000 A 
ATOM     21  C   UNL d   1      53.420  34.280  54.595  0.00  0.00     0.000 A 
ATOM     22  C   UNL d   1      53.022  33.575  54.391  0.00  0.00     0.000 A 
ATOM     23  C   UNL d   1      52.410  33.598  53.850  0.00  0.00     0.002 A 
ENDBRANCH   3  18
TORSDOF 4
ENDMDL
MODEL 6
REMARK VINA RESULT:      -6.2      2.853      3.977
REMARK  4 active torsions:
REMARK  status: ('A' for Active; 'I' for Inactive)
REMARK    1  A    between atoms: C_16  and  C_4 
REMARK    2  A    between atoms: C_8  and  S_14 
REMARK    3  A    between atoms: C_18  and  C_9 
REMARK    4  A    between atoms: S_14  and  C_16 
ROOT
ATOM      1  N   UNL d   1      53.305  30.802  53.735  0.00  0.00    -0.218 NA
ATOM      2  C   UNL d   1      53.183  31.377  53.147  0.00  0.00     0.215 A 
ATOM      3  C   UNL d   1      53.160  30.023  53.597  0.00  0.00     0.104 A 
ATOM      4  N   UNL d   1      52.904  31.146  52.401  0.00  0.00    -0.121 NA
ATOM      5  N   UNL d   1      52.753  30.344  52.254  0.00  0.00    -0.143 NA
ATOM      6  C   UNL d   1      52.876  29.790  52.835  0.00  0.00     0.141 A 
ENDROOT
BRANCH   2   7
ATOM      7  S   UNL d   1      53.333  32.165  53.299  0.00  0.00    -0.045 SA
BRANCH   7   8
ATOM      8  C   UNL d   1      52.707  32.678  53.407  0.00  0.00     0.060 C 
BRANCH   8   9
ATOM      9  C   UNL d   1      52.833  33.431  53.776  0.00  0.00     0.124 A 
ATOM     10  N   UNL d   1      53.113  33.569  54.511  0.00  0.00    -0.059 NA
ATOM     11  C   UNL d   1      53.140  34.381  54.627  0.00  0.00     0.735 A 
ATOM     12  N   UNL d   1      52.866  34.733  53.934  0.00  0.00    -0.136 N 
ATOM     13  N   UNL d   1      53.375  34.856  55.265  0.00  0.00    -0.059 NA
ATOM     14  C   UNL d   1      52.675  34.137  53.406  0.00  0.00     0.118 A 
ATOM     15  C   UNL d   1      52.825  35.550  53.874  0.00  0.00     0.100 A 
ATOM     16  C   UNL d   1      53.060  36.025  54.512  0.00  0.00     0.041 A 
ATOM     17  C   UNL d   1      53.335  35.679  55.207  0.00  0.00     0.119 A 
ENDBRANCH   8   9
ENDBRANCH   7   8
ENDBRANCH   2   7
BRANCH   3  18
ATOM     18  C   UNL d   1      53.285  29.449  54.192  0.00  0.00     0.019 A 
ATOM     19  C   UNL d   1      52.997  29.599  54.945  0.00  0.00     0.002 A 
ATOM     20  C   UNL d   1      53.123  29.024  55.541  0.00  0.00     0.000 A 
ATOM     21  C   UNL d   1      53.528  28.327  55.365  0.00  0.00     0.000 A 
ATOM     22  C   UNL d   1      53.810  28.202  54.590  0.00  0.00     0.000 A 
ATOM     23  C   UNL d   1      53.681  28.770  54.017  0.00  0.00     0.002 A 
ENDBRANCH   3  18
TORSDOF 4
ENDMDL
