MODEL 1
REMARK VINA RESULT:      -2.0      0.000      0.000
REMARK  2 active torsions:
REMARK  status: ('A' for Active; 'I' for Inactive)
REMARK    1  A    between atoms: C_12  and  C_4 
REMARK    2  A    between atoms: C_10  and  C_5 
ROOT
ATOM      1  N   UNL d   1      32.762  22.101 -21.945  0.00  0.00    -0.208 N 
ATOM      2  N   UNL d   1      32.841  21.450 -22.451  0.00  0.00    -0.163 NA
ATOM      3  C   UNL d   1      32.831  21.829 -21.168  0.00  0.00     0.088 A 
ATOM      4  C   UNL d   1      32.638  22.896 -22.097  0.00  0.00     0.183 A 
ATOM      5  C   UNL d   1      32.958  20.779 -21.990  0.00  0.00     0.109 A 
ATOM      6  O   UNL d   1      32.582  23.426 -21.470  0.00  0.00    -0.289 OA
ATOM      7  C   UNL d   1      32.953  21.009 -21.198  0.00  0.00     0.041 A 
ATOM      8  C   UNL d   1      32.775  22.355 -20.547  0.00  0.00     0.041 A 
ATOM      9  C   UNL d   1      32.650  23.159 -20.694  0.00  0.00     0.103 A 
ATOM     10  C   UNL d   1      32.844  22.088 -19.770  0.00  0.00     0.004 A 
ATOM     11  C   UNL d   1      32.593  23.690 -20.068  0.00  0.00     0.025 A 
ATOM     12  C   UNL d   1      32.787  22.617 -19.144  0.00  0.00     0.000 A 
ATOM     13  C   UNL d   1      32.662  23.421 -19.293  0.00  0.00     0.002 A 
ENDROOT
BRANCH   4  14
ATOM     14  C   UNL d   1      32.569  23.165 -22.875  0.00  0.00     0.041 A 
ATOM     15  C   UNL d   1      31.840  23.399 -23.154  0.00  0.00     0.004 A 
ATOM     16  C   UNL d   1      31.767  23.671 -23.937  0.00  0.00     0.000 A 
ATOM     17  C   UNL d   1      32.437  23.702 -24.428  0.00  0.00     0.000 A 
ATOM     18  C   UNL d   1      33.172  23.461 -24.130  0.00  0.00     0.000 A 
ATOM     19  C   UNL d   1      33.241  23.193 -23.355  0.00  0.00     0.004 A 
ENDBRANCH   4  14
BRANCH   5  20
ATOM     20  C   UNL d   1      33.063  20.010 -22.265  0.00  0.00     0.049 A 
ATOM     21  S   UNL d   1      33.151  19.338 -21.802  0.00  0.00    -0.085 SA
ATOM     22  C   UNL d   1      33.241  18.691 -22.304  0.00  0.00     0.035 A 
ATOM     23  C   UNL d   1      33.208  18.965 -23.085  0.00  0.00     0.007 A 
ATOM     24  C   UNL d   1      33.099  19.775 -23.068  0.00  0.00     0.009 A 
ENDBRANCH   5  20
TORSDOF 2
ENDMDL
MODEL 2
REMARK VINA RESULT:      -1.8      0.904      3.045
REMARK  2 active torsions:
REMARK  status: ('A' for Active; 'I' for Inactive)
REMARK    1  A    between atoms: C_12  and  C_4 
REMARK    2  A    between atoms: C_10  and  C_5 
ROOT
ATOM      1  N   UNL d   1      32.883  21.597 -22.569  0.00  0.00    -0.208 N 
ATOM      2  N   UNL d   1      32.892  20.826 -22.265  0.00  0.00    -0.163 NA
ATOM      3  C   UNL d   1      33.037  21.553 -23.379  0.00  0.00     0.088 A 
ATOM      4  C   UNL d   1      32.755  22.322 -22.209  0.00  0.00     0.183 A 
ATOM      5  C   UNL d   1      33.050  20.308 -22.884  0.00  0.00     0.109 A 
ATOM      6  O   UNL d   1      32.780  23.009 -22.660  0.00  0.00    -0.289 OA
ATOM      7  C   UNL d   1      33.140  20.753 -23.573  0.00  0.00     0.041 A 
ATOM      8  C   UNL d   1      33.061  22.235 -23.826  0.00  0.00     0.041 A 
ATOM      9  C   UNL d   1      32.933  22.970 -23.469  0.00  0.00     0.103 A 
ATOM     10  C   UNL d   1      33.214  22.195 -24.635  0.00  0.00     0.004 A 
ATOM     11  C   UNL d   1      32.958  23.658 -23.919  0.00  0.00     0.025 A 
ATOM     12  C   UNL d   1      33.239  22.882 -25.086  0.00  0.00     0.000 A 
ATOM     13  C   UNL d   1      33.111  23.617 -24.726  0.00  0.00     0.002 A 
ENDROOT
BRANCH   4  14
ATOM     14  C   UNL d   1      32.602  22.363 -21.399  0.00  0.00     0.041 A 
ATOM     15  C   UNL d   1      33.225  22.362 -20.874  0.00  0.00     0.004 A 
ATOM     16  C   UNL d   1      33.074  22.404 -20.057  0.00  0.00     0.000 A 
ATOM     17  C   UNL d   1      32.291  22.445 -19.782  0.00  0.00     0.000 A 
ATOM     18  C   UNL d   1      31.668  22.445 -20.329  0.00  0.00     0.000 A 
ATOM     19  C   UNL d   1      31.820  22.404 -21.136  0.00  0.00     0.004 A 
ENDBRANCH   4  14
BRANCH   5  20
ATOM     20  C   UNL d   1      33.110  19.489 -22.832  0.00  0.00     0.049 A 
ATOM     21  S   UNL d   1      33.084  18.960 -23.460  0.00  0.00    -0.085 SA
ATOM     22  C   UNL d   1      33.164  18.199 -23.155  0.00  0.00     0.035 A 
ATOM     23  C   UNL d   1      33.241  18.256 -22.333  0.00  0.00     0.007 A 
ATOM     24  C   UNL d   1      33.208  19.047 -22.127  0.00  0.00     0.009 A 
ENDBRANCH   5  20
TORSDOF 2
ENDMDL
MODEL 3
REMARK VINA RESULT:      -0.5      1.417      3.831
REMARK  2 active torsions:
REMARK  status: ('A' for Active; 'I' for Inactive)
REMARK    1  A    between atoms: C_12  and  C_4 
REMARK    2  A    between atoms: C_10  and  C_5 
ROOT
ATOM      1  N   UNL d   1      32.803  21.214 -22.291  0.00  0.00    -0.208 N 
ATOM      2  N   UNL d   1      32.742  21.974 -22.614  0.00  0.00    -0.163 NA
ATOM      3  C   UNL d   1      32.936  20.685 -22.911  0.00  0.00     0.088 A 
ATOM      4  C   UNL d   1      32.755  20.946 -21.519  0.00  0.00     0.183 A 
ATOM      5  C   UNL d   1      32.836  21.915 -23.429  0.00  0.00     0.109 A 
ATOM      6  O   UNL d   1      32.840  20.142 -21.361  0.00  0.00    -0.289 OA
ATOM      7  C   UNL d   1      32.956  21.121 -23.616  0.00  0.00     0.041 A 
ATOM      8  C   UNL d   1      33.020  19.888 -22.755  0.00  0.00     0.041 A 
ATOM      9  C   UNL d   1      32.973  19.610 -21.977  0.00  0.00     0.103 A 
ATOM     10  C   UNL d   1      33.153  19.356 -23.371  0.00  0.00     0.004 A 
ATOM     11  C   UNL d   1      33.057  18.808 -21.819  0.00  0.00     0.025 A 
ATOM     12  C   UNL d   1      33.237  18.554 -23.213  0.00  0.00     0.000 A 
ATOM     13  C   UNL d   1      33.189  18.278 -22.435  0.00  0.00     0.002 A 
ENDROOT
BRANCH   4  14
ATOM     14  C   UNL d   1      32.623  21.477 -20.901  0.00  0.00     0.041 A 
ATOM     15  C   UNL d   1      31.884  21.809 -20.812  0.00  0.00     0.004 A 
ATOM     16  C   UNL d   1      31.746  22.345 -20.190  0.00  0.00     0.000 A 
ATOM     17  C   UNL d   1      32.362  22.537 -19.666  0.00  0.00     0.000 A 
ATOM     18  C   UNL d   1      33.108  22.191 -19.770  0.00  0.00     0.000 A 
ATOM     19  C   UNL d   1      33.241  21.661 -20.385  0.00  0.00     0.004 A 
ENDBRANCH   4  14
BRANCH   5  20
ATOM     20  C   UNL d   1      32.814  22.537 -23.969  0.00  0.00     0.049 A 
ATOM     21  S   UNL d   1      33.241  23.237 -23.918  0.00  0.00    -0.085 SA
ATOM     22  C   UNL d   1      33.051  23.700 -24.572  0.00  0.00     0.035 A 
ATOM     23  C   UNL d   1      32.504  23.283 -25.033  0.00  0.00     0.007 A 
ATOM     24  C   UNL d   1      32.353  22.567 -24.667  0.00  0.00     0.009 A 
ENDBRANCH   5  20
TORSDOF 2
ENDMDL
MODEL 4
REMARK VINA RESULT:      -0.2      1.173      3.240
REMARK  2 active torsions:
REMARK  status: ('A' for Active; 'I' for Inactive)
REMARK    1  A    between atoms: C_12  and  C_4 
REMARK    2  A    between atoms: C_10  and  C_5 
ROOT
ATOM      1  N   UNL d   1      32.949  21.730 -21.966  0.00  0.00    -0.208 N 
ATOM      2  N   UNL d   1      32.925  22.385 -21.460  0.00  0.00    -0.163 NA
ATOM      3  C   UNL d   1      33.052  21.054 -21.503  0.00  0.00     0.088 A 
ATOM      4  C   UNL d   1      32.890  21.670 -22.781  0.00  0.00     0.183 A 
ATOM      5  C   UNL d   1      33.013  22.116 -20.687  0.00  0.00     0.109 A 
ATOM      6  O   UNL d   1      32.934  20.930 -23.138  0.00  0.00    -0.289 OA
ATOM      7  C   UNL d   1      33.091  21.295 -20.710  0.00  0.00     0.041 A 
ATOM      8  C   UNL d   1      33.095  20.320 -21.857  0.00  0.00     0.041 A 
ATOM      9  C   UNL d   1      33.036  20.253 -22.680  0.00  0.00     0.103 A 
ATOM     10  C   UNL d   1      33.197  19.643 -21.399  0.00  0.00     0.004 A 
ATOM     11  C   UNL d   1      33.080  19.514 -23.038  0.00  0.00     0.025 A 
ATOM     12  C   UNL d   1      33.241  18.904 -21.756  0.00  0.00     0.000 A 
ATOM     13  C   UNL d   1      33.182  18.839 -22.579  0.00  0.00     0.002 A 
ENDROOT
BRANCH   4  14
ATOM     14  C   UNL d   1      32.788  22.347 -23.242  0.00  0.00     0.041 A 
ATOM     15  C   UNL d   1      33.241  22.447 -23.912  0.00  0.00     0.004 A 
ATOM     16  C   UNL d   1      33.140  23.128 -24.379  0.00  0.00     0.000 A 
ATOM     17  C   UNL d   1      32.580  23.701 -24.159  0.00  0.00     0.000 A 
ATOM     18  C   UNL d   1      32.127  23.586 -23.475  0.00  0.00     0.000 A 
ATOM     19  C   UNL d   1      32.229  22.911 -23.015  0.00  0.00     0.004 A 
ENDBRANCH   4  14
BRANCH   5  20
ATOM     20  C   UNL d   1      33.021  22.580 -20.007  0.00  0.00     0.049 A 
ATOM     21  S   UNL d   1      32.817  22.334 -19.250  0.00  0.00    -0.085 SA
ATOM     22  C   UNL d   1      32.906  22.975 -18.741  0.00  0.00     0.035 A 
ATOM     23  C   UNL d   1      33.168  23.623 -19.185  0.00  0.00     0.007 A 
ATOM     24  C   UNL d   1      33.241  23.387 -19.965  0.00  0.00     0.009 A 
ENDBRANCH   5  20
TORSDOF 2
ENDMDL
MODEL 5
REMARK VINA RESULT:       0.6      4.307      6.052
REMARK  2 active torsions:
REMARK  status: ('A' for Active; 'I' for Inactive)
REMARK    1  A    between atoms: C_12  and  C_4 
REMARK    2  A    between atoms: C_10  and  C_5 
ROOT
ATOM      1  N   UNL d   1      31.659  17.691 -24.233  0.00  0.00    -0.208 N 
ATOM      2  N   UNL d   1      31.012  17.177 -24.181  0.00  0.00    -0.163 NA
ATOM      3  C   UNL d   1      31.392  18.405 -24.550  0.00  0.00     0.088 A 
ATOM      4  C   UNL d   1      32.448  17.595 -24.033  0.00  0.00     0.183 A 
ATOM      5  C   UNL d   1      30.348  17.571 -24.464  0.00  0.00     0.109 A 
ATOM      6  O   UNL d   1      32.976  18.216 -24.149  0.00  0.00    -0.289 OA
ATOM      7  C   UNL d   1      30.578  18.329 -24.693  0.00  0.00     0.041 A 
ATOM      8  C   UNL d   1      31.915  19.021 -24.665  0.00  0.00     0.041 A 
ATOM      9  C   UNL d   1      32.713  18.930 -24.465  0.00  0.00     0.103 A 
ATOM     10  C   UNL d   1      31.653  19.735 -24.981  0.00  0.00     0.004 A 
ATOM     11  C   UNL d   1      33.241  19.550 -24.580  0.00  0.00     0.025 A 
ATOM     12  C   UNL d   1      32.180  20.355 -25.097  0.00  0.00     0.000 A 
ATOM     13  C   UNL d   1      32.977  20.263 -24.896  0.00  0.00     0.002 A 
ENDROOT
BRANCH   4  14
ATOM     14  C   UNL d   1      32.713  16.880 -23.716  0.00  0.00     0.041 A 
ATOM     15  C   UNL d   1      32.942  16.281 -24.219  0.00  0.00     0.004 A 
ATOM     16  C   UNL d   1      33.210  15.559 -23.903  0.00  0.00     0.000 A 
ATOM     17  C   UNL d   1      33.241  15.454 -23.079  0.00  0.00     0.000 A 
ATOM     18  C   UNL d   1      33.004  16.073 -22.581  0.00  0.00     0.000 A 
ATOM     19  C   UNL d   1      32.740  16.785 -22.896  0.00  0.00     0.004 A 
ENDBRANCH   4  14
BRANCH   5  20
ATOM     20  C   UNL d   1      29.584  17.267 -24.513  0.00  0.00     0.049 A 
ATOM     21  S   UNL d   1      29.310  16.736 -25.076  0.00  0.00    -0.085 SA
ATOM     22  C   UNL d   1      28.516  16.582 -24.917  0.00  0.00     0.035 A 
ATOM     23  C   UNL d   1      28.297  17.021 -24.250  0.00  0.00     0.007 A 
ATOM     24  C   UNL d   1      28.950  17.445 -23.996  0.00  0.00     0.009 A 
ENDBRANCH   5  20
TORSDOF 2
ENDMDL
