MODEL 1
REMARK VINA RESULT:      10.8      0.000      0.000
REMARK  1 active torsions:
REMARK  status: ('A' for Active; 'I' for Inactive)
REMARK    1  A    between atoms: N_4  and  C_1 
ROOT
ATOM      1  C   UNL d   1      43.952 -15.429  36.653  0.00  0.00     0.735 A 
ATOM      2  N   UNL d   1      44.612 -15.806  36.330  0.00  0.00    -0.059 NA
ATOM      3  N   UNL d   1      44.220 -14.785  37.101  0.00  0.00    -0.059 NA
ATOM      4  C   UNL d   1      45.289 -15.399  36.577  0.00  0.00     0.118 A 
ATOM      5  C   UNL d   1      45.048 -14.769  37.052  0.00  0.00     0.118 A 
ATOM      6  C   UNL d   1      46.090 -15.521  36.429  0.00  0.00     0.021 A 
ATOM      7  C   UNL d   1      45.604 -14.256  37.385  0.00  0.00     0.021 A 
ATOM      8  C   UNL d   1      46.405 -14.378  37.238  0.00  0.00     0.002 A 
ATOM      9  C   UNL d   1      46.647 -15.007  36.762  0.00  0.00     0.002 A 
ENDROOT
BRANCH   1  10
ATOM     10  N   UNL d   1      43.162 -15.645  36.553  0.00  0.00    -0.134 N 
ATOM     11  C   UNL d   1      42.954 -16.436  36.428  0.00  0.00     0.119 A 
ATOM     12  C   UNL d   1      42.166 -16.642  36.330  0.00  0.00     0.119 A 
ATOM     13  N   UNL d   1      41.578 -16.064  36.356  0.00  0.00    -0.239 NA
ATOM     14  C   UNL d   1      41.784 -15.273  36.481  0.00  0.00     0.119 A 
ATOM     15  C   UNL d   1      42.578 -15.057  36.581  0.00  0.00     0.119 A 
ENDBRANCH   1  10
TORSDOF 1
ENDMDL
MODEL 2
REMARK VINA RESULT:      11.7      0.808      3.536
REMARK  1 active torsions:
REMARK  status: ('A' for Active; 'I' for Inactive)
REMARK    1  A    between atoms: N_4  and  C_1 
ROOT
ATOM      1  C   UNL d   1      44.318 -15.336  36.688  0.00  0.00     0.735 A 
ATOM      2  N   UNL d   1      43.632 -14.881  36.755  0.00  0.00    -0.059 NA
ATOM      3  N   UNL d   1      44.092 -16.115  36.518  0.00  0.00    -0.059 NA
ATOM      4  C   UNL d   1      42.980 -15.376  36.627  0.00  0.00     0.118 A 
ATOM      5  C   UNL d   1      43.264 -16.137  36.481  0.00  0.00     0.118 A 
ATOM      6  C   UNL d   1      42.170 -15.230  36.626  0.00  0.00     0.021 A 
ATOM      7  C   UNL d   1      42.740 -16.759  36.333  0.00  0.00     0.021 A 
ATOM      8  C   UNL d   1      41.929 -16.614  36.331  0.00  0.00     0.002 A 
ATOM      9  C   UNL d   1      41.646 -15.853  36.477  0.00  0.00     0.002 A 
ENDROOT
BRANCH   1  10
ATOM     10  N   UNL d   1      45.096 -15.073  36.772  0.00  0.00    -0.134 N 
ATOM     11  C   UNL d   1      45.714 -15.453  36.377  0.00  0.00     0.119 A 
ATOM     12  C   UNL d   1      46.485 -15.184  36.466  0.00  0.00     0.119 A 
ATOM     13  N   UNL d   1      46.646 -14.536  36.950  0.00  0.00    -0.239 NA
ATOM     14  C   UNL d   1      46.028 -14.155  37.346  0.00  0.00     0.119 A 
ATOM     15  C   UNL d   1      45.247 -14.420  37.260  0.00  0.00     0.119 A 
ENDBRANCH   1  10
TORSDOF 1
ENDMDL
MODEL 3
REMARK VINA RESULT:      12.7      7.212      7.718
REMARK  1 active torsions:
REMARK  status: ('A' for Active; 'I' for Inactive)
REMARK    1  A    between atoms: N_4  and  C_1 
ROOT
ATOM      1  C   UNL d   1      46.556 -19.011  42.239  0.00  0.00     0.735 A 
ATOM      2  N   UNL d   1      46.543 -18.492  42.881  0.00  0.00    -0.059 NA
ATOM      3  N   UNL d   1      46.544 -19.785  42.536  0.00  0.00    -0.059 NA
ATOM      4  C   UNL d   1      46.522 -18.941  43.576  0.00  0.00     0.118 A 
ATOM      5  C   UNL d   1      46.522 -19.739  43.364  0.00  0.00     0.118 A 
ATOM      6  C   UNL d   1      46.503 -18.726  44.370  0.00  0.00     0.021 A 
ATOM      7  C   UNL d   1      46.503 -20.328  43.943  0.00  0.00     0.021 A 
ATOM      8  C   UNL d   1      46.484 -20.113  44.738  0.00  0.00     0.002 A 
ATOM      9  C   UNL d   1      46.484 -19.316  44.951  0.00  0.00     0.002 A 
ENDROOT
BRANCH   1  10
ATOM     10  N   UNL d   1      46.579 -18.808  41.439  0.00  0.00    -0.134 N 
ATOM     11  C   UNL d   1      46.562 -18.015  41.207  0.00  0.00     0.119 A 
ATOM     12  C   UNL d   1      46.585 -17.821  40.409  0.00  0.00     0.119 A 
ATOM     13  N   UNL d   1      46.624 -18.414  39.838  0.00  0.00    -0.239 NA
ATOM     14  C   UNL d   1      46.640 -19.208  40.069  0.00  0.00     0.119 A 
ATOM     15  C   UNL d   1      46.618 -19.411  40.873  0.00  0.00     0.119 A 
ENDBRANCH   1  10
TORSDOF 1
ENDMDL
