MODEL 1
REMARK VINA RESULT:      -7.1      0.000      0.000
REMARK  2 active torsions:
REMARK  status: ('A' for Active; 'I' for Inactive)
REMARK       I    between atoms: N_2  and  C_1 
REMARK    1  A    between atoms: C_6  and  C_1 
REMARK    2  A    between atoms: C_4  and  N_2 
ROOT
ATOM      1  C   UNL d   1     -48.363  14.472  22.739  0.00  0.00     0.279 C 
ATOM      2  N   UNL d   1     -48.901  14.238  23.316  0.00  0.00    -0.204 NA
ATOM      3  O   UNL d   1     -48.549  15.104  22.232  0.00  0.00    -0.265 OA
ENDROOT
BRANCH   1   4
ATOM      4  C   UNL d   1     -47.640  14.083  22.660  0.00  0.00     0.058 A 
ATOM      5  C   UNL d   1     -46.958  14.418  22.945  0.00  0.00     0.006 A 
ATOM      6  C   UNL d   1     -46.235  14.028  22.866  0.00  0.00     0.012 A 
ATOM      7  C   UNL d   1     -46.185  13.300  22.501  0.00  0.00     0.058 A 
ATOM      8  C   UNL d   1     -46.890  12.945  22.202  0.00  0.00     0.012 A 
ATOM      9 CL   UNL d   1     -45.482  12.921  22.424  0.00  0.00    -0.082 Cl
ATOM     10  C   UNL d   1     -47.613  13.334  22.281  0.00  0.00     0.006 A 
ENDBRANCH   1   4
BRANCH   2  11
ATOM     11  C   UNL d   1     -49.627  14.637  23.388  0.00  0.00     0.130 A 
ATOM     12  C   UNL d   1     -50.353  14.304  23.561  0.00  0.00     0.243 A 
ATOM     13  S   UNL d   1     -50.915  14.906  23.576  0.00  0.00    -0.044 SA
ATOM     14  O   UNL d   1     -50.495  13.496  23.698  0.00  0.00    -0.278 OA
ATOM     15  C   UNL d   1     -50.528  15.621  23.409  0.00  0.00     0.040 A 
ATOM     16  C   UNL d   1     -49.730  15.456  23.292  0.00  0.00     0.030 A 
ENDBRANCH   2  11
TORSDOF 2
ENDMDL
MODEL 2
REMARK VINA RESULT:      -7.0      1.338      1.682
REMARK  2 active torsions:
REMARK  status: ('A' for Active; 'I' for Inactive)
REMARK       I    between atoms: N_2  and  C_1 
REMARK    1  A    between atoms: C_6  and  C_1 
REMARK    2  A    between atoms: C_4  and  N_2 
ROOT
ATOM      1  C   UNL d   1     -48.666  13.383  22.831  0.00  0.00     0.279 C 
ATOM      2  N   UNL d   1     -48.976  12.805  23.327  0.00  0.00    -0.204 NA
ATOM      3  O   UNL d   1     -49.174  13.928  22.462  0.00  0.00    -0.265 OA
ENDROOT
BRANCH   1   4
ATOM      4  C   UNL d   1     -47.853  13.424  22.695  0.00  0.00     0.058 A 
ATOM      5  C   UNL d   1     -47.491  12.898  22.194  0.00  0.00     0.006 A 
ATOM      6  C   UNL d   1     -46.678  12.940  22.058  0.00  0.00     0.012 A 
ATOM      7  C   UNL d   1     -46.218  13.508  22.422  0.00  0.00     0.058 A 
ATOM      8  C   UNL d   1     -46.588  14.059  22.944  0.00  0.00     0.012 A 
ATOM      9 CL   UNL d   1     -45.428  13.548  22.290  0.00  0.00    -0.082 Cl
ATOM     10  C   UNL d   1     -47.400  14.017  23.080  0.00  0.00     0.006 A 
ENDBRANCH   1   4
BRANCH   2  11
ATOM     11  C   UNL d   1     -49.796  12.771  23.458  0.00  0.00     0.130 A 
ATOM     12  C   UNL d   1     -50.244  12.101  23.595  0.00  0.00     0.243 A 
ATOM     13  S   UNL d   1     -51.028  12.331  23.693  0.00  0.00    -0.044 SA
ATOM     14  O   UNL d   1     -49.951  11.323  23.628  0.00  0.00    -0.278 OA
ATOM     15  C   UNL d   1     -51.064  13.155  23.616  0.00  0.00     0.040 A 
ATOM     16  C   UNL d   1     -50.303  13.431  23.470  0.00  0.00     0.030 A 
ENDBRANCH   2  11
TORSDOF 2
ENDMDL
MODEL 3
REMARK VINA RESULT:      -6.9      2.845      4.061
REMARK  2 active torsions:
REMARK  status: ('A' for Active; 'I' for Inactive)
REMARK       I    between atoms: N_2  and  C_1 
REMARK    1  A    between atoms: C_6  and  C_1 
REMARK    2  A    between atoms: C_4  and  N_2 
ROOT
ATOM      1  C   UNL d   1     -48.601  12.236  22.641  0.00  0.00     0.279 C 
ATOM      2  N   UNL d   1     -47.985  12.537  23.094  0.00  0.00    -0.204 NA
ATOM      3  O   UNL d   1     -48.603  11.433  22.426  0.00  0.00    -0.265 OA
ENDROOT
BRANCH   1   4
ATOM      4  C   UNL d   1     -49.219  12.726  22.399  0.00  0.00     0.058 A 
ATOM      5  C   UNL d   1     -49.239  13.024  21.644  0.00  0.00     0.006 A 
ATOM      6  C   UNL d   1     -49.857  13.513  21.402  0.00  0.00     0.012 A 
ATOM      7  C   UNL d   1     -50.463  13.711  21.912  0.00  0.00     0.058 A 
ATOM      8  C   UNL d   1     -50.451  13.405  22.699  0.00  0.00     0.012 A 
ATOM      9 CL   UNL d   1     -51.064  14.187  21.677  0.00  0.00    -0.082 Cl
ATOM     10  C   UNL d   1     -49.832  12.915  22.941  0.00  0.00     0.006 A 
ENDBRANCH   1   4
BRANCH   2  11
ATOM     11  C   UNL d   1     -47.366  12.036  23.333  0.00  0.00     0.130 A 
ATOM     12  C   UNL d   1     -46.589  12.248  23.473  0.00  0.00     0.243 A 
ATOM     13  S   UNL d   1     -46.174  11.573  23.698  0.00  0.00    -0.044 SA
ATOM     14  O   UNL d   1     -46.276  13.016  23.399  0.00  0.00    -0.278 OA
ATOM     15  C   UNL d   1     -46.704  10.936  23.697  0.00  0.00     0.040 A 
ATOM     16  C   UNL d   1     -47.443  11.220  23.471  0.00  0.00     0.030 A 
ENDBRANCH   2  11
TORSDOF 2
ENDMDL
MODEL 4
REMARK VINA RESULT:      -6.3      2.328      3.807
REMARK  2 active torsions:
REMARK  status: ('A' for Active; 'I' for Inactive)
REMARK       I    between atoms: N_2  and  C_1 
REMARK    1  A    between atoms: C_6  and  C_1 
REMARK    2  A    between atoms: C_4  and  N_2 
ROOT
ATOM      1  C   UNL d   1     -48.459  13.919  22.728  0.00  0.00     0.279 C 
ATOM      2  N   UNL d   1     -47.703  14.089  23.002  0.00  0.00    -0.204 NA
ATOM      3  O   UNL d   1     -48.576  13.286  22.202  0.00  0.00    -0.265 OA
ENDROOT
BRANCH   1   4
ATOM      4  C   UNL d   1     -49.104  14.373  22.971  0.00  0.00     0.058 A 
ATOM      5  C   UNL d   1     -49.101  15.179  22.876  0.00  0.00     0.006 A 
ATOM      6  C   UNL d   1     -49.745  15.633  23.119  0.00  0.00     0.012 A 
ATOM      7  C   UNL d   1     -50.400  15.286  23.461  0.00  0.00     0.058 A 
ATOM      8  C   UNL d   1     -50.411  14.448  23.564  0.00  0.00     0.012 A 
ATOM      9 CL   UNL d   1     -51.027  15.727  23.698  0.00  0.00    -0.082 Cl
ATOM     10  C   UNL d   1     -49.767  13.994  23.321  0.00  0.00     0.006 A 
ENDBRANCH   1   4
BRANCH   2  11
ATOM     11  C   UNL d   1     -47.060  13.627  22.751  0.00  0.00     0.130 A 
ATOM     12  C   UNL d   1     -46.269  13.757  22.912  0.00  0.00     0.243 A 
ATOM     13  S   UNL d   1     -45.831  13.160  22.552  0.00  0.00    -0.044 SA
ATOM     14  O   UNL d   1     -45.965  14.387  23.364  0.00  0.00    -0.278 OA
ATOM     15  C   UNL d   1     -46.360  12.654  22.163  0.00  0.00     0.040 A 
ATOM     16  C   UNL d   1     -47.122  12.941  22.285  0.00  0.00     0.030 A 
ENDBRANCH   2  11
TORSDOF 2
ENDMDL
MODEL 5
REMARK VINA RESULT:      -5.6      8.539      9.899
REMARK  2 active torsions:
REMARK  status: ('A' for Active; 'I' for Inactive)
REMARK       I    between atoms: N_2  and  C_1 
REMARK    1  A    between atoms: C_6  and  C_1 
REMARK    2  A    between atoms: C_4  and  N_2 
ROOT
ATOM      1  C   UNL d   1     -40.028  14.287  18.490  0.00  0.00     0.279 C 
ATOM      2  N   UNL d   1     -39.703  14.676  19.137  0.00  0.00    -0.204 NA
ATOM      3  O   UNL d   1     -40.824  14.046  18.509  0.00  0.00    -0.265 OA
ENDROOT
BRANCH   1   4
ATOM      4  C   UNL d   1     -39.570  14.132  17.822  0.00  0.00     0.058 A 
ATOM      5  C   UNL d   1     -39.588  14.635  17.184  0.00  0.00     0.006 A 
ATOM      6  C   UNL d   1     -39.130  14.480  16.516  0.00  0.00     0.012 A 
ATOM      7  C   UNL d   1     -38.649  13.821  16.477  0.00  0.00     0.058 A 
ATOM      8  C   UNL d   1     -38.625  13.294  17.135  0.00  0.00     0.012 A 
ATOM      9 CL   UNL d   1     -38.204  13.671  15.827  0.00  0.00    -0.082 Cl
ATOM     10  C   UNL d   1     -39.083  13.449  17.804  0.00  0.00     0.006 A 
ENDBRANCH   1   4
BRANCH   2  11
ATOM     11  C   UNL d   1     -40.172  14.828  19.806  0.00  0.00     0.130 A 
ATOM     12  C   UNL d   1     -40.038  15.392  20.382  0.00  0.00     0.243 A 
ATOM     13  S   UNL d   1     -40.644  15.343  20.937  0.00  0.00    -0.044 SA
ATOM     14  O   UNL d   1     -39.397  15.922  20.400  0.00  0.00    -0.278 OA
ATOM     15  C   UNL d   1     -41.160  14.739  20.699  0.00  0.00     0.040 A 
ATOM     16  C   UNL d   1     -40.870  14.418  19.999  0.00  0.00     0.030 A 
ENDBRANCH   2  11
TORSDOF 2
ENDMDL
MODEL 6
REMARK VINA RESULT:      -5.5      9.086      9.473
REMARK  2 active torsions:
REMARK  status: ('A' for Active; 'I' for Inactive)
REMARK       I    between atoms: N_2  and  C_1 
REMARK    1  A    between atoms: C_6  and  C_1 
REMARK    2  A    between atoms: C_4  and  N_2 
ROOT
ATOM      1  C   UNL d   1     -39.632  14.844  19.876  0.00  0.00     0.279 C 
ATOM      2  N   UNL d   1     -40.172  14.503  19.358  0.00  0.00    -0.204 NA
ATOM      3  O   UNL d   1     -39.322  15.598  19.714  0.00  0.00    -0.265 OA
ENDROOT
BRANCH   1   4
ATOM      4  C   UNL d   1     -39.397  14.443  20.558  0.00  0.00     0.058 A 
ATOM      5  C   UNL d   1     -39.884  14.410  21.207  0.00  0.00     0.006 A 
ATOM      6  C   UNL d   1     -39.649  14.008  21.888  0.00  0.00     0.012 A 
ATOM      7  C   UNL d   1     -38.924  13.635  21.928  0.00  0.00     0.058 A 
ATOM      8  C   UNL d   1     -38.412  13.664  21.258  0.00  0.00     0.012 A 
ATOM      9 CL   UNL d   1     -38.695  13.245  22.590  0.00  0.00    -0.082 Cl
ATOM     10  C   UNL d   1     -38.647  14.066  20.577  0.00  0.00     0.006 A 
ENDBRANCH   1   4
BRANCH   2  11
ATOM     11  C   UNL d   1     -40.403  14.915  18.674  0.00  0.00     0.130 A 
ATOM     12  C   UNL d   1     -40.620  14.591  17.955  0.00  0.00     0.243 A 
ATOM     13  S   UNL d   1     -40.804  15.206  17.441  0.00  0.00    -0.044 SA
ATOM     14  O   UNL d   1     -40.648  13.778  17.781  0.00  0.00    -0.278 OA
ATOM     15  C   UNL d   1     -40.700  15.921  17.848  0.00  0.00     0.040 A 
ATOM     16  C   UNL d   1     -40.451  15.743  18.612  0.00  0.00     0.030 A 
ENDBRANCH   2  11
TORSDOF 2
ENDMDL
