MODEL 1
REMARK VINA RESULT:     -10.2      0.000      0.000
REMARK  3 active torsions:
REMARK  status: ('A' for Active; 'I' for Inactive)
REMARK    1  A    between atoms: N_11  and  C_4 
REMARK    2  A    between atoms: C_18  and  N_15 
REMARK    3  A    between atoms: C_22  and  C_18 
ROOT
ATOM      1  N   UNL d   1      52.039  33.359  52.944  0.00  0.00    -0.195 N 
ATOM      2  C   UNL d   1      52.732  33.228  53.340  0.00  0.00     0.168 A 
ATOM      3  C   UNL d   1      53.036  32.492  53.395  0.00  0.00     0.073 A 
ATOM      4  C   UNL d   1      51.749  34.101  52.900  0.00  0.00     0.153 A 
ATOM      5  N   UNL d   1      51.950  32.019  52.656  0.00  0.00    -0.143 NA
ATOM      6  C   UNL d   1      52.643  31.888  53.051  0.00  0.00     0.185 A 
ATOM      7  N   UNL d   1      53.119  33.841  53.682  0.00  0.00    -0.227 NA
ATOM      8  C   UNL d   1      53.724  32.362  53.787  0.00  0.00     0.007 A 
ATOM      9  N   UNL d   1      52.939  31.136  53.099  0.00  0.00    -0.225 NA
ATOM     10  C   UNL d   1      52.128  34.711  53.236  0.00  0.00     0.057 A 
ATOM     11  C   UNL d   1      54.028  31.626  53.842  0.00  0.00     0.019 A 
ATOM     12  C   UNL d   1      52.822  34.580  53.632  0.00  0.00     0.086 A 
ATOM     13  C   UNL d   1      53.634  31.005  53.495  0.00  0.00     0.083 A 
ATOM     14  C   UNL d   1      54.110  32.979  54.129  0.00  0.00     0.000 C 
ATOM     15  C   UNL d   1      53.221  35.220  53.986  0.00  0.00     0.021 C 
ATOM     16  C   UNL d   1      53.930  30.270  53.545  0.00  0.00     0.021 C 
ENDROOT
BRANCH   4  17
ATOM     17  N   UNL d   1      51.032  34.228  52.489  0.00  0.00    -0.286 N 
ATOM     18  C   UNL d   1      50.476  34.212  53.096  0.00  0.00     0.101 A 
ATOM     19  C   UNL d   1      49.665  34.322  52.910  0.00  0.00     0.100 A 
ATOM     20  N   UNL d   1      49.417  34.447  52.123  0.00  0.00    -0.300 N 
ATOM     21  C   UNL d   1      49.992  34.461  51.512  0.00  0.00     0.100 A 
ATOM     22  C   UNL d   1      50.802  34.352  51.692  0.00  0.00     0.101 A 
BRANCH  20  23
ATOM     23  C   UNL d   1      48.615  34.554  51.947  0.00  0.00     0.080 C 
BRANCH  23  24
ATOM     24  C   UNL d   1      48.234  35.273  52.142  0.00  0.00     0.018 A 
ATOM     25  C   UNL d   1      47.809  35.678  51.562  0.00  0.00     0.002 A 
ATOM     26  C   UNL d   1      47.424  36.396  51.743  0.00  0.00     0.000 A 
ATOM     27  C   UNL d   1      47.469  36.706  52.517  0.00  0.00     0.000 A 
ATOM     28  C   UNL d   1      47.901  36.293  53.104  0.00  0.00     0.000 A 
ATOM     29  C   UNL d   1      48.280  35.579  52.910  0.00  0.00     0.002 A 
ENDBRANCH  23  24
ENDBRANCH  20  23
ENDBRANCH   4  17
TORSDOF 3
ENDMDL
MODEL 2
REMARK VINA RESULT:      -8.5      1.016      2.227
REMARK  3 active torsions:
REMARK  status: ('A' for Active; 'I' for Inactive)
REMARK    1  A    between atoms: N_11  and  C_4 
REMARK    2  A    between atoms: C_18  and  N_15 
REMARK    3  A    between atoms: C_22  and  C_18 
ROOT
ATOM      1  N   UNL d   1      52.388  33.445  53.710  0.00  0.00    -0.195 N 
ATOM      2  C   UNL d   1      53.061  33.000  53.766  0.00  0.00     0.168 A 
ATOM      3  C   UNL d   1      53.684  33.256  54.194  0.00  0.00     0.073 A 
ATOM      4  C   UNL d   1      51.776  33.175  53.278  0.00  0.00     0.153 A 
ATOM      5  N   UNL d   1      52.957  34.405  54.512  0.00  0.00    -0.143 NA
ATOM      6  C   UNL d   1      53.630  33.960  54.567  0.00  0.00     0.185 A 
ATOM      7  N   UNL d   1      53.105  32.295  53.388  0.00  0.00    -0.227 NA
ATOM      8  C   UNL d   1      54.352  32.814  54.249  0.00  0.00     0.007 A 
ATOM      9  N   UNL d   1      54.254  34.232  55.005  0.00  0.00    -0.225 NA
ATOM     10  C   UNL d   1      51.814  32.477  52.902  0.00  0.00     0.057 A 
ATOM     11  C   UNL d   1      54.975  33.070  54.678  0.00  0.00     0.019 A 
ATOM     12  C   UNL d   1      52.487  32.032  52.957  0.00  0.00     0.086 A 
ATOM     13  C   UNL d   1      54.928  33.786  55.061  0.00  0.00     0.083 A 
ATOM     14  C   UNL d   1      54.393  32.107  53.869  0.00  0.00     0.000 C 
ATOM     15  C   UNL d   1      52.529  31.298  52.562  0.00  0.00     0.021 C 
ATOM     16  C   UNL d   1      55.544  34.046  55.489  0.00  0.00     0.021 C 
ENDROOT
BRANCH   4  17
ATOM     17  N   UNL d   1      51.083  33.640  53.226  0.00  0.00    -0.286 N 
ATOM     18  C   UNL d   1      51.236  34.110  52.567  0.00  0.00     0.101 A 
ATOM     19  C   UNL d   1      50.661  34.670  52.321  0.00  0.00     0.100 A 
ATOM     20  N   UNL d   1      49.940  34.756  52.734  0.00  0.00    -0.300 N 
ATOM     21  C   UNL d   1      49.795  34.272  53.403  0.00  0.00     0.100 A 
ATOM     22  C   UNL d   1      50.365  33.713  53.653  0.00  0.00     0.101 A 
BRANCH  20  23
ATOM     23  C   UNL d   1      49.378  35.310  52.486  0.00  0.00     0.080 C 
BRANCH  23  24
ATOM     24  C   UNL d   1      48.810  35.104  51.906  0.00  0.00     0.018 A 
ATOM     25  C   UNL d   1      48.029  35.355  51.996  0.00  0.00     0.002 A 
ATOM     26  C   UNL d   1      47.453  35.157  51.426  0.00  0.00     0.000 A 
ATOM     27  C   UNL d   1      47.670  34.701  50.760  0.00  0.00     0.000 A 
ATOM     28  C   UNL d   1      48.463  34.447  50.672  0.00  0.00     0.000 A 
ATOM     29  C   UNL d   1      49.027  34.652  51.248  0.00  0.00     0.002 A 
ENDBRANCH  23  24
ENDBRANCH  20  23
ENDBRANCH   4  17
TORSDOF 3
ENDMDL
