MODEL 1
REMARK VINA RESULT:      16.0      0.000      0.000
REMARK  4 active torsions:
REMARK  status: ('A' for Active; 'I' for Inactive)
REMARK    1  A    between atoms: C_7  and  N_1 
REMARK    2  A    between atoms: C_6  and  C_4 
REMARK    3  A    between atoms: C_12  and  C_6 
REMARK    4  A    between atoms: C_8  and  C_7 
ROOT
ATOM      1  N   UNL d   1      46.408 -18.358  43.504  0.00  0.00    -0.229 N 
ATOM      2  C   UNL d   1      46.295 -17.699  43.022  0.00  0.00     0.299 A 
ATOM      3  C   UNL d   1      46.243 -18.140  44.291  0.00  0.00     0.274 A 
ATOM      4  C   UNL d   1      46.025 -17.337  44.295  0.00  0.00     0.090 A 
ATOM      5  S   UNL d   1      46.058 -17.066  43.512  0.00  0.00    -0.022 SA
ATOM      6  O   UNL d   1      46.397 -17.667  42.201  0.00  0.00    -0.259 OA
ATOM      7  O   UNL d   1      46.288 -18.638  44.950  0.00  0.00    -0.266 OA
ENDROOT
BRANCH   4   8
ATOM      8  C   UNL d   1      45.816 -16.893  44.955  0.00  0.00     0.011 C 
BRANCH   8   9
ATOM      9  C   UNL d   1      45.669 -16.105  44.749  0.00  0.00     0.001 A 
ATOM     10  C   UNL d   1      44.906 -15.794  44.831  0.00  0.00     0.003 A 
ATOM     11  C   UNL d   1      44.762 -15.010  44.625  0.00  0.00     0.042 A 
ATOM     12  C   UNL d   1      45.372 -14.537  44.339  0.00  0.00     0.196 A 
ATOM     13  C   UNL d   1      46.128 -14.852  44.261  0.00  0.00     0.042 A 
ATOM     14  O   UNL d   1      45.228 -13.746  44.132  0.00  0.00    -0.287 OA
ATOM     15  C   UNL d   1      46.279 -15.631  44.463  0.00  0.00     0.003 A 
ENDBRANCH   8   9
ENDBRANCH   4   8
BRANCH   1  16
ATOM     16  C   UNL d   1      46.645 -19.029  43.090  0.00  0.00     0.157 C 
BRANCH  16  17
ATOM     17  C   UNL d   1      46.314 -19.769  43.269  0.00  0.00     0.230 C 
ATOM     18  O   UNL d   1      45.697 -20.072  42.808  0.00  0.00    -0.643 OA
ATOM     19  O   UNL d   1      46.598 -20.206  43.909  0.00  0.00    -0.643 OA
ENDBRANCH  16  17
ENDBRANCH   1  16
TORSDOF 4
ENDMDL
MODEL 2
REMARK VINA RESULT:      17.1      1.743      4.486
REMARK  4 active torsions:
REMARK  status: ('A' for Active; 'I' for Inactive)
REMARK    1  A    between atoms: C_7  and  N_1 
REMARK    2  A    between atoms: C_6  and  C_4 
REMARK    3  A    between atoms: C_12  and  C_6 
REMARK    4  A    between atoms: C_8  and  C_7 
ROOT
ATOM      1  N   UNL d   1      45.039 -13.804  44.277  0.00  0.00    -0.229 N 
ATOM      2  C   UNL d   1      44.439 -14.325  44.498  0.00  0.00     0.299 A 
ATOM      3  C   UNL d   1      45.773 -14.170  44.420  0.00  0.00     0.274 A 
ATOM      4  C   UNL d   1      45.625 -14.927  44.733  0.00  0.00     0.090 A 
ATOM      5  S   UNL d   1      44.802 -15.021  44.781  0.00  0.00    -0.022 SA
ATOM      6  O   UNL d   1      43.624 -14.185  44.450  0.00  0.00    -0.259 OA
ATOM      7  O   UNL d   1      46.516 -13.838  44.275  0.00  0.00    -0.266 OA
ENDROOT
BRANCH   4   8
ATOM      8  C   UNL d   1      46.191 -15.481  44.954  0.00  0.00     0.011 C 
BRANCH   8   9
ATOM      9  C   UNL d   1      46.095 -16.189  44.536  0.00  0.00     0.001 A 
ATOM     10  C   UNL d   1      46.006 -16.901  44.947  0.00  0.00     0.003 A 
ATOM     11  C   UNL d   1      45.911 -17.604  44.528  0.00  0.00     0.042 A 
ATOM     12  C   UNL d   1      45.904 -17.599  43.704  0.00  0.00     0.196 A 
ATOM     13  C   UNL d   1      45.993 -16.887  43.302  0.00  0.00     0.042 A 
ATOM     14  O   UNL d   1      45.809 -18.306  43.282  0.00  0.00    -0.287 OA
ATOM     15  C   UNL d   1      46.088 -16.184  43.712  0.00  0.00     0.003 A 
ENDBRANCH   8   9
ENDBRANCH   4   8
BRANCH   1  16
ATOM     16  C   UNL d   1      44.757 -13.086  43.986  0.00  0.00     0.157 C 
BRANCH  16  17
ATOM     17  C   UNL d   1      45.236 -12.619  43.495  0.00  0.00     0.230 C 
ATOM     18  O   UNL d   1      45.165 -12.670  42.672  0.00  0.00    -0.643 OA
ATOM     19  O   UNL d   1      45.787 -12.101  43.825  0.00  0.00    -0.643 OA
ENDBRANCH  16  17
ENDBRANCH   1  16
TORSDOF 4
ENDMDL
MODEL 3
REMARK VINA RESULT:      18.4      1.956      3.193
REMARK  4 active torsions:
REMARK  status: ('A' for Active; 'I' for Inactive)
REMARK    1  A    between atoms: C_7  and  N_1 
REMARK    2  A    between atoms: C_6  and  C_4 
REMARK    3  A    between atoms: C_12  and  C_6 
REMARK    4  A    between atoms: C_8  and  C_7 
ROOT
ATOM      1  N   UNL d   1      45.533 -15.646  44.809  0.00  0.00    -0.229 N 
ATOM      2  C   UNL d   1      44.711 -15.593  44.771  0.00  0.00     0.299 A 
ATOM      3  C   UNL d   1      45.845 -14.876  44.880  0.00  0.00     0.274 A 
ATOM      4  C   UNL d   1      45.208 -14.341  44.886  0.00  0.00     0.090 A 
ATOM      5  S   UNL d   1      44.509 -14.784  44.818  0.00  0.00    -0.022 SA
ATOM      6  O   UNL d   1      44.180 -16.224  44.698  0.00  0.00    -0.259 OA
ATOM      7  O   UNL d   1      46.646 -14.683  44.936  0.00  0.00    -0.266 OA
ENDROOT
BRANCH   4   8
ATOM      8  C   UNL d   1      45.260 -13.523  44.947  0.00  0.00     0.011 C 
BRANCH   8   9
ATOM      9  C   UNL d   1      45.224 -13.165  44.201  0.00  0.00     0.001 A 
ATOM     10  C   UNL d   1      45.706 -12.514  44.034  0.00  0.00     0.003 A 
ATOM     11  C   UNL d   1      45.668 -12.160  43.291  0.00  0.00     0.042 A 
ATOM     12  C   UNL d   1      45.154 -12.452  42.717  0.00  0.00     0.196 A 
ATOM     13  C   UNL d   1      44.678 -13.099  42.891  0.00  0.00     0.042 A 
ATOM     14  O   UNL d   1      45.115 -12.095  41.969  0.00  0.00    -0.287 OA
ATOM     15  C   UNL d   1      44.709 -13.457  43.627  0.00  0.00     0.003 A 
ENDBRANCH   8   9
ENDBRANCH   4   8
BRANCH   1  16
ATOM     16  C   UNL d   1      45.812 -16.420  44.769  0.00  0.00     0.157 C 
BRANCH  16  17
ATOM     17  C   UNL d   1      45.882 -16.800  44.035  0.00  0.00     0.230 C 
ATOM     18  O   UNL d   1      46.048 -16.360  43.352  0.00  0.00    -0.643 OA
ATOM     19  O   UNL d   1      45.787 -17.617  43.980  0.00  0.00    -0.643 OA
ENDBRANCH  16  17
ENDBRANCH   1  16
TORSDOF 4
ENDMDL
