MODEL 1
REMARK VINA RESULT:      27.1      0.000      0.000
REMARK  2 active torsions:
REMARK  status: ('A' for Active; 'I' for Inactive)
REMARK    1  A    between atoms: N_2  and  S_1 
REMARK    2  A    between atoms: C_3  and  S_1 
ROOT
ATOM      1  S   UNL d   1      13.568  12.269  -2.481  0.00  0.00     0.274 S 
ATOM      2  O   UNL d   1      14.236  11.782  -2.580  0.00  0.00    -0.200 OA
ATOM      3  O   UNL d   1      12.901  12.755  -2.376  0.00  0.00    -0.200 OA
ENDROOT
BRANCH   1   4
ATOM      4  N   UNL d   1      13.489  12.328  -3.309  0.00  0.00    -0.212 N 
ATOM      5  C   UNL d   1      13.576  11.780  -3.911  0.00  0.00     0.193 A 
ATOM      6  N   UNL d   1      13.426  12.163  -4.634  0.00  0.00    -0.223 NA
ATOM      7  C   UNL d   1      13.246  12.957  -4.466  0.00  0.00     0.100 A 
ATOM      8  C   UNL d   1      13.287  13.045  -3.653  0.00  0.00     0.094 A 
ATOM      9  C   UNL d   1      13.053  13.590  -4.956  0.00  0.00     0.021 A 
ATOM     10  C   UNL d   1      13.130  13.798  -3.315  0.00  0.00     0.020 A 
ATOM     11  C   UNL d   1      12.934  14.445  -3.804  0.00  0.00     0.002 A 
ATOM     12  C   UNL d   1      12.900  14.324  -4.625  0.00  0.00     0.002 A 
ENDBRANCH   1   4
BRANCH   1  13
ATOM     13  C   UNL d   1      13.652  12.206  -1.656  0.00  0.00     0.122 A 
ATOM     14  C   UNL d   1      14.311  12.511  -1.285  0.00  0.00     0.093 A 
ATOM     15  N   UNL d   1      14.900  12.885  -1.727  0.00  0.00    -0.243 NA
ATOM     16  C   UNL d   1      14.395  12.448  -0.461  0.00  0.00     0.018 A 
ATOM     17  C   UNL d   1      15.556  13.188  -1.356  0.00  0.00     0.099 A 
ATOM     18  C   UNL d   1      15.660  13.135  -0.527  0.00  0.00     0.021 A 
ATOM     19  C   UNL d   1      15.072  12.762  -0.093  0.00  0.00     0.003 A 
ATOM     20  C   UNL d   1      13.827  12.085  -0.021  0.00  0.00     0.002 A 
ATOM     21  C   UNL d   1      13.167  11.779  -0.386  0.00  0.00     0.001 A 
ATOM     22  C   UNL d   1      13.066  11.834  -1.213  0.00  0.00     0.014 A 
ENDBRANCH   1  13
TORSDOF 2
ENDMDL
