MODEL 1
REMARK VINA RESULT:      -4.3      0.000      0.000
REMARK  5 active torsions:
REMARK  status: ('A' for Active; 'I' for Inactive)
REMARK    1  A    between atoms: C_2  and  C_1 
REMARK    2  A    between atoms: C_5  and  C_2 
REMARK    3  A    between atoms: C_11  and  C_5 
REMARK    4  A    between atoms: C_10  and  C_12 
REMARK    5  A    between atoms: O_19  and  C_10 
ROOT
ATOM      1  C   UNL d   1      58.712  -0.046  29.493  0.00  0.00     0.131 C 
ATOM      2  C   UNL d   1      58.187   0.324  28.960  0.00  0.00     0.106 C 
ATOM      3  N   UNL d   1      57.689   0.682  28.461  0.00  0.00    -0.191 NA
ENDROOT
BRANCH   1   4
ATOM      4  C   UNL d   1      59.008  -0.781  29.320  0.00  0.00     0.123 A 
ATOM      5  N   UNL d   1      58.576  -1.481  29.353  0.00  0.00    -0.238 NA
ATOM      6  C   UNL d   1      59.097  -2.105  29.130  0.00  0.00     0.088 A 
ATOM      7  C   UNL d   1      58.987  -2.895  29.063  0.00  0.00     0.020 A 
ATOM      8  C   UNL d   1      59.833  -1.771  28.967  0.00  0.00     0.049 A 
ATOM      9  C   UNL d   1      59.606  -3.369  28.832  0.00  0.00     0.002 A 
ATOM     10  C   UNL d   1      60.361  -3.025  28.664  0.00  0.00     0.001 A 
ATOM     11  C   UNL d   1      60.466  -2.223  28.735  0.00  0.00     0.008 A 
ATOM     12  S   UNL d   1      59.769  -0.938  29.088  0.00  0.00    -0.066 SA
ENDBRANCH   1   4
BRANCH   1  13
ATOM     13  C   UNL d   1      58.929   0.332  30.191  0.00  0.00     0.207 C 
ATOM     14  O   UNL d   1      59.678   0.680  30.258  0.00  0.00    -0.286 OA
BRANCH  13  15
ATOM     15  C   UNL d   1      58.383   0.367  30.847  0.00  0.00     0.040 A 
ATOM     16  C   UNL d   1      57.609   0.122  30.744  0.00  0.00     0.003 A 
ATOM     17  C   UNL d   1      57.081   0.156  31.378  0.00  0.00     0.005 A 
ATOM     18  C   UNL d   1      57.338   0.434  32.104  0.00  0.00     0.063 A 
ATOM     19  C   UNL d   1      58.118   0.681  32.212  0.00  0.00     0.005 A 
ATOM     20  C   UNL d   1      58.645   0.647  31.577  0.00  0.00     0.003 A 
BRANCH  18  21
ATOM     21  C   UNL d   1      56.792   0.469  32.760  0.00  0.00     0.296 C 
ATOM     22  O   UNL d   1      57.078   0.420  33.536  0.00  0.00    -0.259 OA
BRANCH  21  23
ATOM     23  O   UNL d   1      55.986   0.550  32.622  0.00  0.00    -0.296 OA
ATOM     24  C   UNL d   1      55.457   0.566  33.256  0.00  0.00     0.185 C 
ENDBRANCH  21  23
ENDBRANCH  18  21
ENDBRANCH  13  15
ENDBRANCH   1  13
TORSDOF 5
ENDMDL
MODEL 2
REMARK VINA RESULT:      -3.9      1.913      4.726
REMARK  5 active torsions:
REMARK  status: ('A' for Active; 'I' for Inactive)
REMARK    1  A    between atoms: C_2  and  C_1 
REMARK    2  A    between atoms: C_5  and  C_2 
REMARK    3  A    between atoms: C_11  and  C_5 
REMARK    4  A    between atoms: C_10  and  C_12 
REMARK    5  A    between atoms: O_19  and  C_10 
ROOT
ATOM      1  C   UNL d   1      57.640   0.269  31.521  0.00  0.00     0.131 C 
ATOM      2  C   UNL d   1      58.394   0.465  31.820  0.00  0.00     0.106 C 
ATOM      3  N   UNL d   1      59.112   0.651  32.095  0.00  0.00    -0.191 NA
ENDROOT
BRANCH   1   4
ATOM      4  C   UNL d   1      57.033   0.114  32.035  0.00  0.00     0.123 A 
ATOM      5  N   UNL d   1      56.699  -0.628  32.158  0.00  0.00    -0.238 NA
ATOM      6  C   UNL d   1      56.090  -0.534  32.735  0.00  0.00     0.088 A 
ATOM      7  C   UNL d   1      55.584  -1.058  33.068  0.00  0.00     0.020 A 
ATOM      8  C   UNL d   1      56.068   0.262  32.949  0.00  0.00     0.049 A 
ATOM      9  C   UNL d   1      55.046  -0.800  33.620  0.00  0.00     0.002 A 
ATOM     10  C   UNL d   1      55.024   0.017  33.839  0.00  0.00     0.001 A 
ATOM     11  C   UNL d   1      55.540   0.543  33.497  0.00  0.00     0.008 A 
ATOM     12  S   UNL d   1      56.664   0.663  32.505  0.00  0.00    -0.066 SA
ENDBRANCH   1   4
BRANCH   1  13
ATOM     13  C   UNL d   1      57.513   0.232  30.710  0.00  0.00     0.207 C 
ATOM     14  O   UNL d   1      56.906   0.680  30.365  0.00  0.00    -0.286 OA
BRANCH  13  15
ATOM     15  C   UNL d   1      58.004  -0.266  30.220  0.00  0.00     0.040 A 
ATOM     16  C   UNL d   1      58.010  -1.075  30.343  0.00  0.00     0.003 A 
ATOM     17  C   UNL d   1      58.485  -1.557  29.870  0.00  0.00     0.005 A 
ATOM     18  C   UNL d   1      58.946  -1.221  29.283  0.00  0.00     0.063 A 
ATOM     19  C   UNL d   1      58.942  -0.405  29.156  0.00  0.00     0.005 A 
ATOM     20  C   UNL d   1      58.467   0.077  29.629  0.00  0.00     0.003 A 
BRANCH  18  21
ATOM     21  C   UNL d   1      59.437  -1.719  28.794  0.00  0.00     0.296 C 
ATOM     22  O   UNL d   1      60.227  -1.509  28.655  0.00  0.00    -0.259 OA
BRANCH  21  23
ATOM     23  O   UNL d   1      59.128  -2.404  28.462  0.00  0.00    -0.296 OA
ATOM     24  C   UNL d   1      59.448  -3.140  28.658  0.00  0.00     0.185 C 
ENDBRANCH  21  23
ENDBRANCH  18  21
ENDBRANCH  13  15
ENDBRANCH   1  13
TORSDOF 5
ENDMDL
MODEL 3
REMARK VINA RESULT:      -2.0      1.830      3.105
REMARK  5 active torsions:
REMARK  status: ('A' for Active; 'I' for Inactive)
REMARK    1  A    between atoms: C_2  and  C_1 
REMARK    2  A    between atoms: C_5  and  C_2 
REMARK    3  A    between atoms: C_11  and  C_5 
REMARK    4  A    between atoms: C_10  and  C_12 
REMARK    5  A    between atoms: O_19  and  C_10 
ROOT
ATOM      1  C   UNL d   1      57.086  -0.293  31.905  0.00  0.00     0.131 C 
ATOM      2  C   UNL d   1      56.590  -0.960  31.982  0.00  0.00     0.106 C 
ATOM      3  N   UNL d   1      56.118  -1.590  32.064  0.00  0.00    -0.191 NA
ENDROOT
BRANCH   1   4
ATOM      4  C   UNL d   1      57.484  -0.168  31.210  0.00  0.00     0.123 A 
ATOM      5  N   UNL d   1      57.192   0.263  30.572  0.00  0.00    -0.238 NA
ATOM      6  C   UNL d   1      57.786   0.251  29.972  0.00  0.00     0.088 A 
ATOM      7  C   UNL d   1      57.811   0.573  29.240  0.00  0.00     0.020 A 
ATOM      8  C   UNL d   1      58.423  -0.186  30.259  0.00  0.00     0.049 A 
ATOM      9  C   UNL d   1      58.471   0.466  28.777  0.00  0.00     0.002 A 
ATOM     10  C   UNL d   1      59.125   0.017  29.072  0.00  0.00     0.001 A 
ATOM     11  C   UNL d   1      59.093  -0.306  29.816  0.00  0.00     0.008 A 
ATOM     12  S   UNL d   1      58.226  -0.446  31.037  0.00  0.00    -0.066 SA
ENDBRANCH   1   4
BRANCH   1  13
ATOM     13  C   UNL d   1      57.170   0.235  32.530  0.00  0.00     0.207 C 
ATOM     14  O   UNL d   1      57.868   0.676  32.608  0.00  0.00    -0.286 OA
BRANCH  13  15
ATOM     15  C   UNL d   1      56.540   0.330  33.098  0.00  0.00     0.040 A 
ATOM     16  C   UNL d   1      56.710   0.306  33.898  0.00  0.00     0.003 A 
ATOM     17  C   UNL d   1      56.101   0.398  34.448  0.00  0.00     0.005 A 
ATOM     18  C   UNL d   1      55.334   0.513  34.188  0.00  0.00     0.063 A 
ATOM     19  C   UNL d   1      55.159   0.537  33.382  0.00  0.00     0.005 A 
ATOM     20  C   UNL d   1      55.768   0.445  32.832  0.00  0.00     0.003 A 
BRANCH  18  21
ATOM     21  C   UNL d   1      54.704   0.608  34.756  0.00  0.00     0.296 C 
ATOM     22  O   UNL d   1      54.879   0.626  35.566  0.00  0.00    -0.259 OA
BRANCH  21  23
ATOM     23  O   UNL d   1      53.926   0.682  34.501  0.00  0.00    -0.296 OA
ATOM     24  C   UNL d   1      53.308   0.670  35.049  0.00  0.00     0.185 C 
ENDBRANCH  21  23
ENDBRANCH  18  21
ENDBRANCH  13  15
ENDBRANCH   1  13
TORSDOF 5
ENDMDL
MODEL 4
REMARK VINA RESULT:      -1.7      1.229      1.808
REMARK  5 active torsions:
REMARK  status: ('A' for Active; 'I' for Inactive)
REMARK    1  A    between atoms: C_2  and  C_1 
REMARK    2  A    between atoms: C_5  and  C_2 
REMARK    3  A    between atoms: C_11  and  C_5 
REMARK    4  A    between atoms: C_10  and  C_12 
REMARK    5  A    between atoms: O_19  and  C_10 
ROOT
ATOM      1  C   UNL d   1      58.183   0.071  30.918  0.00  0.00     0.131 C 
ATOM      2  C   UNL d   1      58.759   0.382  31.437  0.00  0.00     0.106 C 
ATOM      3  N   UNL d   1      59.298   0.682  31.932  0.00  0.00    -0.191 NA
ENDROOT
BRANCH   1   4
ATOM      4  C   UNL d   1      58.391  -0.503  30.386  0.00  0.00     0.123 A 
ATOM      5  N   UNL d   1      58.067  -1.259  30.359  0.00  0.00    -0.238 NA
ATOM      6  C   UNL d   1      58.442  -1.669  29.724  0.00  0.00     0.088 A 
ATOM      7  C   UNL d   1      58.352  -2.412  29.441  0.00  0.00     0.020 A 
ATOM      8  C   UNL d   1      58.985  -1.153  29.380  0.00  0.00     0.049 A 
ATOM      9  C   UNL d   1      58.800  -2.657  28.809  0.00  0.00     0.002 A 
ATOM     10  C   UNL d   1      59.358  -2.127  28.455  0.00  0.00     0.001 A 
ATOM     11  C   UNL d   1      59.444  -1.374  28.748  0.00  0.00     0.008 A 
ATOM     12  S   UNL d   1      58.947  -0.422  29.801  0.00  0.00    -0.066 SA
ENDBRANCH   1   4
BRANCH   1  13
ATOM     13  C   UNL d   1      57.408   0.346  30.947  0.00  0.00     0.207 C 
ATOM     14  O   UNL d   1      57.047   0.639  30.261  0.00  0.00    -0.286 OA
BRANCH  13  15
ATOM     15  C   UNL d   1      56.975   0.331  31.683  0.00  0.00     0.040 A 
ATOM     16  C   UNL d   1      57.323   0.623  32.364  0.00  0.00     0.003 A 
ATOM     17  C   UNL d   1      56.903   0.608  33.075  0.00  0.00     0.005 A 
ATOM     18  C   UNL d   1      56.145   0.302  33.092  0.00  0.00     0.063 A 
ATOM     19  C   UNL d   1      55.791   0.006  32.407  0.00  0.00     0.005 A 
ATOM     20  C   UNL d   1      56.210   0.021  31.696  0.00  0.00     0.003 A 
BRANCH  18  21
ATOM     21  C   UNL d   1      55.711   0.286  33.828  0.00  0.00     0.296 C 
ATOM     22  O   UNL d   1      56.012   0.682  34.491  0.00  0.00    -0.259 OA
BRANCH  21  23
ATOM     23  O   UNL d   1      54.998  -0.119  33.878  0.00  0.00    -0.296 OA
ATOM     24  C   UNL d   1      54.314   0.275  34.121  0.00  0.00     0.185 C 
ENDBRANCH  21  23
ENDBRANCH  18  21
ENDBRANCH  13  15
ENDBRANCH   1  13
TORSDOF 5
ENDMDL
