MODEL 1
REMARK VINA RESULT:      29.0      0.000      0.000
REMARK  3 active torsions:
REMARK  status: ('A' for Active; 'I' for Inactive)
REMARK    1  A    between atoms: S_4  and  C_1 
REMARK    2  A    between atoms: C_8  and  S_4 
REMARK    3  A    between atoms: C_10  and  C_8 
ROOT
ATOM      1  C   UNL d   1      14.844  13.279  -0.869  0.00  0.00     0.114 A 
ATOM      2  C   UNL d   1      14.438  12.904  -1.478  0.00  0.00     0.042 A 
ATOM      3  N   UNL d   1      14.921  12.904  -0.138  0.00  0.00    -0.217 NA
ATOM      4  N   UNL d   1      14.185  11.780  -0.632  0.00  0.00    -0.224 NA
ATOM      5  C   UNL d   1      14.592  12.154  -0.019  0.00  0.00     0.200 A 
ATOM      6  C   UNL d   1      14.109  12.155  -1.359  0.00  0.00     0.085 A 
ATOM      7  C   UNL d   1      14.361  13.279  -2.209  0.00  0.00     0.004 A 
ATOM      8  C   UNL d   1      13.702  11.780  -1.972  0.00  0.00     0.019 A 
ATOM      9  C   UNL d   1      13.954  12.904  -2.821  0.00  0.00     0.000 A 
ATOM     10  C   UNL d   1      13.625  12.155  -2.702  0.00  0.00     0.002 A 
ENDROOT
BRANCH   1  11
ATOM     11  S   UNL d   1      15.172  14.027  -0.988  0.00  0.00    -0.067 SA
BRANCH  11  12
ATOM     12  C   UNL d   1      15.084  14.612  -0.422  0.00  0.00     0.037 C 
BRANCH  12  13
ATOM     13  C   UNL d   1      15.207  15.398  -0.618  0.00  0.00     0.007 A 
ATOM     14  C   UNL d   1      14.870  15.725  -1.304  0.00  0.00     0.003 A 
ATOM     15  C   UNL d   1      14.999  16.509  -1.490  0.00  0.00     0.030 A 
ATOM     16  C   UNL d   1      15.461  16.976  -1.002  0.00  0.00     0.140 A 
ATOM     17  C   UNL d   1      15.797  16.661  -0.325  0.00  0.00     0.030 A 
ATOM     18  F   UNL d   1      15.591  17.775  -1.195  0.00  0.00    -0.204 F 
ATOM     19  C   UNL d   1      15.675  15.870  -0.125  0.00  0.00     0.003 A 
ENDBRANCH  12  13
ENDBRANCH  11  12
ENDBRANCH   1  11
TORSDOF 3
ENDMDL
