MODEL 1
REMARK VINA RESULT:      -7.9      0.000      0.000
REMARK  5 active torsions:
REMARK  status: ('A' for Active; 'I' for Inactive)
REMARK    1  A    between atoms: C_2  and  S_1 
REMARK    2  A    between atoms: N_3  and  S_1 
REMARK    3  A    between atoms: C_5  and  C_6 
REMARK       I    between atoms: N_10  and  C_5 
REMARK    4  A    between atoms: C_25  and  N_10 
REMARK    5  A    between atoms: C_24  and  C_25 
ROOT
ATOM      1  C   UNL d   1     -48.435  13.694  22.389  0.00  0.00     0.104 A 
ATOM      2  C   UNL d   1     -47.685  13.872  22.669  0.00  0.00     0.018 A 
ATOM      3  C   UNL d   1     -47.025  13.486  22.358  0.00  0.00     0.059 A 
ATOM      4  C   UNL d   1     -48.536  13.127  21.793  0.00  0.00     0.012 A 
ATOM      5  C   UNL d   1     -47.117  12.919  21.763  0.00  0.00     0.005 A 
ATOM      6  C   UNL d   1     -47.876  12.741  21.482  0.00  0.00     0.001 A 
ATOM      7  C   UNL d   1     -49.304  12.946  21.508  0.00  0.00     0.001 C 
ENDROOT
BRANCH   3   8
ATOM      8  C   UNL d   1     -46.274  13.661  22.635  0.00  0.00     0.279 C 
ATOM      9  N   UNL d   1     -45.829  13.077  23.017  0.00  0.00    -0.206 NA
ATOM     10  O   UNL d   1     -45.966  14.414  22.534  0.00  0.00    -0.265 OA
BRANCH   9  11
ATOM     11  C   UNL d   1     -46.136  12.325  23.118  0.00  0.00     0.102 C 
BRANCH  11  12
ATOM     12  C   UNL d   1     -45.623  11.681  23.272  0.00  0.00     0.021 A 
ATOM     13  C   UNL d   1     -44.805  11.760  23.189  0.00  0.00     0.028 A 
ATOM     14  C   UNL d   1     -44.316  11.120  23.344  0.00  0.00     0.119 A 
ATOM     15  O   UNL d   1     -43.491  11.029  23.312  0.00  0.00    -0.300 OA
ATOM     16  C   UNL d   1     -44.637  10.393  23.583  0.00  0.00     0.119 A 
ATOM     17  C   UNL d   1     -43.311  10.262  23.526  0.00  0.00     0.304 A 
ATOM     18  O   UNL d   1     -44.022   9.867  23.695  0.00  0.00    -0.300 OA
ATOM     19  C   UNL d   1     -45.453  10.323  23.663  0.00  0.00     0.026 A 
ATOM     20  C   UNL d   1     -45.942  10.963  23.508  0.00  0.00     0.004 A 
ENDBRANCH  11  12
ENDBRANCH   9  11
ENDBRANCH   3   8
BRANCH   1  21
ATOM     21  S   UNL d   1     -49.092  14.085  22.707  0.00  0.00     0.272 S 
ATOM     22  O   UNL d   1     -49.128  13.526  23.313  0.00  0.00    -0.200 OA
ATOM     23  O   UNL d   1     -49.051  14.641  22.099  0.00  0.00    -0.200 OA
BRANCH  21  24
ATOM     24  N   UNL d   1     -49.744  14.473  23.023  0.00  0.00    -0.225 N 
ATOM     25  C   UNL d   1     -50.343  14.043  23.376  0.00  0.00     0.118 A 
ATOM     26  C   UNL d   1     -51.002  14.424  23.696  0.00  0.00     0.142 A 
ATOM     27  O   UNL d   1     -51.051  15.251  23.657  0.00  0.00    -0.300 OA
ATOM     28  C   UNL d   1     -50.452  15.681  23.304  0.00  0.00     0.142 A 
ATOM     29  C   UNL d   1     -49.794  15.300  22.983  0.00  0.00     0.118 A 
ENDBRANCH  21  24
ENDBRANCH   1  21
TORSDOF 5
ENDMDL
MODEL 2
REMARK VINA RESULT:      -7.5      8.229     10.000
REMARK  5 active torsions:
REMARK  status: ('A' for Active; 'I' for Inactive)
REMARK    1  A    between atoms: C_2  and  S_1 
REMARK    2  A    between atoms: N_3  and  S_1 
REMARK    3  A    between atoms: C_5  and  C_6 
REMARK       I    between atoms: N_10  and  C_5 
REMARK    4  A    between atoms: C_25  and  N_10 
REMARK    5  A    between atoms: C_24  and  C_25 
ROOT
ATOM      1  C   UNL d   1     -39.526  14.666  20.754  0.00  0.00     0.104 A 
ATOM      2  C   UNL d   1     -39.887  14.268  20.134  0.00  0.00     0.018 A 
ATOM      3  C   UNL d   1     -40.204  14.691  19.500  0.00  0.00     0.059 A 
ATOM      4  C   UNL d   1     -39.479  15.493  20.750  0.00  0.00     0.012 A 
ATOM      5  C   UNL d   1     -40.161  15.516  19.487  0.00  0.00     0.005 A 
ATOM      6  C   UNL d   1     -39.797  15.916  20.116  0.00  0.00     0.001 A 
ATOM      7  C   UNL d   1     -39.110  15.898  21.384  0.00  0.00     0.001 C 
ENDROOT
BRANCH   3   8
ATOM      8  C   UNL d   1     -40.565  14.297  18.878  0.00  0.00     0.279 C 
ATOM      9  N   UNL d   1     -40.185  14.250  18.145  0.00  0.00    -0.206 NA
ATOM     10  O   UNL d   1     -41.300  13.950  18.985  0.00  0.00    -0.265 OA
BRANCH   9  11
ATOM     11  C   UNL d   1     -39.450  14.596  18.038  0.00  0.00     0.102 C 
BRANCH  11  12
ATOM     12  C   UNL d   1     -39.063  14.533  17.298  0.00  0.00     0.021 A 
ATOM     13  C   UNL d   1     -38.934  15.200  16.827  0.00  0.00     0.028 A 
ATOM     14  C   UNL d   1     -38.553  15.122  16.105  0.00  0.00     0.119 A 
ATOM     15  O   UNL d   1     -38.348  15.676  15.521  0.00  0.00    -0.300 OA
ATOM     16  C   UNL d   1     -38.295  14.377  15.843  0.00  0.00     0.119 A 
ATOM     17  C   UNL d   1     -37.973  15.278  14.915  0.00  0.00     0.304 A 
ATOM     18  O   UNL d   1     -37.940  14.473  15.114  0.00  0.00    -0.300 OA
ATOM     19  C   UNL d   1     -38.427  13.719  16.319  0.00  0.00     0.026 A 
ATOM     20  C   UNL d   1     -38.808  13.797  17.040  0.00  0.00     0.004 A 
ENDBRANCH  11  12
ENDBRANCH   9  11
ENDBRANCH   3   8
BRANCH   1  21
ATOM     21  S   UNL d   1     -39.210  14.235  21.386  0.00  0.00     0.272 S 
ATOM     22  O   UNL d   1     -38.482  14.207  20.998  0.00  0.00    -0.200 OA
ATOM     23  O   UNL d   1     -39.939  14.265  21.769  0.00  0.00    -0.200 OA
BRANCH  21  24
ATOM     24  N   UNL d   1     -38.895  13.806  22.012  0.00  0.00    -0.225 N 
ATOM     25  C   UNL d   1     -39.218  13.880  22.761  0.00  0.00     0.118 A 
ATOM     26  C   UNL d   1     -38.909  13.454  23.396  0.00  0.00     0.142 A 
ATOM     27  O   UNL d   1     -38.264  12.947  23.270  0.00  0.00    -0.300 OA
ATOM     28  C   UNL d   1     -37.941  12.873  22.521  0.00  0.00     0.142 A 
ATOM     29  C   UNL d   1     -38.251  13.299  21.886  0.00  0.00     0.118 A 
ENDBRANCH  21  24
ENDBRANCH   1  21
TORSDOF 5
ENDMDL
MODEL 3
REMARK VINA RESULT:      -6.3      1.794      2.314
REMARK  5 active torsions:
REMARK  status: ('A' for Active; 'I' for Inactive)
REMARK    1  A    between atoms: C_2  and  S_1 
REMARK    2  A    between atoms: N_3  and  S_1 
REMARK    3  A    between atoms: C_5  and  C_6 
REMARK       I    between atoms: N_10  and  C_5 
REMARK    4  A    between atoms: C_25  and  N_10 
REMARK    5  A    between atoms: C_24  and  C_25 
ROOT
ATOM      1  C   UNL d   1     -48.120  12.810  22.845  0.00  0.00     0.104 A 
ATOM      2  C   UNL d   1     -47.545  13.395  22.840  0.00  0.00     0.018 A 
ATOM      3  C   UNL d   1     -46.820  13.265  23.212  0.00  0.00     0.059 A 
ATOM      4  C   UNL d   1     -47.978  12.086  23.221  0.00  0.00     0.012 A 
ATOM      5  C   UNL d   1     -46.669  12.546  23.590  0.00  0.00     0.005 A 
ATOM      6  C   UNL d   1     -47.253  11.956  23.593  0.00  0.00     0.001 A 
ATOM      7  C   UNL d   1     -48.566  11.489  23.225  0.00  0.00     0.001 C 
ENDROOT
BRANCH   3   8
ATOM      8  C   UNL d   1     -46.243  13.848  23.210  0.00  0.00     0.279 C 
ATOM      9  N   UNL d   1     -45.524  13.713  22.822  0.00  0.00    -0.206 NA
ATOM     10  O   UNL d   1     -46.380  14.560  23.590  0.00  0.00    -0.265 OA
BRANCH   9  11
ATOM     11  C   UNL d   1     -45.387  13.001  22.442  0.00  0.00     0.102 C 
BRANCH  11  12
ATOM     12  C   UNL d   1     -44.622  12.823  22.152  0.00  0.00     0.021 A 
ATOM     13  C   UNL d   1     -44.218  13.354  21.664  0.00  0.00     0.028 A 
ATOM     14  C   UNL d   1     -43.469  13.165  21.388  0.00  0.00     0.119 A 
ATOM     15  O   UNL d   1     -42.935  13.574  20.901  0.00  0.00    -0.300 OA
ATOM     16  C   UNL d   1     -43.114  12.443  21.595  0.00  0.00     0.119 A 
ATOM     17  C   UNL d   1     -42.268  13.113  20.811  0.00  0.00     0.304 A 
ATOM     18  O   UNL d   1     -42.378  12.411  21.241  0.00  0.00    -0.300 OA
ATOM     19  C   UNL d   1     -43.523  11.921  22.081  0.00  0.00     0.026 A 
ATOM     20  C   UNL d   1     -44.272  12.110  22.357  0.00  0.00     0.004 A 
ENDBRANCH  11  12
ENDBRANCH   9  11
ENDBRANCH   3   8
BRANCH   1  21
ATOM     21  S   UNL d   1     -48.845  12.948  22.469  0.00  0.00     0.272 S 
ATOM     22  O   UNL d   1     -49.184  13.133  23.199  0.00  0.00    -0.200 OA
ATOM     23  O   UNL d   1     -48.502  12.763  21.743  0.00  0.00    -0.200 OA
BRANCH  21  24
ATOM     24  N   UNL d   1     -49.565  13.086  22.098  0.00  0.00    -0.225 N 
ATOM     25  C   UNL d   1     -50.064  13.670  22.379  0.00  0.00     0.118 A 
ATOM     26  C   UNL d   1     -50.789  13.815  22.012  0.00  0.00     0.142 A 
ATOM     27  O   UNL d   1     -51.009  13.363  21.353  0.00  0.00    -0.300 OA
ATOM     28  C   UNL d   1     -50.510  12.779  21.072  0.00  0.00     0.142 A 
ATOM     29  C   UNL d   1     -49.785  12.634  21.438  0.00  0.00     0.118 A 
ENDBRANCH  21  24
ENDBRANCH   1  21
TORSDOF 5
ENDMDL
MODEL 4
REMARK VINA RESULT:      -6.1      1.431      2.112
REMARK  5 active torsions:
REMARK  status: ('A' for Active; 'I' for Inactive)
REMARK    1  A    between atoms: C_2  and  S_1 
REMARK    2  A    between atoms: N_3  and  S_1 
REMARK    3  A    between atoms: C_5  and  C_6 
REMARK       I    between atoms: N_10  and  C_5 
REMARK    4  A    between atoms: C_25  and  N_10 
REMARK    5  A    between atoms: C_24  and  C_25 
ROOT
ATOM      1  C   UNL d   1     -48.901  13.654  22.441  0.00  0.00     0.104 A 
ATOM      2  C   UNL d   1     -48.221  13.900  22.830  0.00  0.00     0.018 A 
ATOM      3  C   UNL d   1     -47.769  14.518  22.521  0.00  0.00     0.059 A 
ATOM      4  C   UNL d   1     -49.138  14.024  21.739  0.00  0.00     0.012 A 
ATOM      5  C   UNL d   1     -47.999  14.892  21.821  0.00  0.00     0.005 A 
ATOM      6  C   UNL d   1     -48.687  14.642  21.430  0.00  0.00     0.001 A 
ATOM      7  C   UNL d   1     -49.833  13.771  21.343  0.00  0.00     0.001 C 
ENDROOT
BRANCH   3   8
ATOM      8  C   UNL d   1     -47.089  14.766  22.907  0.00  0.00     0.279 C 
ATOM      9  N   UNL d   1     -46.383  14.348  22.804  0.00  0.00    -0.206 NA
ATOM     10  O   UNL d   1     -47.112  15.426  23.392  0.00  0.00    -0.265 OA
BRANCH   9  11
ATOM     11  C   UNL d   1     -46.360  13.689  22.319  0.00  0.00     0.102 C 
BRANCH  11  12
ATOM     12  C   UNL d   1     -45.707  13.164  22.357  0.00  0.00     0.021 A 
ATOM     13  C   UNL d   1     -45.691  12.544  22.903  0.00  0.00     0.028 A 
ATOM     14  C   UNL d   1     -45.046  12.040  22.928  0.00  0.00     0.119 A 
ATOM     15  O   UNL d   1     -44.871  11.381  23.403  0.00  0.00    -0.300 OA
ATOM     16  C   UNL d   1     -44.407  12.147  22.409  0.00  0.00     0.119 A 
ATOM     17  C   UNL d   1     -44.141  11.092  23.179  0.00  0.00     0.304 A 
ATOM     18  O   UNL d   1     -43.853  11.567  22.562  0.00  0.00    -0.300 OA
ATOM     19  C   UNL d   1     -44.431  12.767  21.868  0.00  0.00     0.026 A 
ATOM     20  C   UNL d   1     -45.077  13.272  21.843  0.00  0.00     0.004 A 
ENDBRANCH  11  12
ENDBRANCH   9  11
ENDBRANCH   3   8
BRANCH   1  21
ATOM     21  S   UNL d   1     -49.348  13.034  22.757  0.00  0.00     0.272 S 
ATOM     22  O   UNL d   1     -48.904  12.494  22.318  0.00  0.00    -0.200 OA
ATOM     23  O   UNL d   1     -49.789  13.577  23.193  0.00  0.00    -0.200 OA
BRANCH  21  24
ATOM     24  N   UNL d   1     -49.792  12.417  23.070  0.00  0.00    -0.225 N 
ATOM     25  C   UNL d   1     -49.434  11.700  23.236  0.00  0.00     0.118 A 
ATOM     26  C   UNL d   1     -49.872  11.075  23.550  0.00  0.00     0.142 A 
ATOM     27  O   UNL d   1     -50.681  11.179  23.698  0.00  0.00    -0.300 OA
ATOM     28  C   UNL d   1     -51.039  11.896  23.532  0.00  0.00     0.142 A 
ATOM     29  C   UNL d   1     -50.601  12.521  23.218  0.00  0.00     0.118 A 
ENDBRANCH  21  24
ENDBRANCH   1  21
TORSDOF 5
ENDMDL
MODEL 5
REMARK VINA RESULT:      -5.5      6.386      8.661
REMARK  5 active torsions:
REMARK  status: ('A' for Active; 'I' for Inactive)
REMARK    1  A    between atoms: C_2  and  S_1 
REMARK    2  A    between atoms: N_3  and  S_1 
REMARK    3  A    between atoms: C_5  and  C_6 
REMARK       I    between atoms: N_10  and  C_5 
REMARK    4  A    between atoms: C_25  and  N_10 
REMARK    5  A    between atoms: C_24  and  C_25 
ROOT
ATOM      1  C   UNL d   1     -40.006  14.765  18.740  0.00  0.00     0.104 A 
ATOM      2  C   UNL d   1     -40.012  14.629  19.550  0.00  0.00     0.018 A 
ATOM      3  C   UNL d   1     -40.500  15.079  20.041  0.00  0.00     0.059 A 
ATOM      4  C   UNL d   1     -40.488  15.353  18.411  0.00  0.00     0.012 A 
ATOM      5  C   UNL d   1     -40.985  15.667  19.720  0.00  0.00     0.005 A 
ATOM      6  C   UNL d   1     -40.977  15.802  18.902  0.00  0.00     0.001 A 
ATOM      7  C   UNL d   1     -40.481  15.490  17.584  0.00  0.00     0.001 C 
ENDROOT
BRANCH   3   8
ATOM      8  C   UNL d   1     -40.508  14.945  20.850  0.00  0.00     0.279 C 
ATOM      9  N   UNL d   1     -41.105  14.479  21.183  0.00  0.00    -0.206 NA
ATOM     10  O   UNL d   1     -39.927  15.274  21.324  0.00  0.00    -0.265 OA
BRANCH   9  11
ATOM     11  C   UNL d   1     -41.685  14.150  20.710  0.00  0.00     0.102 C 
BRANCH  11  12
ATOM     12  C   UNL d   1     -42.260  13.640  21.045  0.00  0.00     0.021 A 
ATOM     13  C   UNL d   1     -43.032  13.901  21.180  0.00  0.00     0.028 A 
ATOM     14  C   UNL d   1     -43.583  13.390  21.509  0.00  0.00     0.119 A 
ATOM     15  O   UNL d   1     -44.384  13.486  21.707  0.00  0.00    -0.300 OA
ATOM     16  C   UNL d   1     -43.370  12.612  21.708  0.00  0.00     0.119 A 
ATOM     17  C   UNL d   1     -44.655  12.783  22.020  0.00  0.00     0.304 A 
ATOM     18  O   UNL d   1     -44.027  12.241  22.021  0.00  0.00    -0.300 OA
ATOM     19  C   UNL d   1     -42.598  12.361  21.570  0.00  0.00     0.026 A 
ATOM     20  C   UNL d   1     -42.048  12.872  21.241  0.00  0.00     0.004 A 
ENDBRANCH  11  12
ENDBRANCH   9  11
ENDBRANCH   3   8
BRANCH   1  21
ATOM     21  S   UNL d   1     -39.513  14.311  18.255  0.00  0.00     0.272 S 
ATOM     22  O   UNL d   1     -38.883  14.814  18.428  0.00  0.00    -0.200 OA
ATOM     23  O   UNL d   1     -40.147  13.811  18.084  0.00  0.00    -0.200 OA
BRANCH  21  24
ATOM     24  N   UNL d   1     -39.024  13.860  17.773  0.00  0.00    -0.225 N 
ATOM     25  C   UNL d   1     -38.990  13.048  17.871  0.00  0.00     0.118 A 
ATOM     26  C   UNL d   1     -38.501  12.587  17.391  0.00  0.00     0.142 A 
ATOM     27  O   UNL d   1     -38.042  12.955  16.807  0.00  0.00    -0.300 OA
ATOM     28  C   UNL d   1     -38.076  13.766  16.709  0.00  0.00     0.142 A 
ATOM     29  C   UNL d   1     -38.565  14.227  17.188  0.00  0.00     0.118 A 
ENDBRANCH  21  24
ENDBRANCH   1  21
TORSDOF 5
ENDMDL
MODEL 6
REMARK VINA RESULT:      -5.4      8.105      9.104
REMARK  5 active torsions:
REMARK  status: ('A' for Active; 'I' for Inactive)
REMARK    1  A    between atoms: C_2  and  S_1 
REMARK    2  A    between atoms: N_3  and  S_1 
REMARK    3  A    between atoms: C_5  and  C_6 
REMARK       I    between atoms: N_10  and  C_5 
REMARK    4  A    between atoms: C_25  and  N_10 
REMARK    5  A    between atoms: C_24  and  C_25 
ROOT
ATOM      1  C   UNL d   1     -39.784  14.697  17.556  0.00  0.00     0.104 A 
ATOM      2  C   UNL d   1     -39.406  15.112  18.155  0.00  0.00     0.018 A 
ATOM      3  C   UNL d   1     -38.716  14.812  18.494  0.00  0.00     0.059 A 
ATOM      4  C   UNL d   1     -39.476  13.976  17.288  0.00  0.00     0.012 A 
ATOM      5  C   UNL d   1     -38.402  14.094  18.233  0.00  0.00     0.005 A 
ATOM      6  C   UNL d   1     -38.786  13.676  17.627  0.00  0.00     0.001 A 
ATOM      7  C   UNL d   1     -39.863  13.553  16.676  0.00  0.00     0.001 C 
ENDROOT
BRANCH   3   8
ATOM      8  C   UNL d   1     -38.337  15.224  19.093  0.00  0.00     0.279 C 
ATOM      9  N   UNL d   1     -38.355  14.934  19.868  0.00  0.00    -0.206 NA
ATOM     10  O   UNL d   1     -37.940  15.921  18.922  0.00  0.00    -0.265 OA
BRANCH   9  11
ATOM     11  C   UNL d   1     -38.751  14.238  20.039  0.00  0.00     0.102 C 
BRANCH  11  12
ATOM     12  C   UNL d   1     -38.909  14.032  20.835  0.00  0.00     0.021 A 
ATOM     13  C   UNL d   1     -38.340  13.650  21.297  0.00  0.00     0.028 A 
ATOM     14  C   UNL d   1     -38.511  13.455  22.075  0.00  0.00     0.119 A 
ATOM     15  O   UNL d   1     -38.065  13.079  22.666  0.00  0.00    -0.300 OA
ATOM     16  C   UNL d   1     -39.252  13.639  22.402  0.00  0.00     0.119 A 
ATOM     17  C   UNL d   1     -38.523  13.033  23.340  0.00  0.00     0.304 A 
ATOM     18  O   UNL d   1     -39.259  13.380  23.177  0.00  0.00    -0.300 OA
ATOM     19  C   UNL d   1     -39.812  14.019  21.935  0.00  0.00     0.026 A 
ATOM     20  C   UNL d   1     -39.642  14.214  21.157  0.00  0.00     0.004 A 
ENDBRANCH  11  12
ENDBRANCH   9  11
ENDBRANCH   3   8
BRANCH   1  21
ATOM     21  S   UNL d   1     -40.476  15.005  17.221  0.00  0.00     0.272 S 
ATOM     22  O   UNL d   1     -40.919  14.437  17.623  0.00  0.00    -0.200 OA
ATOM     23  O   UNL d   1     -40.028  15.570  16.822  0.00  0.00    -0.200 OA
BRANCH  21  24
ATOM     24  N   UNL d   1     -41.163  15.310  16.889  0.00  0.00    -0.225 N 
ATOM     25  C   UNL d   1     -41.751  15.610  17.372  0.00  0.00     0.118 A 
ATOM     26  C   UNL d   1     -42.445  15.918  17.048  0.00  0.00     0.142 A 
ATOM     27  O   UNL d   1     -42.541  15.921  16.224  0.00  0.00    -0.300 OA
ATOM     28  C   UNL d   1     -41.953  15.621  15.741  0.00  0.00     0.142 A 
ATOM     29  C   UNL d   1     -41.259  15.313  16.065  0.00  0.00     0.118 A 
ENDBRANCH  21  24
ENDBRANCH   1  21
TORSDOF 5
ENDMDL
MODEL 7
REMARK VINA RESULT:      -5.2      6.189      8.156
REMARK  5 active torsions:
REMARK  status: ('A' for Active; 'I' for Inactive)
REMARK    1  A    between atoms: C_2  and  S_1 
REMARK    2  A    between atoms: N_3  and  S_1 
REMARK    3  A    between atoms: C_5  and  C_6 
REMARK       I    between atoms: N_10  and  C_5 
REMARK    4  A    between atoms: C_25  and  N_10 
REMARK    5  A    between atoms: C_24  and  C_25 
ROOT
ATOM      1  C   UNL d   1     -40.074  14.823  19.092  0.00  0.00     0.104 A 
ATOM      2  C   UNL d   1     -40.559  15.111  19.689  0.00  0.00     0.018 A 
ATOM      3  C   UNL d   1     -40.467  14.841  20.463  0.00  0.00     0.059 A 
ATOM      4  C   UNL d   1     -39.491  14.260  19.263  0.00  0.00     0.012 A 
ATOM      5  C   UNL d   1     -39.887  14.280  20.642  0.00  0.00     0.005 A 
ATOM      6  C   UNL d   1     -39.398  13.990  20.037  0.00  0.00     0.001 A 
ATOM      7  C   UNL d   1     -38.996  13.967  18.652  0.00  0.00     0.001 C 
ENDROOT
BRANCH   3   8
ATOM      8  C   UNL d   1     -40.949  15.127  21.062  0.00  0.00     0.279 C 
ATOM      9  N   UNL d   1     -41.608  14.689  21.303  0.00  0.00    -0.206 NA
ATOM     10  O   UNL d   1     -40.777  15.844  21.418  0.00  0.00    -0.265 OA
BRANCH   9  11
ATOM     11  C   UNL d   1     -41.781  13.972  20.947  0.00  0.00     0.102 C 
BRANCH  11  12
ATOM     12  C   UNL d   1     -42.431  13.517  21.216  0.00  0.00     0.021 A 
ATOM     13  C   UNL d   1     -43.168  13.866  21.349  0.00  0.00     0.028 A 
ATOM     14  C   UNL d   1     -43.794  13.407  21.612  0.00  0.00     0.119 A 
ATOM     15  O   UNL d   1     -44.584  13.592  21.792  0.00  0.00    -0.300 OA
ATOM     16  C   UNL d   1     -43.693  12.594  21.747  0.00  0.00     0.119 A 
ATOM     17  C   UNL d   1     -44.958  12.907  22.031  0.00  0.00     0.304 A 
ATOM     18  O   UNL d   1     -44.406  12.288  22.004  0.00  0.00    -0.300 OA
ATOM     19  C   UNL d   1     -42.955  12.255  21.613  0.00  0.00     0.026 A 
ATOM     20  C   UNL d   1     -42.329  12.714  21.349  0.00  0.00     0.004 A 
ENDBRANCH  11  12
ENDBRANCH   9  11
ENDBRANCH   3   8
BRANCH   1  21
ATOM     21  S   UNL d   1     -40.173  15.099  18.318  0.00  0.00     0.272 S 
ATOM     22  O   UNL d   1     -40.583  14.408  18.128  0.00  0.00    -0.200 OA
ATOM     23  O   UNL d   1     -39.763  15.787  18.514  0.00  0.00    -0.200 OA
BRANCH  21  24
ATOM     24  N   UNL d   1     -40.272  15.373  17.550  0.00  0.00    -0.225 N 
ATOM     25  C   UNL d   1     -39.626  15.646  17.127  0.00  0.00     0.118 A 
ATOM     26  C   UNL d   1     -39.716  15.922  16.355  0.00  0.00     0.142 A 
ATOM     27  O   UNL d   1     -40.469  15.921  16.008  0.00  0.00    -0.300 OA
ATOM     28  C   UNL d   1     -41.115  15.648  16.430  0.00  0.00     0.142 A 
ATOM     29  C   UNL d   1     -41.025  15.371  17.203  0.00  0.00     0.118 A 
ENDBRANCH  21  24
ENDBRANCH   1  21
TORSDOF 5
ENDMDL
