MODEL 1
REMARK VINA RESULT:      -3.5      0.000      0.000
REMARK  3 active torsions:
REMARK  status: ('A' for Active; 'I' for Inactive)
REMARK    1  A    between atoms: N_5  and  C_1 
REMARK    2  A    between atoms: C_10  and  C_2 
REMARK       I    between atoms: C_8  and  N_5 
REMARK    3  A    between atoms: C_7  and  C_8 
ROOT
ATOM      1  C   UNL d   1     -41.648-122.674 -53.618  0.00  0.00     0.119 A 
ATOM      2  C   UNL d   1     -42.035-122.246 -54.221  0.00  0.00     0.084 A 
ATOM      3  S   UNL d   1     -41.263-123.309 -53.970  0.00  0.00    -0.068 SA
ATOM      4  C   UNL d   1     -41.885-122.623 -54.940  0.00  0.00     0.013 A 
ATOM      5  C   UNL d   1     -41.404-123.285 -54.784  0.00  0.00     0.031 A 
ATOM      6  C   UNL d   1     -42.157-122.392 -55.682  0.00  0.00     0.001 C 
ATOM      7  C   UNL d   1     -41.123-123.817 -55.346  0.00  0.00     0.007 C 
ENDROOT
BRANCH   1   8
ATOM      8  N   UNL d   1     -41.653-122.488 -52.815  0.00  0.00    -0.201 NA
ATOM      9  C   UNL d   1     -41.389-123.048 -52.266  0.00  0.00     0.286 C 
ATOM     10  O   UNL d   1     -41.124-123.781 -52.504  0.00  0.00    -0.265 OA
BRANCH   9  11
ATOM     11  C   UNL d   1     -41.395-122.861 -51.458  0.00  0.00     0.088 A 
ATOM     12  S   UNL d   1     -41.641-123.357 -50.835  0.00  0.00    -0.075 SA
ATOM     13  C   UNL d   1     -41.551-122.942 -50.118  0.00  0.00     0.064 A 
ATOM     14 BR   UNL d   1     -41.730-123.223 -49.350  0.00  0.00    -0.042 Br
ATOM     15  C   UNL d   1     -41.251-122.197 -50.310  0.00  0.00     0.014 A 
ATOM     16  C   UNL d   1     -41.156-122.148 -51.124  0.00  0.00     0.012 A 
ENDBRANCH   9  11
ENDBRANCH   1   8
BRANCH   2  17
ATOM     17  C   UNL d   1     -42.489-121.565 -54.114  0.00  0.00     0.299 C 
ATOM     18  O   UNL d   1     -43.314-121.627 -54.009  0.00  0.00    -0.264 OA
ATOM     19  N   UNL d   1     -42.132-120.813 -54.110  0.00  0.00    -0.102 N 
ENDBRANCH   2  17
TORSDOF 3
ENDMDL
MODEL 2
REMARK VINA RESULT:      -3.2      2.154      4.372
REMARK  3 active torsions:
REMARK  status: ('A' for Active; 'I' for Inactive)
REMARK    1  A    between atoms: N_5  and  C_1 
REMARK    2  A    between atoms: C_10  and  C_2 
REMARK       I    between atoms: C_8  and  N_5 
REMARK    3  A    between atoms: C_7  and  C_8 
ROOT
ATOM      1  C   UNL d   1     -42.084-123.055 -50.001  0.00  0.00     0.119 A 
ATOM      2  C   UNL d   1     -42.776-123.134 -49.541  0.00  0.00     0.084 A 
ATOM      3  S   UNL d   1     -41.448-123.297 -49.541  0.00  0.00    -0.068 SA
ATOM      4  C   UNL d   1     -42.558-123.427 -48.800  0.00  0.00     0.013 A 
ATOM      5  C   UNL d   1     -41.731-123.528 -48.799  0.00  0.00     0.031 A 
ATOM      6  C   UNL d   1     -43.062-123.591 -48.169  0.00  0.00     0.001 C 
ATOM      7  C   UNL d   1     -41.282-123.809 -48.169  0.00  0.00     0.007 C 
ENDROOT
BRANCH   1   8
ATOM      8  N   UNL d   1     -42.050-122.781 -50.777  0.00  0.00    -0.201 NA
ATOM      9  C   UNL d   1     -41.567-123.168 -51.326  0.00  0.00     0.286 C 
ATOM     10  O   UNL d   1     -41.123-123.817 -51.112  0.00  0.00    -0.265 OA
BRANCH   9  11
ATOM     11  C   UNL d   1     -41.533-122.892 -52.107  0.00  0.00     0.088 A 
ATOM     12  S   UNL d   1     -41.541-123.357 -52.799  0.00  0.00    -0.075 SA
ATOM     13  C   UNL d   1     -41.497-122.848 -53.457  0.00  0.00     0.064 A 
ATOM     14 BR   UNL d   1     -41.489-123.072 -54.264  0.00  0.00    -0.042 Br
ATOM     15  C   UNL d   1     -41.463-122.078 -53.161  0.00  0.00     0.014 A 
ATOM     16  C   UNL d   1     -41.485-122.105 -52.341  0.00  0.00     0.012 A 
ENDBRANCH   9  11
ENDBRANCH   1   8
BRANCH   2  17
ATOM     17  C   UNL d   1     -43.543-122.953 -49.786  0.00  0.00     0.299 C 
ATOM     18  O   UNL d   1     -44.075-123.566 -49.977  0.00  0.00    -0.264 OA
ATOM     19  N   UNL d   1     -43.792-122.161 -49.846  0.00  0.00    -0.102 N 
ENDBRANCH   2  17
TORSDOF 3
ENDMDL
MODEL 3
REMARK VINA RESULT:      -2.4      1.666      2.245
REMARK  3 active torsions:
REMARK  status: ('A' for Active; 'I' for Inactive)
REMARK    1  A    between atoms: N_5  and  C_1 
REMARK    2  A    between atoms: C_10  and  C_2 
REMARK       I    between atoms: C_8  and  N_5 
REMARK    3  A    between atoms: C_7  and  C_8 
ROOT
ATOM      1  C   UNL d   1     -41.311-122.885 -51.499  0.00  0.00     0.119 A 
ATOM      2  C   UNL d   1     -41.507-122.244 -51.996  0.00  0.00     0.084 A 
ATOM      3  S   UNL d   1     -41.146-123.532 -51.977  0.00  0.00    -0.068 SA
ATOM      4  C   UNL d   1     -41.460-122.504 -52.779  0.00  0.00     0.013 A 
ATOM      5  C   UNL d   1     -41.235-123.306 -52.767  0.00  0.00     0.031 A 
ATOM      6  C   UNL d   1     -41.607-122.057 -53.454  0.00  0.00     0.001 C 
ATOM      7  C   UNL d   1     -41.124-123.783 -53.429  0.00  0.00     0.007 C 
ENDROOT
BRANCH   1   8
ATOM      8  N   UNL d   1     -41.289-122.867 -50.675  0.00  0.00    -0.201 NA
ATOM      9  C   UNL d   1     -41.816-123.336 -50.242  0.00  0.00     0.286 C 
ATOM     10  O   UNL d   1     -42.358-123.817 -50.616  0.00  0.00    -0.265 OA
BRANCH   9  11
ATOM     11  C   UNL d   1     -41.794-123.317 -49.414  0.00  0.00     0.088 A 
ATOM     12  S   UNL d   1     -42.443-123.400 -48.897  0.00  0.00    -0.075 SA
ATOM     13  C   UNL d   1     -42.164-123.346 -48.115  0.00  0.00     0.064 A 
ATOM     14 BR   UNL d   1     -42.620-123.397 -47.415  0.00  0.00    -0.042 Br
ATOM     15  C   UNL d   1     -41.348-123.231 -48.160  0.00  0.00     0.014 A 
ATOM     16  C   UNL d   1     -41.123-123.214 -48.950  0.00  0.00     0.012 A 
ENDBRANCH   9  11
ENDBRANCH   1   8
BRANCH   2  17
ATOM     17  C   UNL d   1     -41.711-121.484 -51.747  0.00  0.00     0.299 C 
ATOM     18  O   UNL d   1     -42.515-121.267 -51.689  0.00  0.00    -0.264 OA
ATOM     19  N   UNL d   1     -41.123-120.929 -51.552  0.00  0.00    -0.102 N 
ENDBRANCH   2  17
TORSDOF 3
ENDMDL
MODEL 4
REMARK VINA RESULT:      -2.2      1.189      1.656
REMARK  3 active torsions:
REMARK  status: ('A' for Active; 'I' for Inactive)
REMARK    1  A    between atoms: N_5  and  C_1 
REMARK    2  A    between atoms: C_10  and  C_2 
REMARK       I    between atoms: C_8  and  N_5 
REMARK    3  A    between atoms: C_7  and  C_8 
ROOT
ATOM      1  C   UNL d   1     -41.824-122.276 -53.452  0.00  0.00     0.119 A 
ATOM      2  C   UNL d   1     -41.851-122.593 -54.224  0.00  0.00     0.084 A 
ATOM      3  S   UNL d   1     -41.836-121.457 -53.518  0.00  0.00    -0.068 SA
ATOM      4  C   UNL d   1     -41.880-121.964 -54.759  0.00  0.00     0.013 A 
ATOM      5  C   UNL d   1     -41.871-121.257 -54.319  0.00  0.00     0.031 A 
ATOM      6  C   UNL d   1     -41.913-122.019 -55.580  0.00  0.00     0.001 C 
ATOM      7  C   UNL d   1     -41.893-120.496 -54.634  0.00  0.00     0.007 C 
ENDROOT
BRANCH   1   8
ATOM      8  N   UNL d   1     -41.790-122.710 -52.753  0.00  0.00    -0.201 NA
ATOM      9  C   UNL d   1     -41.521-122.347 -52.060  0.00  0.00     0.286 C 
ATOM     10  O   UNL d   1     -41.288-121.566 -52.056  0.00  0.00    -0.265 OA
BRANCH   9  11
ATOM     11  C   UNL d   1     -41.487-122.785 -51.356  0.00  0.00     0.088 A 
ATOM     12  S   UNL d   1     -41.814-122.568 -50.621  0.00  0.00    -0.075 SA
ATOM     13  C   UNL d   1     -41.646-123.172 -50.072  0.00  0.00     0.064 A 
ATOM     14 BR   UNL d   1     -41.867-123.191 -49.264  0.00  0.00    -0.042 Br
ATOM     15  C   UNL d   1     -41.220-123.751 -50.477  0.00  0.00     0.014 A 
ATOM     16  C   UNL d   1     -41.123-123.515 -51.258  0.00  0.00     0.012 A 
ENDBRANCH   9  11
ENDBRANCH   1   8
BRANCH   2  17
ATOM     17  C   UNL d   1     -41.849-123.396 -54.416  0.00  0.00     0.299 C 
ATOM     18  O   UNL d   1     -42.568-123.817 -54.450  0.00  0.00    -0.264 OA
ATOM     19  N   UNL d   1     -41.135-123.791 -54.577  0.00  0.00    -0.102 N 
ENDBRANCH   2  17
TORSDOF 3
ENDMDL
MODEL 5
REMARK VINA RESULT:      -2.1      1.863      3.827
REMARK  3 active torsions:
REMARK  status: ('A' for Active; 'I' for Inactive)
REMARK    1  A    between atoms: N_5  and  C_1 
REMARK    2  A    between atoms: C_10  and  C_2 
REMARK       I    between atoms: C_8  and  N_5 
REMARK    3  A    between atoms: C_7  and  C_8 
ROOT
ATOM      1  C   UNL d   1     -41.390-122.642 -51.784  0.00  0.00     0.119 A 
ATOM      2  C   UNL d   1     -41.560-122.082 -51.189  0.00  0.00     0.084 A 
ATOM      3  S   UNL d   1     -41.208-123.352 -51.415  0.00  0.00    -0.068 SA
ATOM      4  C   UNL d   1     -41.481-122.455 -50.456  0.00  0.00     0.013 A 
ATOM      5  C   UNL d   1     -41.261-123.246 -50.597  0.00  0.00     0.031 A 
ATOM      6  C   UNL d   1     -41.596-122.113 -49.716  0.00  0.00     0.001 C 
ATOM      7  C   UNL d   1     -41.123-123.816 -50.018  0.00  0.00     0.007 C 
ENDROOT
BRANCH   1   8
ATOM      8  N   UNL d   1     -41.404-122.501 -52.596  0.00  0.00    -0.201 NA
ATOM      9  C   UNL d   1     -41.676-123.093 -53.108  0.00  0.00     0.286 C 
ATOM     10  O   UNL d   1     -41.931-123.813 -52.822  0.00  0.00    -0.265 OA
BRANCH   9  11
ATOM     11  C   UNL d   1     -41.690-122.952 -53.924  0.00  0.00     0.088 A 
ATOM     12  S   UNL d   1     -41.886-122.235 -54.302  0.00  0.00    -0.075 SA
ATOM     13  C   UNL d   1     -41.827-122.347 -55.125  0.00  0.00     0.064 A 
ATOM     14 BR   UNL d   1     -41.973-121.777 -55.720  0.00  0.00    -0.042 Br
ATOM     15  C   UNL d   1     -41.595-123.130 -55.243  0.00  0.00     0.014 A 
ATOM     16  C   UNL d   1     -41.512-123.498 -54.513  0.00  0.00     0.012 A 
ENDBRANCH   9  11
ENDBRANCH   1   8
BRANCH   2  17
ATOM     17  C   UNL d   1     -41.771-121.294 -51.314  0.00  0.00     0.299 C 
ATOM     18  O   UNL d   1     -41.179-120.711 -51.389  0.00  0.00    -0.264 OA
ATOM     19  N   UNL d   1     -42.572-121.072 -51.365  0.00  0.00    -0.102 N 
ENDBRANCH   2  17
TORSDOF 3
ENDMDL
