MODEL 1
REMARK VINA RESULT:     113.5      0.000      0.000
REMARK  8 active torsions:
REMARK  status: ('A' for Active; 'I' for Inactive)
REMARK    1  A    between atoms: C_6  and  C_1 
REMARK    2  A    between atoms: S_11  and  C_3 
REMARK    3  A    between atoms: C_8  and  C_4 
REMARK       I    between atoms: N_10  and  C_6 
REMARK    4  A    between atoms: C_22  and  N_10 
REMARK    5  A    between atoms: C_21  and  S_11 
REMARK    6  A    between atoms: C_13  and  C_21 
REMARK    7  A    between atoms: O_20  and  C_13 
REMARK    8  A    between atoms: C_24  and  O_20 
ROOT
ATOM      1  C   UNL d   1      60.442  47.046  50.868  0.00  0.00     0.078 A 
ATOM      2  C   UNL d   1      60.629  48.420  50.631  0.00  0.00     0.094 A 
ATOM      3  C   UNL d   1      59.890  48.578  50.963  0.00  0.00     0.120 A 
ATOM      4  C   UNL d   1      60.911  47.654  50.581  0.00  0.00     0.041 A 
ATOM      5  C   UNL d   1      59.703  47.204  51.200  0.00  0.00     0.087 A 
ATOM      6  N   UNL d   1      59.422  47.971  51.250  0.00  0.00    -0.238 NA
ATOM      7  C   UNL d   1      61.103  49.069  50.337  0.00  0.00     0.103 C 
ATOM      8  N   UNL d   1      61.578  49.696  50.045  0.00  0.00    -0.191 NA
ATOM      9  C   UNL d   1      59.210  46.581  51.501  0.00  0.00     0.021 C 
ENDROOT
BRANCH   4  10
ATOM     10  C   UNL d   1      61.630  47.500  50.257  0.00  0.00     0.101 A 
ATOM     11  O   UNL d   1      61.743  47.184  49.503  0.00  0.00    -0.305 OA
ATOM     12  C   UNL d   1      62.544  47.106  49.366  0.00  0.00     0.123 A 
ATOM     13  C   UNL d   1      62.917  47.371  50.028  0.00  0.00     0.029 A 
ATOM     14  C   UNL d   1      62.385  47.614  50.579  0.00  0.00     0.027 A 
ENDBRANCH   4  10
BRANCH   3  15
ATOM     15  S   UNL d   1      59.589  49.367  51.021  0.00  0.00    -0.061 SA
BRANCH  15  16
ATOM     16  C   UNL d   1      58.807  49.489  51.279  0.00  0.00     0.105 C 
BRANCH  16  17
ATOM     17  C   UNL d   1      58.211  49.634  50.734  0.00  0.00     0.307 C 
ATOM     18  O   UNL d   1      58.403  49.705  49.939  0.00  0.00    -0.258 OA
BRANCH  17  19
ATOM     19  O   UNL d   1      57.426  49.708  50.989  0.00  0.00    -0.273 OA
BRANCH  19  20
ATOM     20  C   UNL d   1      56.814  49.695  50.446  0.00  0.00     0.103 C 
ATOM     21  C   UNL d   1      56.977  49.701  49.637  0.00  0.00     0.027 C 
ATOM     22  C   UNL d   1      56.034  49.676  50.717  0.00  0.00     0.027 C 
ENDBRANCH  19  20
ENDBRANCH  17  19
ENDBRANCH  16  17
ENDBRANCH  15  16
ENDBRANCH   3  15
BRANCH   1  23
ATOM     23  C   UNL d   1      60.719  46.242  50.824  0.00  0.00     0.281 C 
ATOM     24  N   UNL d   1      60.709  45.772  51.494  0.00  0.00    -0.208 NA
ATOM     25  O   UNL d   1      60.993  45.946  50.104  0.00  0.00    -0.265 OA
BRANCH  24  26
ATOM     26  C   UNL d   1      60.983  44.983  51.443  0.00  0.00     0.085 A 
ATOM     27  C   UNL d   1      61.453  44.668  52.043  0.00  0.00     0.019 A 
ATOM     28  C   UNL d   1      61.717  43.882  51.977  0.00  0.00     0.002 A 
ATOM     29  C   UNL d   1      61.510  43.431  51.322  0.00  0.00     0.000 A 
ATOM     30  C   UNL d   1      61.041  43.767  50.737  0.00  0.00     0.002 A 
ATOM     31  C   UNL d   1      60.778  44.531  50.791  0.00  0.00     0.019 A 
ENDBRANCH  24  26
ENDBRANCH   1  23
TORSDOF 8
ENDMDL
MODEL 2
REMARK VINA RESULT:     113.9      1.423      5.062
REMARK  8 active torsions:
REMARK  status: ('A' for Active; 'I' for Inactive)
REMARK    1  A    between atoms: C_6  and  C_1 
REMARK    2  A    between atoms: S_11  and  C_3 
REMARK    3  A    between atoms: C_8  and  C_4 
REMARK       I    between atoms: N_10  and  C_6 
REMARK    4  A    between atoms: C_22  and  N_10 
REMARK    5  A    between atoms: C_21  and  S_11 
REMARK    6  A    between atoms: C_13  and  C_21 
REMARK    7  A    between atoms: O_20  and  C_13 
REMARK    8  A    between atoms: C_24  and  O_20 
ROOT
ATOM      1  C   UNL d   1      59.145  47.446  50.936  0.00  0.00     0.078 A 
ATOM      2  C   UNL d   1      60.501  47.068  50.942  0.00  0.00     0.094 A 
ATOM      3  C   UNL d   1      60.281  46.281  51.051  0.00  0.00     0.120 A 
ATOM      4  C   UNL d   1      59.935  47.657  50.884  0.00  0.00     0.041 A 
ATOM      5  C   UNL d   1      58.925  46.658  51.044  0.00  0.00     0.087 A 
ATOM      6  N   UNL d   1      59.492  46.069  51.102  0.00  0.00    -0.238 NA
ATOM      7  C   UNL d   1      61.331  47.268  50.891  0.00  0.00     0.103 C 
ATOM      8  N   UNL d   1      62.142  47.477  50.839  0.00  0.00    -0.191 NA
ATOM      9  C   UNL d   1      58.110  46.429  51.099  0.00  0.00     0.021 C 
ENDROOT
BRANCH   4  10
ATOM     10  C   UNL d   1      60.150  48.425  50.778  0.00  0.00     0.101 A 
ATOM     11  O   UNL d   1      60.237  48.786  50.041  0.00  0.00    -0.305 OA
ATOM     12  C   UNL d   1      60.459  49.564  50.153  0.00  0.00     0.123 A 
ATOM     13  C   UNL d   1      60.507  49.677  50.948  0.00  0.00     0.029 A 
ATOM     14  C   UNL d   1      60.325  49.003  51.345  0.00  0.00     0.027 A 
ENDBRANCH   4  10
BRANCH   3  15
ATOM     15  S   UNL d   1      60.857  45.663  51.112  0.00  0.00    -0.061 SA
BRANCH  15  16
ATOM     16  C   UNL d   1      60.605  44.873  51.182  0.00  0.00     0.105 C 
BRANCH  16  17
ATOM     17  C   UNL d   1      61.101  44.310  51.513  0.00  0.00     0.307 C 
ATOM     18  O   UNL d   1      61.404  44.435  52.267  0.00  0.00    -0.258 OA
BRANCH  17  19
ATOM     19  O   UNL d   1      61.293  43.625  51.088  0.00  0.00    -0.273 OA
BRANCH  19  20
ATOM     20  C   UNL d   1      61.792  43.064  51.413  0.00  0.00     0.103 C 
ATOM     21  C   UNL d   1      61.573  42.665  52.102  0.00  0.00     0.027 C 
ATOM     22  C   UNL d   1      62.512  42.903  51.045  0.00  0.00     0.027 C 
ENDBRANCH  19  20
ENDBRANCH  17  19
ENDBRANCH  16  17
ENDBRANCH  15  16
ENDBRANCH   3  15
BRANCH   1  23
ATOM     23  C   UNL d   1      58.543  48.045  50.877  0.00  0.00     0.281 C 
ATOM     24  N   UNL d   1      57.924  47.949  50.350  0.00  0.00    -0.208 NA
ATOM     25  O   UNL d   1      58.592  48.717  51.353  0.00  0.00    -0.265 OA
BRANCH  24  26
ATOM     26  C   UNL d   1      57.336  48.542  50.298  0.00  0.00     0.085 A 
ATOM     27  C   UNL d   1      57.176  48.902  49.574  0.00  0.00     0.019 A 
ATOM     28  C   UNL d   1      56.588  49.491  49.539  0.00  0.00     0.002 A 
ATOM     29  C   UNL d   1      56.178  49.705  50.218  0.00  0.00     0.000 A 
ATOM     30  C   UNL d   1      56.356  49.331  50.928  0.00  0.00     0.002 A 
ATOM     31  C   UNL d   1      56.926  48.757  50.974  0.00  0.00     0.019 A 
ENDBRANCH  24  26
ENDBRANCH   1  23
TORSDOF 8
ENDMDL
