MODEL 1
REMARK VINA RESULT:      63.9      0.000      0.000
REMARK  5 active torsions:
REMARK  status: ('A' for Active; 'I' for Inactive)
REMARK    1  A    between atoms: C_4  and  C_1 
REMARK    2  A    between atoms: S_2  and  C_4 
REMARK    3  A    between atoms: C_8  and  S_2 
REMARK    4  A    between atoms: N_5  and  C_3 
REMARK    5  A    between atoms: C_9  and  C_4 
ROOT
ATOM      1  C   UNL d   1      13.797  13.386  -2.927  0.00  0.00     0.128 A 
ATOM      2  C   UNL d   1      13.840  12.582  -2.776  0.00  0.00     0.166 A 
ATOM      3  N   UNL d   1      13.521  13.658  -3.653  0.00  0.00    -0.240 NA
ATOM      4  N   UNL d   1      13.607  12.043  -3.349  0.00  0.00    -0.225 NA
ATOM      5  C   UNL d   1      13.290  13.116  -4.220  0.00  0.00     0.099 A 
ATOM      6  C   UNL d   1      13.330  12.310  -4.076  0.00  0.00     0.101 A 
ATOM      7  C   UNL d   1      13.097  11.779  -4.651  0.00  0.00     0.021 A 
ATOM      8  C   UNL d   1      13.013  13.386  -4.950  0.00  0.00     0.021 A 
ATOM      9  C   UNL d   1      12.823  12.045  -5.371  0.00  0.00     0.002 A 
ATOM     10  C   UNL d   1      12.782  12.848  -5.518  0.00  0.00     0.002 A 
ENDROOT
BRANCH   1  11
ATOM     11  C   UNL d   1      14.027  13.928  -2.360  0.00  0.00     0.129 C 
BRANCH  11  12
ATOM     12  S   UNL d   1      13.870  14.787  -2.515  0.00  0.00     0.213 S 
ATOM     13  O   UNL d   1      13.023  15.044  -2.562  0.00  0.00    -0.217 OA
ATOM     14  O   UNL d   1      13.126  14.427  -2.450  0.00  0.00    -0.217 OA
BRANCH  12  15
ATOM     15  C   UNL d   1      14.365  15.443  -2.633  0.00  0.00     0.088 A 
ATOM     16  C   UNL d   1      14.469  15.740  -3.402  0.00  0.00     0.011 A 
ATOM     17  C   UNL d   1      14.963  16.392  -3.514  0.00  0.00     0.001 A 
ATOM     18  C   UNL d   1      15.072  16.693  -4.269  0.00  0.00     0.000 C 
ATOM     19  C   UNL d   1      15.348  16.744  -2.874  0.00  0.00     0.000 A 
ATOM     20  C   UNL d   1      15.235  16.437  -2.110  0.00  0.00     0.001 A 
ATOM     21  C   UNL d   1      14.743  15.788  -2.001  0.00  0.00     0.011 A 
ENDBRANCH  12  15
ENDBRANCH  11  12
BRANCH  11  22
ATOM     22  C   UNL d   1      14.417  13.803  -1.599  0.00  0.00     0.135 C 
ATOM     23  N   UNL d   1      14.714  14.409  -1.030  0.00  0.00    -0.146 N 
ENDBRANCH  11  22
ENDBRANCH   1  11
BRANCH   2  24
ATOM     24  N   UNL d   1      14.118  12.316  -2.045  0.00  0.00    -0.284 N 
ATOM     25  C   UNL d   1      13.580  12.186  -1.422  0.00  0.00     0.106 A 
ATOM     26  C   UNL d   1      13.870  11.917  -0.688  0.00  0.00     0.118 A 
ATOM     27  C   UNL d   1      13.332  11.787  -0.064  0.00  0.00     0.028 C 
ATOM     28  O   UNL d   1      14.683  11.781  -0.579  0.00  0.00    -0.304 OA
ATOM     29  C   UNL d   1      15.205  11.914  -1.205  0.00  0.00     0.118 A 
ATOM     30  C   UNL d   1      14.931  12.180  -1.936  0.00  0.00     0.106 A 
ATOM     31  C   UNL d   1      16.018  11.780  -1.100  0.00  0.00     0.028 C 
ENDBRANCH   2  24
TORSDOF 5
ENDMDL
