MODEL 1
REMARK VINA RESULT:      -8.7      0.000      0.000
REMARK  4 active torsions:
REMARK  status: ('A' for Active; 'I' for Inactive)
REMARK    1  A    between atoms: C_8  and  N_1 
REMARK    2  A    between atoms: C_2  and  C_4 
REMARK       I    between atoms: C_4  and  N_5 
REMARK    3  A    between atoms: N_5  and  C_7 
REMARK    4  A    between atoms: O_19  and  C_14 
ROOT
ATOM      1  C   UNL d   1      52.616  33.396  53.609  0.00  0.00     0.108 A 
ATOM      2  C   UNL d   1      53.153  34.497  54.233  0.00  0.00     0.128 A 
ATOM      3  C   UNL d   1      53.072  33.704  54.211  0.00  0.00     0.045 A 
ATOM      4  C   UNL d   1      52.263  33.858  53.064  0.00  0.00     0.112 A 
ATOM      5  C   UNL d   1      52.832  34.992  53.729  0.00  0.00     0.026 A 
ATOM      6  C   UNL d   1      52.365  34.691  53.111  0.00  0.00     0.027 A 
ENDROOT
BRANCH   1   7
ATOM      7  N   UNL d   1      52.506  32.516  53.558  0.00  0.00    -0.206 NA
ATOM      8  C   UNL d   1      53.191  32.043  53.481  0.00  0.00     0.285 C 
ATOM      9  O   UNL d   1      53.923  32.423  53.459  0.00  0.00    -0.265 OA
BRANCH   8  10
ATOM     10  C   UNL d   1      53.152  31.217  53.429  0.00  0.00     0.088 A 
ATOM     11  S   UNL d   1      53.314  30.649  54.009  0.00  0.00    -0.075 SA
ATOM     12  C   UNL d   1      53.187  29.899  53.662  0.00  0.00     0.064 A 
ATOM     13 BR   UNL d   1      53.281  29.177  54.036  0.00  0.00    -0.042 Br
ATOM     14  C   UNL d   1      52.948  30.035  52.866  0.00  0.00     0.014 A 
ATOM     15  C   UNL d   1      52.937  30.832  52.758  0.00  0.00     0.012 A 
ENDBRANCH   8  10
ENDBRANCH   1   7
BRANCH   4  16
ATOM     16  O   UNL d   1      51.797  33.557  52.448  0.00  0.00    -0.327 OA
ATOM     17  C   UNL d   1      51.248  34.099  52.028  0.00  0.00     0.181 C 
ENDBRANCH   4  16
BRANCH   2  18
ATOM     18  N   UNL d   1      53.656  34.828  54.897  0.00  0.00    -0.114 N 
ATOM     19  O   UNL d   1      54.520  34.786  54.862  0.00  0.00    -0.532 OA
ATOM     20  O   UNL d   1      53.260  35.178  55.552  0.00  0.00    -0.532 OA
ENDBRANCH   2  18
TORSDOF 4
ENDMDL
MODEL 2
REMARK VINA RESULT:      -8.7      1.078      2.109
REMARK  4 active torsions:
REMARK  status: ('A' for Active; 'I' for Inactive)
REMARK    1  A    between atoms: C_8  and  N_1 
REMARK    2  A    between atoms: C_2  and  C_4 
REMARK       I    between atoms: C_4  and  N_5 
REMARK    3  A    between atoms: N_5  and  C_7 
REMARK    4  A    between atoms: O_19  and  C_14 
ROOT
ATOM      1  C   UNL d   1      52.552  33.118  53.542  0.00  0.00     0.108 A 
ATOM      2  C   UNL d   1      51.812  34.067  52.877  0.00  0.00     0.128 A 
ATOM      3  C   UNL d   1      51.921  33.298  53.058  0.00  0.00     0.045 A 
ATOM      4  C   UNL d   1      53.042  33.678  53.826  0.00  0.00     0.112 A 
ATOM      5  C   UNL d   1      52.258  34.651  53.126  0.00  0.00     0.026 A 
ATOM      6  C   UNL d   1      52.904  34.481  53.619  0.00  0.00     0.027 A 
ENDROOT
BRANCH   1   7
ATOM      7  N   UNL d   1      52.700  32.271  53.762  0.00  0.00    -0.206 NA
ATOM      8  C   UNL d   1      52.795  31.719  53.141  0.00  0.00     0.285 C 
ATOM      9  O   UNL d   1      52.746  31.997  52.366  0.00  0.00    -0.265 OA
BRANCH   8  10
ATOM     10  C   UNL d   1      52.935  30.915  53.283  0.00  0.00     0.088 A 
ATOM     11  S   UNL d   1      53.175  30.544  53.984  0.00  0.00    -0.075 SA
ATOM     12  C   UNL d   1      53.233  29.725  53.821  0.00  0.00     0.064 A 
ATOM     13 BR   UNL d   1      53.453  29.146  54.355  0.00  0.00    -0.042 Br
ATOM     14  C   UNL d   1      53.022  29.621  53.012  0.00  0.00     0.014 A 
ATOM     15  C   UNL d   1      52.850  30.350  52.719  0.00  0.00     0.012 A 
ENDBRANCH   8  10
ENDBRANCH   1   7
BRANCH   4  16
ATOM     16  O   UNL d   1      53.687  33.509  54.319  0.00  0.00    -0.327 OA
ATOM     17  C   UNL d   1      54.032  34.155  54.804  0.00  0.00     0.181 C 
ENDBRANCH   4  16
BRANCH   2  18
ATOM     18  N   UNL d   1      51.116  34.257  52.344  0.00  0.00    -0.114 N 
ATOM     19  O   UNL d   1      51.220  34.327  51.488  0.00  0.00    -0.532 OA
ATOM     20  O   UNL d   1      50.364  34.363  52.705  0.00  0.00    -0.532 OA
ENDBRANCH   2  18
TORSDOF 4
ENDMDL
MODEL 3
REMARK VINA RESULT:      -8.5      2.071      3.305
REMARK  4 active torsions:
REMARK  status: ('A' for Active; 'I' for Inactive)
REMARK    1  A    between atoms: C_8  and  N_1 
REMARK    2  A    between atoms: C_2  and  C_4 
REMARK       I    between atoms: C_4  and  N_5 
REMARK    3  A    between atoms: N_5  and  C_7 
REMARK    4  A    between atoms: O_19  and  C_14 
ROOT
ATOM      1  C   UNL d   1      52.999  32.985  53.862  0.00  0.00     0.108 A 
ATOM      2  C   UNL d   1      54.084  33.345  54.626  0.00  0.00     0.128 A 
ATOM      3  C   UNL d   1      53.367  33.539  54.335  0.00  0.00     0.045 A 
ATOM      4  C   UNL d   1      53.332  32.281  53.693  0.00  0.00     0.112 A 
ATOM      5  C   UNL d   1      54.453  32.676  54.494  0.00  0.00     0.026 A 
ATOM      6  C   UNL d   1      54.089  32.104  54.014  0.00  0.00     0.027 A 
ENDROOT
BRANCH   1   7
ATOM      7  N   UNL d   1      52.200  33.170  53.522  0.00  0.00    -0.206 NA
ATOM      8  C   UNL d   1      52.124  33.865  53.062  0.00  0.00     0.285 C 
ATOM      9  O   UNL d   1      52.795  34.332  52.955  0.00  0.00    -0.265 OA
BRANCH   8  10
ATOM     10  C   UNL d   1      51.404  34.090  52.720  0.00  0.00     0.088 A 
ATOM     11  S   UNL d   1      50.696  34.309  53.090  0.00  0.00    -0.075 SA
ATOM     12  C   UNL d   1      50.146  34.482  52.485  0.00  0.00     0.064 A 
ATOM     13 BR   UNL d   1      49.371  34.723  52.597  0.00  0.00    -0.042 Br
ATOM     14  C   UNL d   1      50.542  34.361  51.751  0.00  0.00     0.014 A 
ATOM     15  C   UNL d   1      51.291  34.127  51.926  0.00  0.00     0.012 A 
ENDBRANCH   8  10
ENDBRANCH   1   7
BRANCH   4  16
ATOM     16  O   UNL d   1      52.969  31.710  53.214  0.00  0.00    -0.327 OA
ATOM     17  C   UNL d   1      53.255  30.881  53.251  0.00  0.00     0.181 C 
ENDBRANCH   4  16
BRANCH   2  18
ATOM     18  N   UNL d   1      54.481  33.959  55.145  0.00  0.00    -0.114 N 
ATOM     19  O   UNL d   1      54.017  34.449  55.687  0.00  0.00    -0.532 OA
ATOM     20  O   UNL d   1      55.317  34.040  55.086  0.00  0.00    -0.532 OA
ENDBRANCH   2  18
TORSDOF 4
ENDMDL
MODEL 4
REMARK VINA RESULT:      -7.9      2.351      4.096
REMARK  4 active torsions:
REMARK  status: ('A' for Active; 'I' for Inactive)
REMARK    1  A    between atoms: C_8  and  N_1 
REMARK    2  A    between atoms: C_2  and  C_4 
REMARK       I    between atoms: C_4  and  N_5 
REMARK    3  A    between atoms: N_5  and  C_7 
REMARK    4  A    between atoms: O_19  and  C_14 
ROOT
ATOM      1  C   UNL d   1      52.939  32.303  53.262  0.00  0.00     0.108 A 
ATOM      2  C   UNL d   1      53.183  30.950  53.283  0.00  0.00     0.128 A 
ATOM      3  C   UNL d   1      52.744  31.555  53.003  0.00  0.00     0.045 A 
ATOM      4  C   UNL d   1      53.537  32.434  53.772  0.00  0.00     0.112 A 
ATOM      5  C   UNL d   1      53.774  31.021  53.780  0.00  0.00     0.026 A 
ATOM      6  C   UNL d   1      53.982  31.778  54.052  0.00  0.00     0.027 A 
ENDROOT
BRANCH   1   7
ATOM      7  N   UNL d   1      52.470  32.997  52.968  0.00  0.00    -0.206 NA
ATOM      8  C   UNL d   1      51.640  32.979  53.073  0.00  0.00     0.285 C 
ATOM      9  O   UNL d   1      51.313  32.318  53.441  0.00  0.00    -0.265 OA
BRANCH   8  10
ATOM     10  C   UNL d   1      51.150  33.597  52.819  0.00  0.00     0.088 A 
ATOM     11  S   UNL d   1      50.463  33.896  53.171  0.00  0.00    -0.075 SA
ATOM     12  C   UNL d   1      50.189  34.519  52.685  0.00  0.00     0.064 A 
ATOM     13 BR   UNL d   1      49.522  34.973  52.821  0.00  0.00    -0.042 Br
ATOM     14  C   UNL d   1      50.727  34.581  52.040  0.00  0.00     0.014 A 
ATOM     15  C   UNL d   1      51.290  34.017  52.149  0.00  0.00     0.012 A 
ENDBRANCH   8  10
ENDBRANCH   1   7
BRANCH   4  16
ATOM     16  O   UNL d   1      53.745  33.190  54.044  0.00  0.00    -0.327 OA
ATOM     17  C   UNL d   1      54.434  33.273  54.582  0.00  0.00     0.181 C 
ENDBRANCH   4  16
BRANCH   2  18
ATOM     18  N   UNL d   1      52.963  30.131  52.993  0.00  0.00    -0.114 N 
ATOM     19  O   UNL d   1      52.672  29.529  53.543  0.00  0.00    -0.532 OA
ATOM     20  O   UNL d   1      53.049  29.970  52.172  0.00  0.00    -0.532 OA
ENDBRANCH   2  18
TORSDOF 4
ENDMDL
