MODEL 1
REMARK VINA RESULT:      75.0      0.000      0.000
REMARK  8 active torsions:
REMARK  status: ('A' for Active; 'I' for Inactive)
REMARK    1  A    between atoms: C_20  and  N_7 
REMARK    2  A    between atoms: C_10  and  C_8 
REMARK       I    between atoms: N_18  and  C_10 
REMARK    3  A    between atoms: N_14  and  C_22 
REMARK    4  A    between atoms: C_21  and  N_18 
REMARK    5  A    between atoms: C_23  and  C_20 
REMARK    6  A    between atoms: C_22  and  C_21 
REMARK    7  A    between atoms: C_30  and  C_23 
REMARK    8  A    between atoms: O_27  and  C_30 
ROOT
ATOM      1  C   UNL d   1      59.051  49.358  50.529  0.00  0.00     0.154 A 
ATOM      2  C   UNL d   1      58.772  49.444  49.757  0.00  0.00     0.093 A 
ATOM      3  N   UNL d   1      58.537  49.382  51.152  0.00  0.00    -0.210 NA
ATOM      4  N   UNL d   1      57.481  49.575  50.238  0.00  0.00    -0.258 N 
ATOM      5  C   UNL d   1      57.760  49.490  51.010  0.00  0.00     0.152 A 
ATOM      6  C   UNL d   1      57.987  49.552  49.606  0.00  0.00     0.269 A 
ATOM      7  N   UNL d   1      59.824  49.251  50.673  0.00  0.00    -0.285 N 
ATOM      8  C   UNL d   1      60.330  49.228  50.053  0.00  0.00     0.137 A 
ATOM      9  C   UNL d   1      60.056  49.312  49.293  0.00  0.00     0.031 A 
ATOM     10  C   UNL d   1      57.256  49.513  51.624  0.00  0.00     0.035 A 
ATOM     11  C   UNL d   1      56.699  49.684  50.080  0.00  0.00     0.084 A 
ATOM     12  O   UNL d   1      57.709  49.638  48.834  0.00  0.00    -0.266 OA
ATOM     13  C   UNL d   1      56.203  49.705  50.714  0.00  0.00     0.019 A 
ATOM     14  C   UNL d   1      56.482  49.620  51.485  0.00  0.00     0.005 A 
ATOM     15  C   UNL d   1      57.547  49.425  52.405  0.00  0.00     0.003 C 
ENDROOT
BRANCH   8  16
ATOM     16  C   UNL d   1      61.123  49.118  50.202  0.00  0.00     0.344 C 
ATOM     17  O   UNL d   1      61.556  49.707  50.576  0.00  0.00    -0.249 OA
ATOM     18  N   UNL d   1      61.483  48.401  49.969  0.00  0.00    -0.359 NA
BRANCH  18  19
ATOM     19  C   UNL d   1      61.848  47.689  49.741  0.00  0.00     0.184 C 
BRANCH  19  20
ATOM     20  C   UNL d   1      61.412  47.107  49.325  0.00  0.00     0.116 C 
BRANCH  20  21
ATOM     21  N   UNL d   1      61.640  46.305  49.379  0.00  0.00    -0.297 N 
ATOM     22  C   UNL d   1      61.463  45.494  49.472  0.00  0.00     0.107 A 
ATOM     23  C   UNL d   1      62.080  44.926  49.467  0.00  0.00     0.142 A 
ATOM     24  O   UNL d   1      62.880  45.176  49.369  0.00  0.00    -0.300 OA
ATOM     25  C   UNL d   1      63.058  45.995  49.276  0.00  0.00     0.142 A 
ATOM     26  C   UNL d   1      62.437  46.559  49.281  0.00  0.00     0.107 A 
ENDBRANCH  20  21
ENDBRANCH  19  20
ENDBRANCH  18  19
ENDBRANCH   8  16
BRANCH   7  27
ATOM     27  C   UNL d   1      60.097  49.166  51.456  0.00  0.00     0.084 C 
BRANCH  27  28
ATOM     28  C   UNL d   1      60.778  49.571  51.708  0.00  0.00     0.045 C 
BRANCH  28  29
ATOM     29  C   UNL d   1      61.212  49.281  52.357  0.00  0.00     0.118 C 
BRANCH  29  30
ATOM     30  O   UNL d   1      61.204  49.700  53.075  0.00  0.00    -0.326 OA
ATOM     31  C   UNL d   1      60.782  49.396  53.732  0.00  0.00     0.181 C 
ENDBRANCH  29  30
ENDBRANCH  28  29
ENDBRANCH  27  28
ENDBRANCH   7  27
TORSDOF 8
ENDMDL
