MODEL 1
REMARK VINA RESULT:      -7.2      0.000      0.000
REMARK  6 active torsions:
REMARK  status: ('A' for Active; 'I' for Inactive)
REMARK    1  A    between atoms: S_10  and  C_4 
REMARK    2  A    between atoms: C_16  and  S_10 
REMARK    3  A    between atoms: C_11  and  C_14 
REMARK    4  A    between atoms: O_20  and  C_13 
REMARK    5  A    between atoms: C_14  and  C_16 
REMARK    6  A    between atoms: O_21  and  C_15 
ROOT
ATOM      1  C   UNL d   1     -47.788  13.201  22.596  0.00  0.00     0.079 C 
ENDROOT
BRANCH   1   2
ATOM      2  C   UNL d   1     -47.088  13.485  22.934  0.00  0.00     0.202 C 
ATOM      3  O   UNL d   1     -47.121  14.119  23.481  0.00  0.00    -0.286 OA
BRANCH   2   4
ATOM      4  C   UNL d   1     -46.353  13.150  22.741  0.00  0.00     0.042 A 
ATOM      5  C   UNL d   1     -46.078  12.472  23.133  0.00  0.00     0.029 A 
ATOM      6  C   UNL d   1     -45.340  12.143  22.932  0.00  0.00     0.116 A 
ATOM      7  C   UNL d   1     -44.886  12.499  22.340  0.00  0.00     0.116 A 
ATOM      8  C   UNL d   1     -45.152  13.166  21.951  0.00  0.00     0.026 A 
ATOM      9  C   UNL d   1     -45.891  13.496  22.151  0.00  0.00     0.005 A 
BRANCH   6  10
ATOM     10  O   UNL d   1     -45.063  11.467  23.321  0.00  0.00    -0.326 OA
ATOM     11  C   UNL d   1     -45.609  10.930  23.651  0.00  0.00     0.181 C 
ENDBRANCH   6  10
BRANCH   7  12
ATOM     12  O   UNL d   1     -44.143  12.173  22.134  0.00  0.00    -0.326 OA
ATOM     13  C   UNL d   1     -43.631  12.602  21.636  0.00  0.00     0.181 C 
ENDBRANCH   7  12
ENDBRANCH   2   4
ENDBRANCH   1   2
BRANCH   1  14
ATOM     14  S   UNL d   1     -48.512  13.355  22.954  0.00  0.00    -0.063 SA
BRANCH  14  15
ATOM     15  C   UNL d   1     -49.331  13.310  23.112  0.00  0.00     0.132 A 
ATOM     16  N   UNL d   1     -49.730  13.963  23.257  0.00  0.00    -0.050 N 
ATOM     17  C   UNL d   1     -50.503  13.913  23.405  0.00  0.00     0.753 A 
ATOM     18  N   UNL d   1     -49.777  15.311  23.401  0.00  0.00    -0.130 NA
ATOM     19  N   UNL d   1     -50.918  14.560  23.552  0.00  0.00    -0.038 NA
ATOM     20  N   UNL d   1     -50.855  13.219  23.405  0.00  0.00    -0.059 NA
ATOM     21  C   UNL d   1     -50.546  15.260  23.548  0.00  0.00     0.201 A 
ATOM     22  C   UNL d   1     -50.953  15.922  23.695  0.00  0.00     0.044 C 
ATOM     23  C   UNL d   1     -50.449  12.566  23.259  0.00  0.00     0.102 A 
ATOM     24  C   UNL d   1     -49.679  12.616  23.112  0.00  0.00     0.046 A 
ATOM     25  C   UNL d   1     -50.813  11.867  23.261  0.00  0.00     0.021 C 
ENDBRANCH  14  15
ENDBRANCH   1  14
TORSDOF 6
ENDMDL
