MODEL 1
REMARK VINA RESULT:      -5.8      0.000      0.000
REMARK  4 active torsions:
REMARK  status: ('A' for Active; 'I' for Inactive)
REMARK    1  A    between atoms: C_3  and  C_1 
REMARK    2  A    between atoms: C_5  and  C_1 
REMARK    3  A    between atoms: C_2  and  C_3 
REMARK       I    between atoms: N_4  and  C_2 
REMARK    4  A    between atoms: C_6  and  N_4 
ROOT
ATOM      1  C   UNL d   1      57.732   0.287  30.992  0.00  0.00     0.279 C 
ATOM      2  N   UNL d   1      57.628   0.092  30.193  0.00  0.00    -0.208 NA
ATOM      3  O   UNL d   1      58.495   0.425  31.272  0.00  0.00    -0.265 OA
ENDROOT
BRANCH   1   4
ATOM      4  C   UNL d   1      57.096   0.348  31.521  0.00  0.00     0.063 C 
BRANCH   4   5
ATOM      5  C   UNL d   1      56.906  -0.253  32.019  0.00  0.00     0.006 C 
BRANCH   5   6
ATOM      6  C   UNL d   1      56.284  -0.184  32.571  0.00  0.00     0.011 A 
ATOM      7  C   UNL d   1      55.887  -0.839  32.872  0.00  0.00     0.058 A 
ATOM      8 CL   UNL d   1      56.106  -1.595  32.625  0.00  0.00    -0.082 Cl
ATOM      9  C   UNL d   1      55.285  -0.758  33.407  0.00  0.00     0.011 A 
ATOM     10  C   UNL d   1      55.057   0.010  33.663  0.00  0.00     0.001 A 
ATOM     11  C   UNL d   1      55.438   0.677  33.378  0.00  0.00     0.000 A 
ATOM     12  C   UNL d   1      56.057   0.584  32.827  0.00  0.00     0.001 A 
ENDBRANCH   5   6
ENDBRANCH   4   5
ENDBRANCH   1   4
BRANCH   2  13
ATOM     13  C   UNL d   1      58.264   0.032  29.665  0.00  0.00     0.088 A 
ATOM     14  C   UNL d   1      58.553  -0.717  29.476  0.00  0.00     0.061 A 
ATOM     15  C   UNL d   1      59.169  -0.810  28.967  0.00  0.00     0.197 A 
ATOM     16  O   UNL d   1      59.457  -1.557  28.778  0.00  0.00    -0.286 OA
ATOM     17  C   UNL d   1      59.518  -0.130  28.626  0.00  0.00     0.042 A 
ATOM     18  C   UNL d   1      59.229   0.619  28.815  0.00  0.00     0.005 A 
ATOM     19  C   UNL d   1      58.594   0.680  29.343  0.00  0.00     0.019 A 
ENDBRANCH   2  13
TORSDOF 4
ENDMDL
MODEL 2
REMARK VINA RESULT:      -4.9      1.713      4.615
REMARK  4 active torsions:
REMARK  status: ('A' for Active; 'I' for Inactive)
REMARK    1  A    between atoms: C_3  and  C_1 
REMARK    2  A    between atoms: C_5  and  C_1 
REMARK    3  A    between atoms: C_2  and  C_3 
REMARK       I    between atoms: N_4  and  C_2 
REMARK    4  A    between atoms: C_6  and  N_4 
ROOT
ATOM      1  C   UNL d   1      57.446   0.338  31.171  0.00  0.00     0.279 C 
ATOM      2  N   UNL d   1      57.433   0.204  31.988  0.00  0.00    -0.208 NA
ATOM      3  O   UNL d   1      56.746   0.258  30.743  0.00  0.00    -0.265 OA
ENDROOT
BRANCH   1   4
ATOM      4  C   UNL d   1      58.139   0.550  30.766  0.00  0.00     0.063 C 
BRANCH   4   5
ATOM      5  C   UNL d   1      58.279   0.301  30.016  0.00  0.00     0.006 C 
BRANCH   5   6
ATOM      6  C   UNL d   1      59.045   0.316  29.685  0.00  0.00     0.011 A 
ATOM      7  C   UNL d   1      59.209   0.011  28.938  0.00  0.00     0.058 A 
ATOM      8 CL   UNL d   1      58.600  -0.323  28.494  0.00  0.00    -0.082 Cl
ATOM      9  C   UNL d   1      59.957   0.031  28.629  0.00  0.00     0.011 A 
ATOM     10  C   UNL d   1      60.582   0.371  29.077  0.00  0.00     0.001 A 
ATOM     11  C   UNL d   1      60.443   0.681  29.823  0.00  0.00     0.000 A 
ATOM     12  C   UNL d   1      59.670   0.655  30.133  0.00  0.00     0.001 A 
ENDBRANCH   5   6
ENDBRANCH   4   5
ENDBRANCH   1   4
BRANCH   2  13
ATOM     13  C   UNL d   1      56.741  -0.008  32.392  0.00  0.00     0.088 A 
ATOM     14  C   UNL d   1      56.558  -0.808  32.475  0.00  0.00     0.061 A 
ATOM     15  C   UNL d   1      55.894  -1.046  32.861  0.00  0.00     0.197 A 
ATOM     16  O   UNL d   1      55.712  -1.843  32.944  0.00  0.00    -0.286 OA
ATOM     17  C   UNL d   1      55.383  -0.466  33.183  0.00  0.00     0.042 A 
ATOM     18  C   UNL d   1      55.566   0.334  33.100  0.00  0.00     0.005 A 
ATOM     19  C   UNL d   1      56.258   0.546  32.696  0.00  0.00     0.019 A 
ENDBRANCH   2  13
TORSDOF 4
ENDMDL
MODEL 3
REMARK VINA RESULT:      -4.7      1.657      4.751
REMARK  4 active torsions:
REMARK  status: ('A' for Active; 'I' for Inactive)
REMARK    1  A    between atoms: C_3  and  C_1 
REMARK    2  A    between atoms: C_5  and  C_1 
REMARK    3  A    between atoms: C_2  and  C_3 
REMARK       I    between atoms: N_4  and  C_2 
REMARK    4  A    between atoms: C_6  and  N_4 
ROOT
ATOM      1  C   UNL d   1      57.422  -0.334  31.093  0.00  0.00     0.279 C 
ATOM      2  N   UNL d   1      57.328  -0.065  31.871  0.00  0.00    -0.208 NA
ATOM      3  O   UNL d   1      56.858  -0.849  30.780  0.00  0.00    -0.265 OA
ENDROOT
BRANCH   1   4
ATOM      4  C   UNL d   1      58.062  -0.106  30.618  0.00  0.00     0.063 C 
BRANCH   4   5
ATOM      5  C   UNL d   1      58.361  -0.594  30.054  0.00  0.00     0.006 C 
BRANCH   5   6
ATOM      6  C   UNL d   1      59.032  -0.385  29.605  0.00  0.00     0.011 A 
ATOM      7  C   UNL d   1      59.405  -0.914  29.096  0.00  0.00     0.058 A 
ATOM      8 CL   UNL d   1      59.110  -1.681  29.022  0.00  0.00    -0.082 Cl
ATOM      9  C   UNL d   1      60.056  -0.699  28.666  0.00  0.00     0.011 A 
ATOM     10  C   UNL d   1      60.361   0.081  28.739  0.00  0.00     0.001 A 
ATOM     11  C   UNL d   1      60.008   0.626  29.239  0.00  0.00     0.000 A 
ATOM     12  C   UNL d   1      59.338   0.395  29.678  0.00  0.00     0.001 A 
ENDBRANCH   5   6
ENDBRANCH   4   5
ENDBRANCH   1   4
BRANCH   2  13
ATOM     13  C   UNL d   1      56.688  -0.293  32.345  0.00  0.00     0.088 A 
ATOM     14  C   UNL d   1      56.184   0.289  32.640  0.00  0.00     0.061 A 
ATOM     15  C   UNL d   1      55.554   0.100  33.103  0.00  0.00     0.197 A 
ATOM     16  O   UNL d   1      55.051   0.681  33.396  0.00  0.00    -0.286 OA
ATOM     17  C   UNL d   1      55.413  -0.704  33.286  0.00  0.00     0.042 A 
ATOM     18  C   UNL d   1      55.917  -1.287  32.992  0.00  0.00     0.005 A 
ATOM     19  C   UNL d   1      56.557  -1.059  32.518  0.00  0.00     0.019 A 
ENDBRANCH   2  13
TORSDOF 4
ENDMDL
MODEL 4
REMARK VINA RESULT:      -4.2      1.681      4.702
REMARK  4 active torsions:
REMARK  status: ('A' for Active; 'I' for Inactive)
REMARK    1  A    between atoms: C_3  and  C_1 
REMARK    2  A    between atoms: C_5  and  C_1 
REMARK    3  A    between atoms: C_2  and  C_3 
REMARK       I    between atoms: N_4  and  C_2 
REMARK    4  A    between atoms: C_6  and  N_4 
ROOT
ATOM      1  C   UNL d   1      56.956   0.051  31.780  0.00  0.00     0.279 C 
ATOM      2  N   UNL d   1      56.736   0.682  32.270  0.00  0.00    -0.208 NA
ATOM      3  O   UNL d   1      56.783  -0.719  32.021  0.00  0.00    -0.265 OA
ENDROOT
BRANCH   1   4
ATOM      4  C   UNL d   1      57.343   0.164  31.056  0.00  0.00     0.063 C 
BRANCH   4   5
ATOM      5  C   UNL d   1      57.721  -0.439  30.684  0.00  0.00     0.006 C 
BRANCH   5   6
ATOM      6  C   UNL d   1      58.137  -0.321  29.970  0.00  0.00     0.011 A 
ATOM      7  C   UNL d   1      58.502  -0.937  29.564  0.00  0.00     0.058 A 
ATOM      8 CL   UNL d   1      58.460  -1.703  29.868  0.00  0.00    -0.082 Cl
ATOM      9  C   UNL d   1      58.902  -0.810  28.873  0.00  0.00     0.011 A 
ATOM     10  C   UNL d   1      58.948  -0.031  28.558  0.00  0.00     0.001 A 
ATOM     11  C   UNL d   1      58.593   0.599  28.943  0.00  0.00     0.000 A 
ATOM     12  C   UNL d   1      58.183   0.458  29.655  0.00  0.00     0.001 A 
ENDBRANCH   5   6
ENDBRANCH   4   5
ENDBRANCH   1   4
BRANCH   2  13
ATOM     13  C   UNL d   1      56.349   0.568  32.994  0.00  0.00     0.088 A 
ATOM     14  C   UNL d   1      55.527   0.627  33.018  0.00  0.00     0.061 A 
ATOM     15  C   UNL d   1      55.121   0.522  33.705  0.00  0.00     0.197 A 
ATOM     16  O   UNL d   1      54.301   0.580  33.729  0.00  0.00    -0.286 OA
ATOM     17  C   UNL d   1      55.548   0.350  34.404  0.00  0.00     0.042 A 
ATOM     18  C   UNL d   1      56.370   0.291  34.380  0.00  0.00     0.005 A 
ATOM     19  C   UNL d   1      56.757   0.405  33.657  0.00  0.00     0.019 A 
ENDBRANCH   2  13
TORSDOF 4
ENDMDL
