MODEL 1
REMARK VINA RESULT:      18.3      0.000      0.000
REMARK  0 active torsions:
REMARK  status: ('A' for Active; 'I' for Inactive)
ROOT
ATOM      1  C   UNL d   1     -54.712-101.312 -37.529  0.00  0.00     0.094 A 
ATOM      2  C   UNL d   1     -54.712-100.489 -37.576  0.00  0.00     0.143 A 
ATOM      3  S   UNL d   1     -54.713-100.035 -36.887  0.00  0.00    -0.055 SA
ATOM      4  C   UNL d   1     -54.712-101.683 -36.792  0.00  0.00     0.013 A 
ATOM      5  C   UNL d   1     -54.713-100.407 -36.149  0.00  0.00     0.086 A 
ATOM      6  C   UNL d   1     -54.712-101.230 -36.102  0.00  0.00     0.017 A 
ATOM      7  C   UNL d   1     -54.711-101.765 -38.219  0.00  0.00     0.103 C 
ATOM      8  N   UNL d   1     -54.711-102.216 -38.903  0.00  0.00    -0.191 NA
ATOM      9  S   UNL d   1     -54.713 -99.953 -35.454  0.00  0.00    -0.071 SA
ATOM     10  N   UNL d   1     -54.712-100.117 -38.308  0.00  0.00    -0.140 N 
ATOM     11  C   UNL d   1     -54.711-102.505 -36.745  0.00  0.00     0.001 A 
ATOM     12  C   UNL d   1     -54.712-101.601 -35.365  0.00  0.00     0.001 A 
ATOM     13  C   UNL d   1     -54.711-102.877 -36.007  0.00  0.00     0.000 A 
ATOM     14  C   UNL d   1     -54.712-102.423 -35.317  0.00  0.00     0.000 A 
ENDROOT
TORSDOF 0
ENDMDL
