MODEL 1
REMARK VINA RESULT:      92.0      0.000      0.000
REMARK  3 active torsions:
REMARK  status: ('A' for Active; 'I' for Inactive)
REMARK    1  A    between atoms: C_5  and  C_1 
REMARK    2  A    between atoms: C_2  and  C_5 
REMARK    3  A    between atoms: C_12  and  C_5 
ROOT
ATOM      1  C   UNL d   1     -55.546-100.311 -44.095  0.00  0.00     0.021 C 
ENDROOT
BRANCH   1   2
ATOM      2  C   UNL d   1     -56.032 -99.738 -44.436  0.00  0.00     0.021 A 
ATOM      3  C   UNL d   1     -55.890 -99.184 -45.048  0.00  0.00     0.082 A 
ATOM      4  N   UNL d   1     -56.588 -98.757 -45.147  0.00  0.00    -0.246 NA
ATOM      5  C   UNL d   1     -55.188 -99.076 -45.477  0.00  0.00     0.021 C 
ATOM      6  C   UNL d   1     -57.151 -99.034 -44.615  0.00  0.00     0.081 A 
ATOM      7  C   UNL d   1     -56.800 -99.639 -44.180  0.00  0.00     0.019 A 
ATOM      8  C   UNL d   1     -57.938 -98.827 -44.457  0.00  0.00     0.019 A 
ATOM      9  C   UNL d   1     -57.228-100.033 -43.594  0.00  0.00     0.002 A 
ATOM     10  C   UNL d   1     -58.012 -99.830 -43.434  0.00  0.00     0.000 A 
ATOM     11  C   UNL d   1     -58.348 -99.237 -43.864  0.00  0.00     0.002 A 
ENDBRANCH   1   2
BRANCH   1  12
ATOM     12  C   UNL d   1     -55.242-100.204 -43.326  0.00  0.00     0.021 A 
ATOM     13  C   UNL d   1     -54.958 -99.495 -43.032  0.00  0.00     0.082 A 
ATOM     14  N   UNL d   1     -54.712 -99.625 -42.256  0.00  0.00    -0.246 NA
ATOM     15  C   UNL d   1     -54.921 -98.758 -43.449  0.00  0.00     0.021 C 
ATOM     16  C   UNL d   1     -54.847-100.415 -42.076  0.00  0.00     0.081 A 
ATOM     17  C   UNL d   1     -55.174-100.772 -42.736  0.00  0.00     0.019 A 
ATOM     18  C   UNL d   1     -54.713-100.857 -41.391  0.00  0.00     0.019 A 
ATOM     19  C   UNL d   1     -55.370-101.575 -42.717  0.00  0.00     0.002 A 
ATOM     20  C   UNL d   1     -55.235-102.018 -42.031  0.00  0.00     0.000 A 
ATOM     21  C   UNL d   1     -54.908-101.661 -41.370  0.00  0.00     0.002 A 
ENDBRANCH   1  12
BRANCH   1  22
ATOM     22  C   UNL d   1     -55.353-100.990 -44.505  0.00  0.00     0.082 A 
ATOM     23  N   UNL d   1     -54.918-100.947 -45.193  0.00  0.00    -0.244 NA
ATOM     24  C   UNL d   1     -54.722-101.626 -45.607  0.00  0.00     0.099 A 
ATOM     25  C   UNL d   1     -54.981-102.368 -45.305  0.00  0.00     0.021 A 
ATOM     26  C   UNL d   1     -55.403-102.403 -44.637  0.00  0.00     0.003 A 
ATOM     27  C   UNL d   1     -55.601-101.730 -44.220  0.00  0.00     0.019 A 
ENDBRANCH   1  22
TORSDOF 3
ENDMDL
