MODEL 1
REMARK VINA RESULT:       2.6      0.000      0.000
REMARK  0 active torsions:
REMARK  status: ('A' for Active; 'I' for Inactive)
ROOT
ATOM      1  C   UNL d   1      46.357 -18.196  42.363  0.00  0.00     0.110 A 
ATOM      2  C   UNL d   1      46.453 -18.912  41.965  0.00  0.00     0.110 A 
ATOM      3  C   UNL d   1      46.355 -18.173  43.192  0.00  0.00     0.207 A 
ATOM      4  C   UNL d   1      46.547 -19.605  42.396  0.00  0.00     0.207 A 
ATOM      5  C   UNL d   1      46.450 -18.873  43.603  0.00  0.00     0.043 A 
ATOM      6  C   UNL d   1      46.546 -19.589  43.205  0.00  0.00     0.043 A 
ATOM      7  O   UNL d   1      46.260 -17.464  43.586  0.00  0.00    -0.286 OA
ATOM      8  O   UNL d   1      46.644 -20.324  42.002  0.00  0.00    -0.286 OA
ATOM      9 CL   UNL d   1      46.453 -18.924  41.148  0.00  0.00    -0.078 Cl
ATOM     10 CL   UNL d   1      46.262 -17.497  41.935  0.00  0.00    -0.078 Cl
ATOM     11  C   UNL d   1      46.448 -18.849  44.432  0.00  0.00     0.003 A 
ATOM     12  C   UNL d   1      46.640 -20.276  43.655  0.00  0.00     0.003 A 
ATOM     13  C   UNL d   1      46.543 -19.545  44.862  0.00  0.00     0.000 A 
ATOM     14  C   UNL d   1      46.641 -20.279  44.470  0.00  0.00     0.000 A 
ENDROOT
TORSDOF 0
ENDMDL
