MODEL 1
REMARK VINA RESULT:      14.8      0.000      0.000
REMARK  5 active torsions:
REMARK  status: ('A' for Active; 'I' for Inactive)
REMARK    1  A    between atoms: N_2  and  S_1 
REMARK    2  A    between atoms: C_7  and  S_1 
REMARK    3  A    between atoms: C_3  and  N_2 
REMARK       I    between atoms: C_11  and  N_12 
REMARK    4  A    between atoms: C_19  and  C_11 
REMARK    5  A    between atoms: N_12  and  C_16 
ROOT
ATOM      1  C   UNL d   1      45.521 -15.171  44.920  0.00  0.00     0.105 A 
ATOM      2  C   UNL d   1      46.285 -15.495  44.954  0.00  0.00     0.015 A 
ATOM      3  C   UNL d   1      44.873 -15.633  44.880  0.00  0.00     0.015 A 
ATOM      4  C   UNL d   1      45.741 -16.787  44.906  0.00  0.00     0.085 A 
ATOM      5  C   UNL d   1      46.385 -16.301  44.946  0.00  0.00     0.020 A 
ATOM      6  C   UNL d   1      44.977 -16.461  44.872  0.00  0.00     0.020 A 
ENDROOT
BRANCH   1   7
ATOM      7  S   UNL d   1      45.428 -14.335  44.929  0.00  0.00     0.287 S 
ATOM      8  O   UNL d   1      46.273 -14.230  44.955  0.00  0.00    -0.198 OA
ATOM      9  O   UNL d   1      44.609 -14.428  44.904  0.00  0.00    -0.198 OA
BRANCH   7  10
ATOM     10  N   UNL d   1      45.331 -13.507  44.937  0.00  0.00    -0.137 NA
BRANCH  10  11
ATOM     11  C   UNL d   1      45.323 -13.077  44.221  0.00  0.00     0.203 A 
ATOM     12  N   UNL d   1      45.966 -12.611  44.034  0.00  0.00    -0.106 NA
ATOM     13  O   UNL d   1      45.790 -12.262  43.298  0.00  0.00    -0.210 OA
ATOM     14  C   UNL d   1      45.058 -12.516  43.055  0.00  0.00     0.128 A 
ATOM     15  C   UNL d   1      44.754 -13.036  43.638  0.00  0.00     0.069 A 
ATOM     16  C   UNL d   1      44.678 -12.301  42.357  0.00  0.00     0.029 C 
ENDBRANCH  10  11
ENDBRANCH   7  10
ENDBRANCH   1   7
BRANCH   4  17
ATOM     17  N   UNL d   1      45.836 -17.615  44.897  0.00  0.00    -0.208 NA
ATOM     18  C   UNL d   1      46.054 -17.997  44.208  0.00  0.00     0.279 C 
ATOM     19  O   UNL d   1      46.148 -18.820  44.199  0.00  0.00    -0.265 OA
BRANCH  18  20
ATOM     20  C   UNL d   1      46.177 -17.562  43.528  0.00  0.00     0.062 C 
ATOM     21  C   UNL d   1      46.307 -17.948  42.791  0.00  0.00     0.005 C 
ENDBRANCH  18  20
ENDBRANCH   4  17
TORSDOF 5
ENDMDL
MODEL 2
REMARK VINA RESULT:      17.4      1.120      4.360
REMARK  5 active torsions:
REMARK  status: ('A' for Active; 'I' for Inactive)
REMARK    1  A    between atoms: N_2  and  S_1 
REMARK    2  A    between atoms: C_7  and  S_1 
REMARK    3  A    between atoms: C_3  and  N_2 
REMARK       I    between atoms: C_11  and  N_12 
REMARK    4  A    between atoms: C_19  and  C_11 
REMARK    5  A    between atoms: N_12  and  C_16 
ROOT
ATOM      1  C   UNL d   1      45.855 -15.793  44.617  0.00  0.00     0.105 A 
ATOM      2  C   UNL d   1      45.231 -15.363  44.955  0.00  0.00     0.015 A 
ATOM      3  C   UNL d   1      46.483 -15.430  44.288  0.00  0.00     0.015 A 
ATOM      4  C   UNL d   1      45.878 -14.163  44.626  0.00  0.00     0.085 A 
ATOM      5  C   UNL d   1      45.250 -14.551  44.955  0.00  0.00     0.020 A 
ATOM      6  C   UNL d   1      46.502 -14.595  44.288  0.00  0.00     0.020 A 
ENDROOT
BRANCH   1   7
ATOM      7  S   UNL d   1      45.825 -16.634  44.622  0.00  0.00     0.287 S 
ATOM      8  O   UNL d   1      46.611 -16.672  44.947  0.00  0.00    -0.198 OA
ATOM      9  O   UNL d   1      45.062 -16.606  44.308  0.00  0.00    -0.198 OA
BRANCH   7  10
ATOM     10  N   UNL d   1      45.789 -17.467  44.625  0.00  0.00    -0.137 NA
BRANCH  10  11
ATOM     11  C   UNL d   1      46.030 -17.900  43.953  0.00  0.00     0.203 A 
ATOM     12  N   UNL d   1      46.102 -18.711  44.011  0.00  0.00    -0.106 NA
ATOM     13  O   UNL d   1      46.346 -18.975  43.260  0.00  0.00    -0.210 OA
ATOM     14  C   UNL d   1      46.418 -18.332  42.767  0.00  0.00     0.128 A 
ATOM     15  C   UNL d   1      46.218 -17.645  43.201  0.00  0.00     0.069 A 
ATOM     16  C   UNL d   1      46.647 -18.353  41.977  0.00  0.00     0.029 C 
ENDBRANCH  10  11
ENDBRANCH   7  10
ENDBRANCH   1   7
BRANCH   4  17
ATOM     17  N   UNL d   1      45.905 -13.329  44.622  0.00  0.00    -0.208 NA
ATOM     18  C   UNL d   1      45.519 -12.908  44.037  0.00  0.00     0.279 C 
ATOM     19  O   UNL d   1      45.546 -12.081  44.034  0.00  0.00    -0.265 OA
BRANCH  18  20
ATOM     20  C   UNL d   1      45.107 -13.308  43.458  0.00  0.00     0.062 C 
ATOM     21  C   UNL d   1      44.762 -12.892  42.813  0.00  0.00     0.005 C 
ENDBRANCH  18  20
ENDBRANCH   4  17
TORSDOF 5
ENDMDL
