MODEL 1
REMARK VINA RESULT:      25.2      0.000      0.000
REMARK  3 active torsions:
REMARK  status: ('A' for Active; 'I' for Inactive)
REMARK    1  A    between atoms: C_6  and  C_1 
REMARK    2  A    between atoms: C_8  and  C_3 
REMARK    3  A    between atoms: C_9  and  C_4 
ROOT
ATOM      1  C   UNL d   1      46.312 -19.262  43.477  0.00  0.00     0.306 A 
ATOM      2  N   UNL d   1      46.451 -18.584  43.917  0.00  0.00    -0.152 NA
ATOM      3  C   UNL d   1      46.181 -19.208  42.664  0.00  0.00     0.114 A 
ATOM      4  C   UNL d   1      46.188 -18.477  42.286  0.00  0.00     0.094 A 
ATOM      5  C   UNL d   1      46.459 -17.853  43.547  0.00  0.00     0.371 A 
ATOM      6  N   UNL d   1      46.327 -17.799  42.734  0.00  0.00    -0.191 NA
ATOM      7  O   UNL d   1      46.598 -17.167  43.987  0.00  0.00    -0.242 OA
ATOM      8  O   UNL d   1      46.173 -19.943  43.033  0.00  0.00    -0.266 OA
ENDROOT
BRANCH   4   9
ATOM      9  C   UNL d   1      46.057 -18.423  41.478  0.00  0.00     0.018 A 
ATOM     10  C   UNL d   1      45.339 -18.135  41.191  0.00  0.00     0.004 A 
ATOM     11  C   UNL d   1      45.207 -18.081  40.374  0.00  0.00     0.030 A 
ATOM     12  C   UNL d   1      45.790 -18.314  39.848  0.00  0.00     0.140 A 
ATOM     13  C   UNL d   1      46.517 -18.606  40.137  0.00  0.00     0.030 A 
ATOM     14  F   UNL d   1      45.660 -18.261  39.039  0.00  0.00    -0.204 F 
ATOM     15  C   UNL d   1      46.639 -18.656  40.947  0.00  0.00     0.004 A 
ENDBRANCH   4   9
BRANCH   3  16
ATOM     16  C   UNL d   1      46.042 -19.890  42.225  0.00  0.00     0.202 C 
ATOM     17  O   UNL d   1      46.646 -20.228  41.768  0.00  0.00    -0.286 OA
ATOM     18  C   UNL d   1      45.293 -20.245  42.235  0.00  0.00     0.045 C 
ENDBRANCH   3  16
BRANCH   1  19
ATOM     19  C   UNL d   1      46.417 -19.528  44.251  0.00  0.00     0.470 C 
ATOM     20  F   UNL d   1      46.514 -19.748  44.953  0.00  0.00    -0.162 F 
ATOM     21  F   UNL d   1      46.612 -19.065  44.953  0.00  0.00    -0.162 F 
ATOM     22  F   UNL d   1      46.362 -20.322  44.570  0.00  0.00    -0.162 F 
ENDBRANCH   1  19
TORSDOF 3
ENDMDL
MODEL 2
REMARK VINA RESULT:      28.1      4.191      5.652
REMARK  3 active torsions:
REMARK  status: ('A' for Active; 'I' for Inactive)
REMARK    1  A    between atoms: C_6  and  C_1 
REMARK    2  A    between atoms: C_8  and  C_3 
REMARK    3  A    between atoms: C_9  and  C_4 
ROOT
ATOM      1  C   UNL d   1      44.998 -13.577  43.832  0.00  0.00     0.306 A 
ATOM      2  N   UNL d   1      44.179 -13.543  43.853  0.00  0.00    -0.152 NA
ATOM      3  C   UNL d   1      45.386 -14.293  43.960  0.00  0.00     0.114 A 
ATOM      4  C   UNL d   1      44.959 -14.981  44.110  0.00  0.00     0.094 A 
ATOM      5  C   UNL d   1      43.748 -14.224  44.001  0.00  0.00     0.371 A 
ATOM      6  N   UNL d   1      44.136 -14.941  44.129  0.00  0.00    -0.191 NA
ATOM      7  O   UNL d   1      42.921 -14.195  44.023  0.00  0.00    -0.242 OA
ATOM      8  O   UNL d   1      45.822 -13.612  43.811  0.00  0.00    -0.266 OA
ENDROOT
BRANCH   4   9
ATOM      9  C   UNL d   1      45.345 -15.694  44.237  0.00  0.00     0.018 A 
ATOM     10  C   UNL d   1      45.920 -15.755  44.825  0.00  0.00     0.004 A 
ATOM     11  C   UNL d   1      46.311 -16.476  44.954  0.00  0.00     0.030 A 
ATOM     12  C   UNL d   1      46.126 -17.130  44.496  0.00  0.00     0.140 A 
ATOM     13  C   UNL d   1      45.545 -17.069  43.901  0.00  0.00     0.030 A 
ATOM     14  F   UNL d   1      46.513 -17.843  44.624  0.00  0.00    -0.204 F 
ATOM     15  C   UNL d   1      45.163 -16.352  43.780  0.00  0.00     0.004 A 
ENDBRANCH   4   9
BRANCH   3  16
ATOM     16  C   UNL d   1      46.208 -14.325  43.939  0.00  0.00     0.202 C 
ATOM     17  O   UNL d   1      46.609 -14.397  43.216  0.00  0.00    -0.286 OA
ATOM     18  C   UNL d   1      46.644 -14.284  44.643  0.00  0.00     0.045 C 
ENDBRANCH   3  16
BRANCH   1  19
ATOM     19  C   UNL d   1      44.814 -12.787  43.683  0.00  0.00     0.470 C 
ATOM     20  F   UNL d   1      44.643 -12.081  43.529  0.00  0.00    -0.162 F 
ATOM     21  F   UNL d   1      44.536 -12.433  42.946  0.00  0.00    -0.162 F 
ATOM     22  F   UNL d   1      44.845 -12.108  44.205  0.00  0.00    -0.162 F 
ENDBRANCH   1  19
TORSDOF 3
ENDMDL
