MODEL 1
REMARK VINA RESULT:      89.1      0.000      0.000
REMARK  5 active torsions:
REMARK  status: ('A' for Active; 'I' for Inactive)
REMARK    1  A    between atoms: C_17  and  N_5 
REMARK    2  A    between atoms: S_14  and  C_6 
REMARK    3  A    between atoms: C_11  and  C_18 
REMARK    4  A    between atoms: C_18  and  S_14 
REMARK    5  A    between atoms: C_19  and  C_17 
ROOT
ATOM      1  C   UNL d   1     -56.389-100.399 -43.951  0.00  0.00     0.081 A 
ATOM      2  C   UNL d   1     -56.386-100.302 -43.127  0.00  0.00     0.117 A 
ATOM      3  N   UNL d   1     -55.832-100.706 -42.665  0.00  0.00    -0.215 NA
ATOM      4  C   UNL d   1     -55.842-100.897 -44.314  0.00  0.00     0.268 A 
ATOM      5  N   UNL d   1     -55.282-101.306 -43.852  0.00  0.00    -0.253 N 
ATOM      6  C   UNL d   1     -55.281-101.207 -43.028  0.00  0.00     0.182 A 
ATOM      7  S   UNL d   1     -56.988 -99.779 -42.934  0.00  0.00    -0.068 SA
ATOM      8  C   UNL d   1     -56.996 -99.933 -44.262  0.00  0.00     0.013 A 
ATOM      9  C   UNL d   1     -57.365 -99.551 -43.635  0.00  0.00     0.031 A 
ATOM     10  O   UNL d   1     -55.844-100.993 -45.125  0.00  0.00    -0.267 OA
ATOM     11  C   UNL d   1     -57.165 -99.889 -45.065  0.00  0.00     0.001 A 
ATOM     12  C   UNL d   1     -58.001 -99.025 -43.652  0.00  0.00     0.006 A 
ATOM     13  C   UNL d   1     -57.750 -99.450 -45.446  0.00  0.00     0.000 A 
ATOM     14  C   UNL d   1     -58.421 -98.755 -44.306  0.00  0.00     0.001 A 
ATOM     15  C   UNL d   1     -58.315 -98.940 -45.107  0.00  0.00     0.000 A 
ENDROOT
BRANCH   6  16
ATOM     16  S   UNL d   1     -54.723-101.615 -42.567  0.00  0.00    -0.048 SA
BRANCH  16  17
ATOM     17  C   UNL d   1     -54.892-102.369 -42.290  0.00  0.00     0.058 C 
BRANCH  17  18
ATOM     18  C   UNL d   1     -55.165-102.475 -41.516  0.00  0.00     0.095 A 
ATOM     19  N   UNL d   1     -55.928-102.634 -41.294  0.00  0.00    -0.238 NA
ATOM     20  C   UNL d   1     -55.943-102.694 -40.478  0.00  0.00     0.111 A 
ATOM     21  C   UNL d   1     -56.588-102.848 -40.006  0.00  0.00     0.028 C 
ATOM     22  S   UNL d   1     -55.191-102.572 -40.205  0.00  0.00    -0.066 SA
ATOM     23  C   UNL d   1     -54.711-102.437 -40.841  0.00  0.00     0.057 A 
ENDBRANCH  17  18
ENDBRANCH  16  17
ENDBRANCH   6  16
BRANCH   5  24
ATOM     24  C   UNL d   1     -54.733-101.804 -44.202  0.00  0.00     0.085 C 
BRANCH  24  25
ATOM     25  C   UNL d   1     -54.774-101.948 -45.027  0.00  0.00     0.019 C 
ATOM     26  C   UNL d   1     -54.714-102.718 -45.317  0.00  0.00     0.002 C 
ENDBRANCH  24  25
ENDBRANCH   5  24
TORSDOF 5
ENDMDL
