MODEL 1
REMARK VINA RESULT:      -3.6      0.000      0.000
REMARK  4 active torsions:
REMARK  status: ('A' for Active; 'I' for Inactive)
REMARK    1  A    between atoms: C_7  and  C_2 
REMARK    2  A    between atoms: C_6  and  C_3 
REMARK    3  A    between atoms: C_11  and  C_6 
REMARK    4  A    between atoms: N_10  and  C_9 
ROOT
ATOM      1  N   UNL d   1     -41.468-122.605 -53.010  0.00  0.00    -0.220 NA
ATOM      2  C   UNL d   1     -41.755-122.293 -53.724  0.00  0.00     0.161 A 
ATOM      3  C   UNL d   1     -41.391-121.977 -52.478  0.00  0.00     0.146 A 
ATOM      4  O   UNL d   1     -41.852-121.478 -53.623  0.00  0.00    -0.257 OA
ATOM      5  C   UNL d   1     -41.628-121.283 -52.856  0.00  0.00     0.319 A 
ATOM      6  O   UNL d   1     -41.635-120.527 -52.514  0.00  0.00    -0.257 OA
ENDROOT
BRANCH   3   7
ATOM      7  C   UNL d   1     -41.123-122.036 -51.700  0.00  0.00     0.025 C 
BRANCH   7   8
ATOM      8  C   UNL d   1     -41.582-122.435 -51.129  0.00  0.00     0.002 A 
ATOM      9  C   UNL d   1     -42.107-122.010 -50.665  0.00  0.00     0.002 A 
ATOM     10  C   UNL d   1     -42.563-122.390 -50.101  0.00  0.00     0.018 A 
ATOM     11  C   UNL d   1     -42.489-123.214 -50.003  0.00  0.00     0.064 A 
ATOM     12  C   UNL d   1     -41.958-123.641 -50.473  0.00  0.00     0.018 A 
ATOM     13  C   UNL d   1     -41.507-123.251 -51.034  0.00  0.00     0.002 A 
BRANCH  11  14
ATOM     14  N   UNL d   1     -42.940-123.604 -49.442  0.00  0.00    -0.301 N 
ATOM     15  C   UNL d   1     -42.617-123.809 -48.714  0.00  0.00     0.100 C 
ATOM     16  C   UNL d   1     -43.728-123.793 -49.609  0.00  0.00     0.100 C 
ENDBRANCH  11  14
ENDBRANCH   7   8
ENDBRANCH   3   7
BRANCH   2  17
ATOM     17  C   UNL d   1     -41.913-122.718 -54.400  0.00  0.00     0.058 C 
ATOM     18  C   UNL d   1     -42.404-122.412 -54.974  0.00  0.00     0.008 C 
ATOM     19  C   UNL d   1     -42.119-123.082 -55.105  0.00  0.00     0.008 C 
ATOM     20  C   UNL d   1     -41.573-123.463 -54.506  0.00  0.00     0.008 C 
ENDBRANCH   2  17
TORSDOF 4
ENDMDL
MODEL 2
REMARK VINA RESULT:      -2.9      1.088      4.090
REMARK  4 active torsions:
REMARK  status: ('A' for Active; 'I' for Inactive)
REMARK    1  A    between atoms: C_7  and  C_2 
REMARK    2  A    between atoms: C_6  and  C_3 
REMARK    3  A    between atoms: C_11  and  C_6 
REMARK    4  A    between atoms: N_10  and  C_9 
ROOT
ATOM      1  N   UNL d   1     -42.046-123.109 -50.766  0.00  0.00    -0.220 NA
ATOM      2  C   UNL d   1     -42.554-122.859 -50.159  0.00  0.00     0.161 A 
ATOM      3  C   UNL d   1     -41.674-122.438 -51.071  0.00  0.00     0.146 A 
ATOM      4  O   UNL d   1     -42.488-122.036 -50.098  0.00  0.00    -0.257 OA
ATOM      5  C   UNL d   1     -41.946-121.777 -50.659  0.00  0.00     0.319 A 
ATOM      6  O   UNL d   1     -41.709-120.993 -50.795  0.00  0.00    -0.257 OA
ENDROOT
BRANCH   3   7
ATOM      7  C   UNL d   1     -41.123-122.431 -51.685  0.00  0.00     0.025 C 
BRANCH   7   8
ATOM      8  C   UNL d   1     -41.377-122.500 -52.476  0.00  0.00     0.002 A 
ATOM      9  C   UNL d   1     -41.263-123.205 -52.876  0.00  0.00     0.002 A 
ATOM     10  C   UNL d   1     -41.508-123.286 -53.654  0.00  0.00     0.018 A 
ATOM     11  C   UNL d   1     -41.876-122.642 -54.034  0.00  0.00     0.064 A 
ATOM     12  C   UNL d   1     -41.991-121.931 -53.628  0.00  0.00     0.018 A 
ATOM     13  C   UNL d   1     -41.741-121.861 -52.850  0.00  0.00     0.002 A 
BRANCH  11  14
ATOM     14  N   UNL d   1     -42.126-122.712 -54.811  0.00  0.00    -0.301 N 
ATOM     15  C   UNL d   1     -42.257-123.452 -55.144  0.00  0.00     0.100 C 
ATOM     16  C   UNL d   1     -42.247-122.030 -55.265  0.00  0.00     0.100 C 
ENDBRANCH  11  14
ENDBRANCH   7   8
ENDBRANCH   3   7
BRANCH   2  17
ATOM     17  C   UNL d   1     -43.030-123.340 -49.707  0.00  0.00     0.058 C 
ATOM     18  C   UNL d   1     -42.809-123.546 -48.950  0.00  0.00     0.008 C 
ATOM     19  C   UNL d   1     -43.453-123.817 -49.192  0.00  0.00     0.008 C 
ATOM     20  C   UNL d   1     -43.742-123.622 -50.017  0.00  0.00     0.008 C 
ENDBRANCH   2  17
TORSDOF 4
ENDMDL
