MODEL 1
REMARK VINA RESULT:      35.1      0.000      0.000
REMARK  3 active torsions:
REMARK  status: ('A' for Active; 'I' for Inactive)
REMARK    1  A    between atoms: S_6  and  C_1 
REMARK    2  A    between atoms: C_3  and  C_9 
REMARK       I    between atoms: N_4  and  C_3 
REMARK    3  A    between atoms: C_9  and  S_6 
ROOT
ATOM      1  C   UNL d   1      58.061  49.702  50.828  0.00  0.00     0.114 A 
ATOM      2  C   UNL d   1      57.439  49.701  50.292  0.00  0.00     0.042 A 
ATOM      3  N   UNL d   1      57.902  49.701  51.638  0.00  0.00    -0.217 NA
ATOM      4  N   UNL d   1      56.497  49.696  51.366  0.00  0.00    -0.224 NA
ATOM      5  C   UNL d   1      57.120  49.698  51.907  0.00  0.00     0.200 A 
ATOM      6  C   UNL d   1      56.657  49.698  50.561  0.00  0.00     0.085 A 
ATOM      7  C   UNL d   1      57.598  49.702  49.482  0.00  0.00     0.004 A 
ATOM      8  C   UNL d   1      56.034  49.696  50.020  0.00  0.00     0.019 A 
ATOM      9  C   UNL d   1      56.974  49.700  48.941  0.00  0.00     0.000 A 
ATOM     10  C   UNL d   1      56.192  49.697  49.210  0.00  0.00     0.002 A 
ENDROOT
BRANCH   1  11
ATOM     11  S   UNL d   1      58.842  49.705  50.559  0.00  0.00    -0.062 SA
BRANCH  11  12
ATOM     12  C   UNL d   1      59.409  49.246  50.930  0.00  0.00     0.098 C 
BRANCH  12  13
ATOM     13  C   UNL d   1      60.136  49.101  50.566  0.00  0.00     0.271 C 
ATOM     14  N   UNL d   1      60.589  48.439  50.787  0.00  0.00    -0.272 N 
ATOM     15  C   UNL d   1      60.389  47.889  51.351  0.00  0.00     0.083 A 
ATOM     16  C   UNL d   1      61.319  48.228  50.472  0.00  0.00     0.083 A 
ATOM     17  C   UNL d   1      60.995  47.326  51.394  0.00  0.00     0.021 A 
ATOM     18  C   UNL d   1      61.567  47.548  50.843  0.00  0.00     0.021 A 
ATOM     19  O   UNL d   1      60.409  49.606  49.989  0.00  0.00    -0.266 OA
ENDBRANCH  12  13
ENDBRANCH  11  12
ENDBRANCH   1  11
TORSDOF 3
ENDMDL
MODEL 2
REMARK VINA RESULT:      35.9      1.330      4.131
REMARK  3 active torsions:
REMARK  status: ('A' for Active; 'I' for Inactive)
REMARK    1  A    between atoms: S_6  and  C_1 
REMARK    2  A    between atoms: C_3  and  C_9 
REMARK       I    between atoms: N_4  and  C_3 
REMARK    3  A    between atoms: C_9  and  S_6 
ROOT
ATOM      1  C   UNL d   1      59.994  49.495  50.624  0.00  0.00     0.114 A 
ATOM      2  C   UNL d   1      60.356  49.497  51.362  0.00  0.00     0.042 A 
ATOM      3  N   UNL d   1      60.432  49.287  49.956  0.00  0.00    -0.217 NA
ATOM      4  N   UNL d   1      61.589  49.083  50.772  0.00  0.00    -0.224 NA
ATOM      5  C   UNL d   1      61.229  49.081  50.030  0.00  0.00     0.200 A 
ATOM      6  C   UNL d   1      61.153  49.291  51.436  0.00  0.00     0.085 A 
ATOM      7  C   UNL d   1      59.918  49.705  52.030  0.00  0.00     0.004 A 
ATOM      8  C   UNL d   1      61.513  49.293  52.178  0.00  0.00     0.019 A 
ATOM      9  C   UNL d   1      60.279  49.708  52.772  0.00  0.00     0.000 A 
ATOM     10  C   UNL d   1      61.077  49.501  52.846  0.00  0.00     0.002 A 
ENDROOT
BRANCH   1  11
ATOM     11  S   UNL d   1      59.198  49.701  50.550  0.00  0.00    -0.062 SA
BRANCH  11  12
ATOM     12  C   UNL d   1      58.647  49.144  50.313  0.00  0.00     0.098 C 
BRANCH  12  13
ATOM     13  C   UNL d   1      57.915  49.380  50.011  0.00  0.00     0.271 C 
ATOM     14  N   UNL d   1      57.261  49.462  50.518  0.00  0.00    -0.272 N 
ATOM     15  C   UNL d   1      57.258  49.330  51.321  0.00  0.00     0.083 A 
ATOM     16  C   UNL d   1      56.503  49.692  50.294  0.00  0.00     0.083 A 
ATOM     17  C   UNL d   1      56.495  49.477  51.607  0.00  0.00     0.021 A 
ATOM     18  C   UNL d   1      56.035  49.700  50.960  0.00  0.00     0.021 A 
ATOM     19  O   UNL d   1      57.834  49.532  49.215  0.00  0.00    -0.266 OA
ENDBRANCH  12  13
ENDBRANCH  11  12
ENDBRANCH   1  11
TORSDOF 3
ENDMDL
