MODEL 1
REMARK VINA RESULT:      47.2      0.000      0.000
REMARK  3 active torsions:
REMARK  status: ('A' for Active; 'I' for Inactive)
REMARK    1  A    between atoms: C_9  and  C_3 
REMARK    2  A    between atoms: C_8  and  C_5 
REMARK    3  A    between atoms: O_19  and  C_9 
ROOT
ATOM      1  N   UNL d   1     -58.717 -98.834 -43.621  0.00  0.00    -0.278 N 
ATOM      2  C   UNL d   1     -58.296 -98.822 -42.912  0.00  0.00     0.178 A 
ATOM      3  C   UNL d   1     -57.488 -98.900 -44.350  0.00  0.00     0.075 A 
ATOM      4  N   UNL d   1     -57.460 -98.849 -42.909  0.00  0.00    -0.223 NA
ATOM      5  C   UNL d   1     -58.308 -98.873 -44.336  0.00  0.00     0.178 A 
ATOM      6  C   UNL d   1     -57.066 -98.889 -43.641  0.00  0.00     0.086 A 
ATOM      7  C   UNL d   1     -59.537 -98.806 -43.607  0.00  0.00     0.263 A 
ATOM      8  S   UNL d   1     -58.689 -98.783 -42.180  0.00  0.00    -0.050 SA
ATOM      9  C   UNL d   1     -59.950 -98.767 -42.890  0.00  0.00     0.068 A 
ATOM     10  O   UNL d   1     -59.958 -98.818 -44.315  0.00  0.00    -0.267 OA
ATOM     11  C   UNL d   1     -59.528 -98.755 -42.180  0.00  0.00     0.043 A 
ATOM     12  C   UNL d   1     -56.201 -98.917 -43.635  0.00  0.00     0.021 C 
ENDROOT
BRANCH   5  13
ATOM     13  C   UNL d   1     -58.728 -98.885 -45.044  0.00  0.00     0.024 A 
ATOM     14  S   UNL d   1     -59.535 -98.907 -45.216  0.00  0.00    -0.089 SA
ATOM     15  C   UNL d   1     -59.625 -98.909 -46.025  0.00  0.00     0.035 A 
ATOM     16  C   UNL d   1     -58.889 -98.889 -46.354  0.00  0.00     0.007 A 
ATOM     17  C   UNL d   1     -58.333 -98.874 -45.774  0.00  0.00     0.004 A 
ENDBRANCH   5  13
BRANCH   3  18
ATOM     18  C   UNL d   1     -57.058 -98.940 -45.077  0.00  0.00     0.295 C 
ATOM     19  O   UNL d   1     -57.449 -98.755 -45.779  0.00  0.00    -0.259 OA
BRANCH  18  20
ATOM     20  O   UNL d   1     -56.268 -99.158 -45.098  0.00  0.00    -0.296 OA
ATOM     21  C   UNL d   1     -55.951 -99.647 -44.519  0.00  0.00     0.185 C 
ENDBRANCH  18  20
ENDBRANCH   3  18
TORSDOF 3
ENDMDL
