MODEL 1
REMARK VINA RESULT:       1.2      0.000      0.000
REMARK  6 active torsions:
REMARK  status: ('A' for Active; 'I' for Inactive)
REMARK    1  A    between atoms: C_6  and  C_1 
REMARK    2  A    between atoms: N_4  and  C_2 
REMARK       I    between atoms: C_8  and  N_4 
REMARK    3  A    between atoms: C_11  and  C_8 
REMARK    4  A    between atoms: O_22  and  C_10 
REMARK    5  A    between atoms: O_24  and  C_12 
REMARK    6  A    between atoms: O_23  and  C_13 
ROOT
ATOM      1  C   UNL d   1      32.832  20.194 -22.445  0.00  0.00     0.080 A 
ATOM      2  C   UNL d   1      32.890  20.458 -23.225  0.00  0.00     0.188 A 
ATOM      3  C   UNL d   1      32.817  19.384 -22.285  0.00  0.00     0.201 A 
ATOM      4  O   UNL d   1      32.933  19.912 -23.844  0.00  0.00    -0.289 OA
ATOM      5  C   UNL d   1      32.859  18.840 -22.902  0.00  0.00     0.062 A 
ATOM      6  C   UNL d   1      32.917  19.105 -23.682  0.00  0.00     0.105 A 
ATOM      7  O   UNL d   1      32.759  19.120 -21.505  0.00  0.00    -0.286 OA
ATOM      8  C   UNL d   1      32.844  18.033 -22.741  0.00  0.00     0.005 A 
ATOM      9  C   UNL d   1      32.960  18.561 -24.300  0.00  0.00     0.025 A 
ATOM     10  C   UNL d   1      32.887  17.483 -23.360  0.00  0.00     0.000 A 
ATOM     11  C   UNL d   1      32.944  17.747 -24.139  0.00  0.00     0.002 A 
ENDROOT
BRANCH   1  12
ATOM     12  C   UNL d   1      32.790  20.738 -21.828  0.00  0.00     0.011 A 
ATOM     13  C   UNL d   1      32.503  21.496 -21.968  0.00  0.00     0.027 A 
ATOM     14  C   UNL d   1      32.458  22.047 -21.348  0.00  0.00     0.118 A 
ATOM     15  C   UNL d   1      32.705  21.830 -20.586  0.00  0.00     0.138 A 
ATOM     16  C   UNL d   1      32.995  21.064 -20.449  0.00  0.00     0.118 A 
ATOM     17  C   UNL d   1      33.037  20.521 -21.066  0.00  0.00     0.027 A 
BRANCH  14  18
ATOM     18  O   UNL d   1      32.167  22.811 -21.494  0.00  0.00    -0.326 OA
ATOM     19  C   UNL d   1      31.438  23.050 -21.178  0.00  0.00     0.181 C 
ENDBRANCH  14  18
BRANCH  15  20
ATOM     20  O   UNL d   1      32.664  22.375 -19.960  0.00  0.00    -0.324 OA
ATOM     21  C   UNL d   1      32.045  22.336 -19.410  0.00  0.00     0.182 C 
ENDBRANCH  15  20
BRANCH  16  22
ATOM     22  O   UNL d   1      33.240  20.848 -19.692  0.00  0.00    -0.326 OA
ATOM     23  C   UNL d   1      33.094  20.087 -19.411  0.00  0.00     0.181 C 
ENDBRANCH  16  22
ENDBRANCH   1  12
BRANCH   2  24
ATOM     24  N   UNL d   1      32.906  21.276 -23.392  0.00  0.00    -0.182 NA
ATOM     25  C   UNL d   1      33.067  21.535 -24.163  0.00  0.00     0.304 C 
ATOM     26  O   UNL d   1      33.213  20.993 -24.766  0.00  0.00    -0.263 OA
BRANCH  25  27
ATOM     27  C   UNL d   1      33.082  22.349 -24.323  0.00  0.00     0.158 A 
ATOM     28  O   UNL d   1      33.003  23.007 -23.839  0.00  0.00    -0.300 OA
ATOM     29  C   UNL d   1      33.065  23.681 -24.310  0.00  0.00     0.123 A 
ATOM     30  C   UNL d   1      33.183  23.435 -25.093  0.00  0.00     0.029 A 
ATOM     31  C   UNL d   1      33.193  22.614 -25.097  0.00  0.00     0.032 A 
ENDBRANCH  25  27
ENDBRANCH   2  24
TORSDOF 6
ENDMDL
