MODEL 1
REMARK VINA RESULT:      28.9      0.000      0.000
REMARK  6 active torsions:
REMARK  status: ('A' for Active; 'I' for Inactive)
REMARK    1  A    between atoms: C_13  and  C_3 
REMARK    2  A    between atoms: N_16  and  C_4 
REMARK    3  A    between atoms: N_11  and  C_17 
REMARK    4  A    between atoms: C_20  and  N_16 
REMARK    5  A    between atoms: C_17  and  C_18 
REMARK    6  A    between atoms: C_18  and  C_20 
ROOT
ATOM      1  C   UNL d   1      45.937 -17.623  43.700  0.00  0.00     0.167 A 
ATOM      2  N   UNL d   1      45.946 -17.113  44.348  0.00  0.00    -0.195 N 
ATOM      3  C   UNL d   1      46.361 -18.293  43.903  0.00  0.00     0.057 A 
ATOM      4  C   UNL d   1      45.561 -16.387  44.305  0.00  0.00     0.167 A 
ATOM      5  N   UNL d   1      46.376 -17.473  44.944  0.00  0.00    -0.161 NA
ATOM      6  N   UNL d   1      45.541 -17.407  43.011  0.00  0.00    -0.227 NA
ATOM      7  C   UNL d   1      45.163 -16.172  43.611  0.00  0.00     0.058 A 
ATOM      8  C   UNL d   1      46.631 -18.194  44.676  0.00  0.00     0.124 A 
ATOM      9  C   UNL d   1      45.154 -16.676  42.971  0.00  0.00     0.086 A 
ATOM     10  C   UNL d   1      44.752 -16.440  42.289  0.00  0.00     0.021 C 
ENDROOT
BRANCH   4  11
ATOM     11  N   UNL d   1      45.570 -15.877  44.953  0.00  0.00    -0.225 NA
BRANCH  11  12
ATOM     12  C   UNL d   1      45.917 -15.133  44.886  0.00  0.00     0.102 C 
BRANCH  12  13
ATOM     13  C   UNL d   1      45.453 -14.475  44.671  0.00  0.00     0.040 C 
BRANCH  13  14
ATOM     14  C   UNL d   1      45.816 -13.761  44.494  0.00  0.00     0.083 C 
BRANCH  14  15
ATOM     15  N   UNL d   1      45.448 -13.229  43.974  0.00  0.00    -0.285 N 
ATOM     16  C   UNL d   1      44.676 -13.188  43.663  0.00  0.00     0.183 A 
ATOM     17  N   UNL d   1      44.634 -12.539  43.178  0.00  0.00    -0.222 NA
ATOM     18  C   UNL d   1      45.363 -12.164  43.172  0.00  0.00     0.120 A 
ATOM     19  C   UNL d   1      45.869 -12.591  43.665  0.00  0.00     0.102 A 
ENDBRANCH  14  15
ENDBRANCH  13  14
ENDBRANCH  12  13
ENDBRANCH  11  12
ENDBRANCH   4  11
BRANCH   3  20
ATOM     20  C   UNL d   1      46.452 -18.915  43.363  0.00  0.00     0.004 A 
ATOM     21  C   UNL d   1      46.438 -19.695  43.639  0.00  0.00     0.000 A 
ATOM     22  C   UNL d   1      46.529 -20.316  43.109  0.00  0.00     0.000 A 
ATOM     23  C   UNL d   1      46.633 -20.162  42.297  0.00  0.00     0.000 A 
ATOM     24  C   UNL d   1      46.645 -19.382  42.033  0.00  0.00     0.000 A 
ATOM     25  C   UNL d   1      46.555 -18.759  42.568  0.00  0.00     0.000 A 
ENDBRANCH   3  20
TORSDOF 6
ENDMDL
