MODEL 1
REMARK VINA RESULT:      60.1      0.000      0.000
REMARK  9 active torsions:
REMARK  status: ('A' for Active; 'I' for Inactive)
REMARK    1  A    between atoms: N_3  and  C_1 
REMARK    2  A    between atoms: C_20  and  N_2 
REMARK       I    between atoms: C_7  and  N_3 
REMARK    3  A    between atoms: C_10  and  C_7 
REMARK    4  A    between atoms: C_9  and  C_10 
REMARK    5  A    between atoms: C_15  and  C_9 
REMARK       I    between atoms: C_12  and  N_13 
REMARK    6  A    between atoms: N_13  and  C_14 
REMARK    7  A    between atoms: C_26  and  C_20 
REMARK    8  A    between atoms: O_22  and  C_26 
REMARK    9  A    between atoms: C_27  and  O_22 
ROOT
ATOM      1  C   UNL d   1      13.530  14.119  -3.849  0.00  0.00     0.182 A 
ATOM      2  N   UNL d   1      13.355  13.332  -4.004  0.00  0.00    -0.283 N 
ATOM      3  S   UNL d   1      13.777  14.173  -3.064  0.00  0.00    -0.048 SA
ATOM      4  C   UNL d   1      13.754  13.414  -2.734  0.00  0.00     0.050 A 
ATOM      5  C   UNL d   1      13.492  12.892  -3.318  0.00  0.00     0.072 A 
ATOM      6  C   UNL d   1      13.937  13.133  -1.982  0.00  0.00     0.027 A 
ATOM      7  C   UNL d   1      13.413  12.089  -3.149  0.00  0.00     0.020 A 
ATOM      8  C   UNL d   1      13.858  12.331  -1.812  0.00  0.00     0.085 A 
ATOM      9  C   UNL d   1      13.596  11.809  -2.396  0.00  0.00     0.021 A 
ENDROOT
BRANCH   1  10
ATOM     10  N   UNL d   1      13.467  14.740  -4.388  0.00  0.00    -0.184 NA
ATOM     11  C   UNL d   1      14.072  15.298  -4.437  0.00  0.00     0.281 C 
ATOM     12  O   UNL d   1      14.731  15.230  -3.950  0.00  0.00    -0.265 OA
BRANCH  11  13
ATOM     13  C   UNL d   1      14.016  15.923  -4.974  0.00  0.00     0.063 C 
BRANCH  13  14
ATOM     14  C   UNL d   1      14.515  16.569  -4.908  0.00  0.00     0.006 C 
BRANCH  14  15
ATOM     15  C   UNL d   1      14.351  17.271  -5.294  0.00  0.00     0.011 A 
ATOM     16  C   UNL d   1      13.900  17.264  -5.991  0.00  0.00     0.058 A 
ATOM     17 CL   UNL d   1      13.618  16.538  -6.293  0.00  0.00    -0.082 Cl
ATOM     18  C   UNL d   1      13.731  17.983  -6.388  0.00  0.00     0.011 A 
ATOM     19  C   UNL d   1      14.004  18.694  -6.099  0.00  0.00     0.001 A 
ATOM     20  C   UNL d   1      14.454  18.704  -5.404  0.00  0.00     0.000 A 
ATOM     21  C   UNL d   1      14.623  17.995  -5.009  0.00  0.00     0.001 A 
ENDBRANCH  14  15
ENDBRANCH  13  14
ENDBRANCH  11  13
ENDBRANCH   1  10
BRANCH   2  22
ATOM     22  C   UNL d   1      13.087  13.024  -4.723  0.00  0.00     0.109 C 
BRANCH  22  23
ATOM     23  C   UNL d   1      12.778  12.261  -4.761  0.00  0.00     0.142 C 
BRANCH  23  24
ATOM     24  O   UNL d   1      12.921  11.793  -5.416  0.00  0.00    -0.302 OA
BRANCH  24  25
ATOM     25  C   UNL d   1      13.119  12.125  -6.150  0.00  0.00     0.123 C 
ATOM     26  C   UNL d   1      13.894  12.364  -6.313  0.00  0.00     0.029 C 
ENDBRANCH  24  25
ENDBRANCH  23  24
ENDBRANCH  22  23
ENDBRANCH   2  22
BRANCH   8  27
ATOM     27  N   UNL d   1      14.044  12.045  -1.049  0.00  0.00    -0.208 NA
ATOM     28  C   UNL d   1      14.809  12.103  -0.769  0.00  0.00     0.279 C 
ATOM     29  O   UNL d   1      14.989  11.820  -0.016  0.00  0.00    -0.265 OA
ATOM     30  C   UNL d   1      15.405  12.442  -1.230  0.00  0.00     0.068 C 
ENDBRANCH   8  27
TORSDOF 9
ENDMDL
MODEL 2
REMARK VINA RESULT:      60.3      1.794      3.547
REMARK  9 active torsions:
REMARK  status: ('A' for Active; 'I' for Inactive)
REMARK    1  A    between atoms: N_3  and  C_1 
REMARK    2  A    between atoms: C_20  and  N_2 
REMARK       I    between atoms: C_7  and  N_3 
REMARK    3  A    between atoms: C_10  and  C_7 
REMARK    4  A    between atoms: C_9  and  C_10 
REMARK    5  A    between atoms: C_15  and  C_9 
REMARK       I    between atoms: C_12  and  N_13 
REMARK    6  A    between atoms: N_13  and  C_14 
REMARK    7  A    between atoms: C_26  and  C_20 
REMARK    8  A    between atoms: O_22  and  C_26 
REMARK    9  A    between atoms: C_27  and  O_22 
ROOT
ATOM      1  C   UNL d   1      14.400  16.186  -4.270  0.00  0.00     0.182 A 
ATOM      2  N   UNL d   1      14.377  15.969  -3.479  0.00  0.00    -0.283 N 
ATOM      3  S   UNL d   1      14.233  15.517  -4.721  0.00  0.00    -0.048 SA
ATOM      4  C   UNL d   1      14.106  14.883  -4.204  0.00  0.00     0.050 A 
ATOM      5  C   UNL d   1      14.196  15.164  -3.433  0.00  0.00     0.072 A 
ATOM      6  C   UNL d   1      13.921  14.092  -4.336  0.00  0.00     0.027 A 
ATOM      7  C   UNL d   1      14.101  14.653  -2.793  0.00  0.00     0.020 A 
ATOM      8  C   UNL d   1      13.826  13.580  -3.698  0.00  0.00     0.085 A 
ATOM      9  C   UNL d   1      13.916  13.861  -2.926  0.00  0.00     0.021 A 
ENDROOT
BRANCH   1  10
ATOM     10  N   UNL d   1      14.563  16.943  -4.556  0.00  0.00    -0.184 NA
ATOM     11  C   UNL d   1      14.523  17.089  -5.366  0.00  0.00     0.281 C 
ATOM     12  O   UNL d   1      14.321  16.480  -5.881  0.00  0.00    -0.265 OA
BRANCH  11  13
ATOM     13  C   UNL d   1      14.684  17.844  -5.659  0.00  0.00     0.063 C 
BRANCH  13  14
ATOM     14  C   UNL d   1      14.071  18.352  -5.849  0.00  0.00     0.006 C 
BRANCH  14  15
ATOM     15  C   UNL d   1      14.194  19.158  -5.912  0.00  0.00     0.011 A 
ATOM     16  C   UNL d   1      13.582  19.650  -6.183  0.00  0.00     0.058 A 
ATOM     17 CL   UNL d   1      12.845  19.316  -6.389  0.00  0.00    -0.082 Cl
ATOM     18  C   UNL d   1      13.707  20.476  -6.248  0.00  0.00     0.011 A 
ATOM     19  C   UNL d   1      14.424  20.808  -6.048  0.00  0.00     0.001 A 
ATOM     20  C   UNL d   1      15.036  20.320  -5.778  0.00  0.00     0.000 A 
ATOM     21  C   UNL d   1      14.916  19.502  -5.713  0.00  0.00     0.001 A 
ENDBRANCH  14  15
ENDBRANCH  13  14
ENDBRANCH  11  13
ENDBRANCH   1  10
BRANCH   2  22
ATOM     22  C   UNL d   1      14.512  16.465  -2.832  0.00  0.00     0.109 C 
BRANCH  22  23
ATOM     23  C   UNL d   1      15.249  16.482  -2.464  0.00  0.00     0.142 C 
BRANCH  23  24
ATOM     24  O   UNL d   1      15.351  16.900  -1.768  0.00  0.00    -0.302 OA
BRANCH  24  25
ATOM     25  C   UNL d   1      15.086  16.599  -1.042  0.00  0.00     0.123 C 
ATOM     26  C   UNL d   1      15.621  16.385  -0.449  0.00  0.00     0.029 C 
ENDBRANCH  24  25
ENDBRANCH  23  24
ENDBRANCH  22  23
ENDBRANCH   2  22
BRANCH   8  27
ATOM     27  N   UNL d   1      13.638  12.776  -3.830  0.00  0.00    -0.208 NA
ATOM     28  C   UNL d   1      13.116  12.574  -4.425  0.00  0.00     0.279 C 
ATOM     29  O   UNL d   1      12.933  11.781  -4.553  0.00  0.00    -0.265 OA
ATOM     30  C   UNL d   1      12.769  13.154  -4.900  0.00  0.00     0.068 C 
ENDBRANCH   8  27
TORSDOF 9
ENDMDL
