MODEL 1
REMARK VINA RESULT:      65.2      0.000      0.000
REMARK  9 active torsions:
REMARK  status: ('A' for Active; 'I' for Inactive)
REMARK    1  A    between atoms: N_2  and  S_1 
REMARK    2  A    between atoms: C_5  and  S_1 
REMARK    3  A    between atoms: C_15  and  C_3 
REMARK       I    between atoms: C_4  and  N_11 
REMARK    4  A    between atoms: C_7  and  C_4 
REMARK       I    between atoms: N_22  and  C_7 
REMARK    5  A    between atoms: N_8  and  C_28 
REMARK    6  A    between atoms: N_11  and  C_15 
REMARK    7  A    between atoms: C_30  and  N_22 
REMARK    8  A    between atoms: C_28  and  C_29 
REMARK    9  A    between atoms: C_29  and  C_30 
ROOT
ATOM      1  N   UNL d   1     -50.335  24.758  33.567  0.00  0.00    -0.207 N 
ATOM      2  C   UNL d   1     -50.926  24.193  33.616  0.00  0.00     0.197 A 
ATOM      3  O   UNL d   1     -50.588  23.442  33.637  0.00  0.00    -0.285 OA
ATOM      4  C   UNL d   1     -49.610  24.356  33.556  0.00  0.00     0.120 A 
ATOM      5  C   UNL d   1     -49.758  23.540  33.599  0.00  0.00     0.144 A 
ENDROOT
BRANCH   2   6
ATOM      6  C   UNL d   1     -51.736  24.345  33.641  0.00  0.00     0.146 C 
BRANCH   6   7
ATOM      7  N   UNL d   1     -52.274  23.789  33.360  0.00  0.00    -0.199 NA
ATOM      8  C   UNL d   1     -53.029  23.755  33.678  0.00  0.00     0.337 C 
ATOM      9  O   UNL d   1     -53.568  23.199  33.397  0.00  0.00    -0.260 OA
BRANCH   8  10
ATOM     10  C   UNL d   1     -53.256  24.274  34.279  0.00  0.00     0.337 C 
ATOM     11  O   UNL d   1     -53.803  24.868  34.119  0.00  0.00    -0.260 OA
ATOM     12  N   UNL d   1     -52.943  24.203  35.024  0.00  0.00    -0.202 NA
BRANCH  12  13
ATOM     13  C   UNL d   1     -53.166  24.721  35.630  0.00  0.00     0.104 C 
BRANCH  13  14
ATOM     14  C   UNL d   1     -52.926  24.594  36.403  0.00  0.00     0.040 C 
BRANCH  14  15
ATOM     15  C   UNL d   1     -53.394  24.813  37.030  0.00  0.00     0.083 C 
BRANCH  15  16
ATOM     16  N   UNL d   1     -53.132  24.737  37.802  0.00  0.00    -0.285 N 
ATOM     17  C   UNL d   1     -53.285  25.392  38.284  0.00  0.00     0.183 A 
ATOM     18  N   UNL d   1     -52.992  25.237  39.040  0.00  0.00    -0.222 NA
ATOM     19  C   UNL d   1     -52.655  24.482  39.028  0.00  0.00     0.120 A 
ATOM     20  C   UNL d   1     -52.741  24.174  38.265  0.00  0.00     0.102 A 
ENDBRANCH  15  16
ENDBRANCH  14  15
ENDBRANCH  13  14
ENDBRANCH  12  13
ENDBRANCH   8  10
ENDBRANCH   6   7
ENDBRANCH   2   6
BRANCH   1  21
ATOM     21  S   UNL d   1     -50.436  25.571  33.533  0.00  0.00     0.273 S 
ATOM     22  O   UNL d   1     -49.652  25.677  33.755  0.00  0.00    -0.200 OA
ATOM     23  O   UNL d   1     -51.219  25.466  33.312  0.00  0.00    -0.200 OA
BRANCH  21  24
ATOM     24  C   UNL d   1     -50.537  26.385  33.500  0.00  0.00     0.104 A 
ATOM     25  C   UNL d   1     -49.873  26.891  33.558  0.00  0.00     0.013 A 
ATOM     26  C   UNL d   1     -49.974  27.705  33.525  0.00  0.00     0.007 A 
ATOM     27  C   UNL d   1     -50.737  28.029  33.434  0.00  0.00     0.035 A 
ATOM     28  C   UNL d   1     -51.391  27.524  33.377  0.00  0.00     0.007 A 
ATOM     29 BR   UNL d   1     -50.842  28.846  33.400  0.00  0.00    -0.049 Br
ATOM     30  C   UNL d   1     -51.289  26.710  33.410  0.00  0.00     0.013 A 
ENDBRANCH  21  24
ENDBRANCH   1  21
TORSDOF 9
ENDMDL
