MODEL 1
REMARK VINA RESULT:      -5.9      0.000      0.000
REMARK  4 active torsions:
REMARK  status: ('A' for Active; 'I' for Inactive)
REMARK    1  A    between atoms: C_8  and  N_1 
REMARK    2  A    between atoms: C_7  and  C_2 
REMARK    3  A    between atoms: C_9  and  C_7 
REMARK    4  A    between atoms: C_17  and  C_8 
ROOT
ATOM      1  N   UNL d   1     -41.151-122.577 -51.999  0.00  0.00    -0.224 N 
ATOM      2  C   UNL d   1     -41.168-122.559 -53.423  0.00  0.00     0.117 A 
ATOM      3  C   UNL d   1     -41.167-122.151 -52.703  0.00  0.00     0.273 A 
ATOM      4  C   UNL d   1     -41.138-123.388 -52.008  0.00  0.00     0.359 A 
ATOM      5  N   UNL d   1     -41.140-123.784 -52.723  0.00  0.00    -0.153 NA
ATOM      6  C   UNL d   1     -41.155-123.371 -53.433  0.00  0.00     0.288 A 
ATOM      7  O   UNL d   1     -41.123-123.815 -51.311  0.00  0.00    -0.244 OA
ATOM      8  O   UNL d   1     -41.180-121.336 -52.693  0.00  0.00    -0.266 OA
ATOM      9  O   UNL d   1     -41.156-123.781 -54.143  0.00  0.00    -0.265 OA
ENDROOT
BRANCH   1  10
ATOM     10  C   UNL d   1     -41.150-122.168 -51.282  0.00  0.00     0.087 C 
BRANCH  10  11
ATOM     11  C   UNL d   1     -41.795-122.246 -50.770  0.00  0.00     0.018 A 
ATOM     12  C   UNL d   1     -42.521-121.947 -50.977  0.00  0.00     0.002 A 
ATOM     13  C   UNL d   1     -43.166-122.024 -50.467  0.00  0.00     0.000 A 
ATOM     14  C   UNL d   1     -43.064-122.408 -49.741  0.00  0.00     0.000 A 
ATOM     15  C   UNL d   1     -42.338-122.707 -49.533  0.00  0.00     0.000 A 
ATOM     16  C   UNL d   1     -41.693-122.629 -50.045  0.00  0.00     0.002 A 
ENDBRANCH  10  11
ENDBRANCH   1  10
BRANCH   2  17
ATOM     17  C   UNL d   1     -41.184-122.134 -54.142  0.00  0.00     0.034 C 
BRANCH  17  18
ATOM     18  C   UNL d   1     -41.885-122.045 -54.548  0.00  0.00     0.100 A 
ATOM     19  O   UNL d   1     -42.661-121.915 -54.301  0.00  0.00    -0.305 OA
ATOM     20  C   UNL d   1     -43.126-121.874 -54.956  0.00  0.00     0.123 A 
ATOM     21  C   UNL d   1     -42.673-121.974 -55.618  0.00  0.00     0.029 A 
ATOM     22  C   UNL d   1     -41.898-122.081 -55.372  0.00  0.00     0.027 A 
ENDBRANCH  17  18
ENDBRANCH   2  17
TORSDOF 4
ENDMDL
MODEL 2
REMARK VINA RESULT:      -4.9      1.459      4.522
REMARK  4 active torsions:
REMARK  status: ('A' for Active; 'I' for Inactive)
REMARK    1  A    between atoms: C_8  and  N_1 
REMARK    2  A    between atoms: C_7  and  C_2 
REMARK    3  A    between atoms: C_9  and  C_7 
REMARK    4  A    between atoms: C_17  and  C_8 
ROOT
ATOM      1  N   UNL d   1     -41.750-122.468 -51.152  0.00  0.00    -0.224 N 
ATOM      2  C   UNL d   1     -42.367-123.138 -50.056  0.00  0.00     0.117 A 
ATOM      3  C   UNL d   1     -41.741-123.073 -50.594  0.00  0.00     0.273 A 
ATOM      4  C   UNL d   1     -42.365-121.939 -51.175  0.00  0.00     0.359 A 
ATOM      5  N   UNL d   1     -42.979-122.010 -50.640  0.00  0.00    -0.153 NA
ATOM      6  C   UNL d   1     -42.982-122.609 -50.079  0.00  0.00     0.288 A 
ATOM      7  O   UNL d   1     -42.378-121.336 -51.727  0.00  0.00    -0.244 OA
ATOM      8  O   UNL d   1     -41.123-123.604 -50.570  0.00  0.00    -0.266 OA
ATOM      9  O   UNL d   1     -43.605-122.669 -49.549  0.00  0.00    -0.265 OA
ENDROOT
BRANCH   1  10
ATOM     10  C   UNL d   1     -41.125-122.405 -51.687  0.00  0.00     0.087 C 
BRANCH  10  11
ATOM     11  C   UNL d   1     -41.216-122.705 -52.452  0.00  0.00     0.018 A 
ATOM     12  C   UNL d   1     -41.375-122.205 -53.072  0.00  0.00     0.002 A 
ATOM     13  C   UNL d   1     -41.466-122.503 -53.837  0.00  0.00     0.000 A 
ATOM     14  C   UNL d   1     -41.392-123.318 -53.965  0.00  0.00     0.000 A 
ATOM     15  C   UNL d   1     -41.232-123.817 -53.346  0.00  0.00     0.000 A 
ATOM     16  C   UNL d   1     -41.142-123.517 -52.580  0.00  0.00     0.002 A 
ENDBRANCH  10  11
ENDBRANCH   1  10
BRANCH   2  17
ATOM     17  C   UNL d   1     -42.364-123.750 -49.487  0.00  0.00     0.034 C 
BRANCH  17  18
ATOM     18  C   UNL d   1     -42.055-123.615 -48.745  0.00  0.00     0.100 A 
ATOM     19  O   UNL d   1     -41.284-123.525 -48.469  0.00  0.00    -0.305 OA
ATOM     20  C   UNL d   1     -41.318-123.402 -47.674  0.00  0.00     0.123 A 
ATOM     21  C   UNL d   1     -42.089-123.410 -47.431  0.00  0.00     0.029 A 
ATOM     22  C   UNL d   1     -42.555-123.542 -48.093  0.00  0.00     0.027 A 
ENDBRANCH  17  18
ENDBRANCH   2  17
TORSDOF 4
ENDMDL
MODEL 3
REMARK VINA RESULT:      -4.5      1.258      2.239
REMARK  4 active torsions:
REMARK  status: ('A' for Active; 'I' for Inactive)
REMARK    1  A    between atoms: C_8  and  N_1 
REMARK    2  A    between atoms: C_7  and  C_2 
REMARK    3  A    between atoms: C_9  and  C_7 
REMARK    4  A    between atoms: C_17  and  C_8 
ROOT
ATOM      1  N   UNL d   1     -42.376-122.743 -50.760  0.00  0.00    -0.224 N 
ATOM      2  C   UNL d   1     -41.582-122.473 -51.912  0.00  0.00     0.117 A 
ATOM      3  C   UNL d   1     -41.925-123.018 -51.391  0.00  0.00     0.273 A 
ATOM      4  C   UNL d   1     -42.485-121.946 -50.648  0.00  0.00     0.359 A 
ATOM      5  N   UNL d   1     -42.143-121.415 -51.167  0.00  0.00    -0.153 NA
ATOM      6  C   UNL d   1     -41.691-121.676 -51.800  0.00  0.00     0.288 A 
ATOM      7  O   UNL d   1     -42.933-121.669 -50.022  0.00  0.00    -0.244 OA
ATOM      8  O   UNL d   1     -41.815-123.817 -51.503  0.00  0.00    -0.266 OA
ATOM      9  O   UNL d   1     -41.354-121.132 -52.312  0.00  0.00    -0.265 OA
ENDROOT
BRANCH   1  10
ATOM     10  C   UNL d   1     -42.717-123.287 -50.242  0.00  0.00     0.087 C 
BRANCH  10  11
ATOM     11  C   UNL d   1     -42.432-123.344 -49.468  0.00  0.00     0.018 A 
ATOM     12  C   UNL d   1     -41.696-123.654 -49.324  0.00  0.00     0.002 A 
ATOM     13  C   UNL d   1     -41.409-123.711 -48.551  0.00  0.00     0.000 A 
ATOM     14  C   UNL d   1     -41.881-123.448 -47.925  0.00  0.00     0.000 A 
ATOM     15  C   UNL d   1     -42.618-123.137 -48.068  0.00  0.00     0.000 A 
ATOM     16  C   UNL d   1     -42.903-123.081 -48.842  0.00  0.00     0.002 A 
ENDBRANCH  10  11
ENDBRANCH   1  10
BRANCH   2  17
ATOM     17  C   UNL d   1     -41.123-122.745 -52.555  0.00  0.00     0.034 C 
BRANCH  17  18
ATOM     18  C   UNL d   1     -41.464-122.837 -53.289  0.00  0.00     0.100 A 
ATOM     19  O   UNL d   1     -41.972-122.362 -53.732  0.00  0.00    -0.305 OA
ATOM     20  C   UNL d   1     -42.126-122.743 -54.424  0.00  0.00     0.123 A 
ATOM     21  C   UNL d   1     -41.733-123.449 -54.439  0.00  0.00     0.029 A 
ATOM     22  C   UNL d   1     -41.318-123.515 -53.735  0.00  0.00     0.027 A 
ENDBRANCH  17  18
ENDBRANCH   2  17
TORSDOF 4
ENDMDL
MODEL 4
REMARK VINA RESULT:      -3.6      1.191      4.238
REMARK  4 active torsions:
REMARK  status: ('A' for Active; 'I' for Inactive)
REMARK    1  A    between atoms: C_8  and  N_1 
REMARK    2  A    between atoms: C_7  and  C_2 
REMARK    3  A    between atoms: C_9  and  C_7 
REMARK    4  A    between atoms: C_17  and  C_8 
ROOT
ATOM      1  N   UNL d   1     -41.595-122.476 -52.008  0.00  0.00    -0.224 N 
ATOM      2  C   UNL d   1     -42.450-122.736 -50.898  0.00  0.00     0.117 A 
ATOM      3  C   UNL d   1     -41.982-123.015 -51.521  0.00  0.00     0.273 A 
ATOM      4  C   UNL d   1     -41.672-121.678 -51.880  0.00  0.00     0.359 A 
ATOM      5  N   UNL d   1     -42.136-121.410 -51.264  0.00  0.00    -0.153 NA
ATOM      6  C   UNL d   1     -42.527-121.937 -50.771  0.00  0.00     0.288 A 
ATOM      7  O   UNL d   1     -41.289-121.138 -52.362  0.00  0.00    -0.244 OA
ATOM      8  O   UNL d   1     -41.905-123.816 -51.649  0.00  0.00    -0.266 OA
ATOM      9  O   UNL d   1     -42.990-121.655 -50.156  0.00  0.00    -0.265 OA
ENDROOT
BRANCH   1  10
ATOM     10  C   UNL d   1     -41.128-122.756 -52.628  0.00  0.00     0.087 C 
BRANCH  10  11
ATOM     11  C   UNL d   1     -41.448-122.797 -53.390  0.00  0.00     0.018 A 
ATOM     12  C   UNL d   1     -41.633-122.118 -53.793  0.00  0.00     0.002 A 
ATOM     13  C   UNL d   1     -41.953-122.157 -54.555  0.00  0.00     0.000 A 
ATOM     14  C   UNL d   1     -42.082-122.898 -54.901  0.00  0.00     0.000 A 
ATOM     15  C   UNL d   1     -41.897-123.577 -54.497  0.00  0.00     0.000 A 
ATOM     16  C   UNL d   1     -41.577-123.536 -53.736  0.00  0.00     0.002 A 
ENDBRANCH  10  11
ENDBRANCH   1  10
BRANCH   2  17
ATOM     17  C   UNL d   1     -42.846-123.277 -50.400  0.00  0.00     0.034 C 
BRANCH  17  18
ATOM     18  C   UNL d   1     -42.551-123.436 -49.657  0.00  0.00     0.100 A 
ATOM     19  O   UNL d   1     -41.859-123.798 -49.395  0.00  0.00    -0.305 OA
ATOM     20  C   UNL d   1     -41.868-123.799 -48.590  0.00  0.00     0.123 A 
ATOM     21  C   UNL d   1     -42.546-123.448 -48.326  0.00  0.00     0.029 A 
ATOM     22  C   UNL d   1     -42.978-123.219 -48.985  0.00  0.00     0.027 A 
ENDBRANCH  17  18
ENDBRANCH   2  17
TORSDOF 4
ENDMDL
