MODEL 1
REMARK VINA RESULT:      46.2      0.000      0.000
REMARK  3 active torsions:
REMARK  status: ('A' for Active; 'I' for Inactive)
REMARK    1  A    between atoms: N_2  and  C_1 
REMARK    2  A    between atoms: C_6  and  C_5 
REMARK       I    between atoms: N_13  and  C_6 
REMARK    3  A    between atoms: C_17  and  N_13 
ROOT
ATOM      1  C   UNL d   1     -50.706  26.224  34.022  0.00  0.00     0.285 C 
ATOM      2  N   UNL d   1     -50.591  25.616  33.427  0.00  0.00    -0.208 NA
ATOM      3  O   UNL d   1     -51.299  26.205  34.562  0.00  0.00    -0.265 OA
ENDROOT
BRANCH   2   4
ATOM      4  C   UNL d   1     -51.162  24.965  33.441  0.00  0.00     0.086 A 
ATOM      5  C   UNL d   1     -51.973  25.127  33.359  0.00  0.00     0.039 A 
ATOM      6  C   UNL d   1     -52.517  24.506  33.372  0.00  0.00     0.089 A 
ATOM      7  N   UNL d   1     -53.330  24.486  33.308  0.00  0.00    -0.238 NA
ATOM      8  C   UNL d   1     -52.250  23.724  33.466  0.00  0.00     0.049 A 
ATOM      9  C   UNL d   1     -53.573  23.717  33.359  0.00  0.00     0.111 A 
ATOM     10  C   UNL d   1     -54.354  23.449  33.320  0.00  0.00     0.028 C 
ATOM     11  S   UNL d   1     -52.929  23.253  33.454  0.00  0.00    -0.066 SA
ATOM     12  C   UNL d   1     -51.447  23.571  33.546  0.00  0.00     0.010 A 
ATOM     13  C   UNL d   1     -50.903  24.191  33.533  0.00  0.00     0.020 A 
ENDBRANCH   2   4
BRANCH   1  14
ATOM     14  C   UNL d   1     -50.210  26.872  34.076  0.00  0.00     0.089 A 
ATOM     15  S   UNL d   1     -49.637  26.955  34.641  0.00  0.00    -0.059 SA
ATOM     16  C   UNL d   1     -49.271  27.699  34.480  0.00  0.00     0.156 A 
ATOM     17  C   UNL d   1     -49.609  28.037  33.856  0.00  0.00     0.031 A 
ATOM     18  C   UNL d   1     -50.207  27.535  33.581  0.00  0.00     0.014 A 
BRANCH  16  19
ATOM     19  N   UNL d   1     -48.659  28.043  34.889  0.00  0.00    -0.107 N 
ATOM     20  O   UNL d   1     -48.257  28.745  34.690  0.00  0.00    -0.531 OA
ATOM     21  O   UNL d   1     -48.341  27.736  35.582  0.00  0.00    -0.531 OA
ENDBRANCH  16  19
ENDBRANCH   1  14
TORSDOF 3
ENDMDL
