MODEL 1
REMARK VINA RESULT:      -1.0      0.000      0.000
REMARK  4 active torsions:
REMARK  status: ('A' for Active; 'I' for Inactive)
REMARK    1  A    between atoms: C_2  and  C_1 
REMARK    2  A    between atoms: O_18  and  C_16 
REMARK    3  A    between atoms: C_17  and  C_19 
REMARK    4  A    between atoms: C_19  and  O_18 
ROOT
ATOM      1  C   UNL d   1      58.111  -1.438  30.085  0.00  0.00     0.030 A 
ATOM      2  C   UNL d   1      58.820  -1.069  29.877  0.00  0.00     0.027 A 
ATOM      3  C   UNL d   1      58.342  -2.451  29.113  0.00  0.00     0.300 A 
ATOM      4  C   UNL d   1      57.877  -2.129  29.700  0.00  0.00     0.071 A 
ATOM      5  C   UNL d   1      59.291  -1.396  29.282  0.00  0.00     0.103 A 
ATOM      6  O   UNL d   1      59.056  -2.087  28.897  0.00  0.00    -0.273 OA
ATOM      7  C   UNL d   1      59.061  -0.371  30.264  0.00  0.00     0.027 A 
ATOM      8  O   UNL d   1      58.105  -3.139  28.731  0.00  0.00    -0.259 OA
ATOM      9  C   UNL d   1      59.999  -1.028  29.075  0.00  0.00     0.027 A 
ATOM     10  C   UNL d   1      59.762  -0.017  30.050  0.00  0.00     0.100 A 
ATOM     11  C   UNL d   1      60.236  -0.339  29.456  0.00  0.00     0.027 A 
ENDROOT
BRANCH   1  12
ATOM     12  C   UNL d   1      57.638  -1.103  30.688  0.00  0.00     0.100 A 
ATOM     13  O   UNL d   1      57.313  -0.348  30.693  0.00  0.00    -0.307 OA
ATOM     14  C   UNL d   1      56.894  -0.262  31.391  0.00  0.00     0.100 A 
ATOM     15  C   UNL d   1      56.458   0.368  31.697  0.00  0.00     0.025 A 
ATOM     16  C   UNL d   1      56.954  -0.961  31.826  0.00  0.00     0.025 A 
ATOM     17  C   UNL d   1      56.087   0.294  32.431  0.00  0.00     0.002 A 
ATOM     18  C   UNL d   1      56.153  -0.409  32.858  0.00  0.00     0.000 A 
ATOM     19  C   UNL d   1      56.589  -1.034  32.548  0.00  0.00     0.002 A 
ATOM     20  C   UNL d   1      57.420  -1.485  31.383  0.00  0.00     0.027 A 
ENDBRANCH   1  12
BRANCH  10  21
ATOM     21  O   UNL d   1      60.000   0.678  30.436  0.00  0.00    -0.302 OA
BRANCH  21  22
ATOM     22  C   UNL d   1      60.629   0.658  30.954  0.00  0.00     0.165 C 
BRANCH  22  23
ATOM     23  C   UNL d   1      60.499   0.672  31.763  0.00  0.00     0.220 C 
ATOM     24  O   UNL d   1      59.726   0.682  32.053  0.00  0.00    -0.284 OA
ATOM     25  C   UNL d   1      61.133   0.677  32.291  0.00  0.00     0.048 C 
ENDBRANCH  22  23
ENDBRANCH  21  22
ENDBRANCH  10  21
TORSDOF 4
ENDMDL
MODEL 2
REMARK VINA RESULT:      -1.0      2.031      4.347
REMARK  4 active torsions:
REMARK  status: ('A' for Active; 'I' for Inactive)
REMARK    1  A    between atoms: C_2  and  C_1 
REMARK    2  A    between atoms: O_18  and  C_16 
REMARK    3  A    between atoms: C_17  and  C_19 
REMARK    4  A    between atoms: C_19  and  O_18 
ROOT
ATOM      1  C   UNL d   1      59.132   0.652  31.901  0.00  0.00     0.030 A 
ATOM      2  C   UNL d   1      58.621   0.656  32.550  0.00  0.00     0.027 A 
ATOM      3  C   UNL d   1      60.255   0.673  32.775  0.00  0.00     0.300 A 
ATOM      4  C   UNL d   1      59.948   0.661  32.020  0.00  0.00     0.071 A 
ATOM      5  C   UNL d   1      58.931   0.669  33.315  0.00  0.00     0.103 A 
ATOM      6  O   UNL d   1      59.748   0.678  33.432  0.00  0.00    -0.273 OA
ATOM      7  C   UNL d   1      57.794   0.648  32.435  0.00  0.00     0.027 A 
ATOM      8  O   UNL d   1      61.069   0.682  32.888  0.00  0.00    -0.259 OA
ATOM      9  C   UNL d   1      58.421   0.674  33.962  0.00  0.00     0.027 A 
ATOM     10  C   UNL d   1      57.301   0.652  33.082  0.00  0.00     0.100 A 
ATOM     11  C   UNL d   1      57.607   0.665  33.849  0.00  0.00     0.027 A 
ENDROOT
BRANCH   1  12
ATOM     12  C   UNL d   1      58.811   0.639  31.129  0.00  0.00     0.100 A 
ATOM     13  O   UNL d   1      58.014   0.669  30.929  0.00  0.00    -0.307 OA
ATOM     14  C   UNL d   1      57.962   0.642  30.112  0.00  0.00     0.100 A 
ATOM     15  C   UNL d   1      57.314   0.653  29.602  0.00  0.00     0.025 A 
ATOM     16  C   UNL d   1      58.724   0.595  29.797  0.00  0.00     0.025 A 
ATOM     17  C   UNL d   1      57.432   0.618  28.785  0.00  0.00     0.002 A 
ATOM     18  C   UNL d   1      58.198   0.572  28.480  0.00  0.00     0.000 A 
ATOM     19  C   UNL d   1      58.841   0.561  28.994  0.00  0.00     0.002 A 
ATOM     20  C   UNL d   1      59.252   0.594  30.436  0.00  0.00     0.027 A 
ENDBRANCH   1  12
BRANCH  10  21
ATOM     21  O   UNL d   1      56.480   0.644  32.966  0.00  0.00    -0.302 OA
BRANCH  21  22
ATOM     22  C   UNL d   1      55.995   0.312  33.532  0.00  0.00     0.165 C 
BRANCH  22  23
ATOM     23  C   UNL d   1      55.202   0.178  33.368  0.00  0.00     0.220 C 
ATOM     24  O   UNL d   1      54.992  -0.323  32.747  0.00  0.00    -0.284 OA
ATOM     25  C   UNL d   1      54.613   0.539  33.819  0.00  0.00     0.048 C 
ENDBRANCH  22  23
ENDBRANCH  21  22
ENDBRANCH  10  21
TORSDOF 4
ENDMDL
MODEL 3
REMARK VINA RESULT:       1.9      2.943      5.941
REMARK  4 active torsions:
REMARK  status: ('A' for Active; 'I' for Inactive)
REMARK    1  A    between atoms: C_2  and  C_1 
REMARK    2  A    between atoms: O_18  and  C_16 
REMARK    3  A    between atoms: C_17  and  C_19 
REMARK    4  A    between atoms: C_19  and  O_18 
ROOT
ATOM      1  C   UNL d   1      57.138   0.414  34.430  0.00  0.00     0.030 A 
ATOM      2  C   UNL d   1      56.407   0.503  34.804  0.00  0.00     0.027 A 
ATOM      3  C   UNL d   1      57.802   0.505  35.685  0.00  0.00     0.300 A 
ATOM      4  C   UNL d   1      57.832   0.416  34.875  0.00  0.00     0.071 A 
ATOM      5  C   UNL d   1      56.377   0.593  35.625  0.00  0.00     0.103 A 
ATOM      6  O   UNL d   1      57.072   0.595  36.069  0.00  0.00    -0.273 OA
ATOM      7  C   UNL d   1      55.702   0.502  34.358  0.00  0.00     0.027 A 
ATOM      8  O   UNL d   1      58.496   0.505  36.125  0.00  0.00    -0.259 OA
ATOM      9  C   UNL d   1      55.647   0.682  35.998  0.00  0.00     0.027 A 
ATOM     10  C   UNL d   1      54.988   0.591  34.738  0.00  0.00     0.100 A 
ATOM     11  C   UNL d   1      54.953   0.681  35.558  0.00  0.00     0.027 A 
ENDROOT
BRANCH   1  12
ATOM     12  C   UNL d   1      57.163   0.323  33.599  0.00  0.00     0.100 A 
ATOM     13  O   UNL d   1      57.696   0.677  33.083  0.00  0.00    -0.307 OA
ATOM     14  C   UNL d   1      57.512   0.430  32.325  0.00  0.00     0.100 A 
ATOM     15  C   UNL d   1      57.850   0.601  31.593  0.00  0.00     0.025 A 
ATOM     16  C   UNL d   1      56.863  -0.079  32.361  0.00  0.00     0.025 A 
ATOM     17  C   UNL d   1      57.540   0.263  30.906  0.00  0.00     0.002 A 
ATOM     18  C   UNL d   1      56.890  -0.245  30.953  0.00  0.00     0.000 A 
ATOM     19  C   UNL d   1      56.556  -0.412  31.687  0.00  0.00     0.002 A 
ATOM     20  C   UNL d   1      56.648  -0.144  33.159  0.00  0.00     0.027 A 
ENDBRANCH   1  12
BRANCH  10  21
ATOM     21  O   UNL d   1      54.288   0.589  34.293  0.00  0.00    -0.302 OA
BRANCH  21  22
ATOM     22  C   UNL d   1      53.571   0.495  34.668  0.00  0.00     0.165 C 
BRANCH  22  23
ATOM     23  C   UNL d   1      52.872   0.536  34.239  0.00  0.00     0.220 C 
ATOM     24  O   UNL d   1      52.888   0.436  33.420  0.00  0.00    -0.284 OA
ATOM     25  C   UNL d   1      52.154   0.677  34.619  0.00  0.00     0.048 C 
ENDBRANCH  22  23
ENDBRANCH  21  22
ENDBRANCH  10  21
TORSDOF 4
ENDMDL
