MODEL 1
REMARK VINA RESULT:      -1.7      0.000      0.000
REMARK  6 active torsions:
REMARK  status: ('A' for Active; 'I' for Inactive)
REMARK    1  A    between atoms: C_12  and  C_3 
REMARK    2  A    between atoms: N_16  and  C_4 
REMARK    3  A    between atoms: N_11  and  C_23 
REMARK    4  A    between atoms: C_26  and  N_16 
REMARK    5  A    between atoms: C_23  and  C_24 
REMARK    6  A    between atoms: C_24  and  C_26 
ROOT
ATOM      1  C   UNL d   1      57.369   0.674  32.449  0.00  0.00     0.168 A 
ATOM      2  N   UNL d   1      57.770   0.676  31.698  0.00  0.00    -0.184 N 
ATOM      3  C   UNL d   1      56.558   0.670  32.477  0.00  0.00     0.057 A 
ATOM      4  C   UNL d   1      58.577   0.680  31.690  0.00  0.00     0.218 A 
ATOM      5  N   UNL d   1      56.509   0.671  31.040  0.00  0.00    -0.160 NA
ATOM      6  N   UNL d   1      57.802   0.676  33.142  0.00  0.00    -0.227 NA
ATOM      7  C   UNL d   1      59.023   0.682  32.383  0.00  0.00     0.071 A 
ATOM      8  C   UNL d   1      56.120   0.669  31.767  0.00  0.00     0.124 A 
ATOM      9  C   UNL d   1      58.629   0.679  33.122  0.00  0.00     0.087 A 
ATOM     10  C   UNL d   1      59.085   0.681  33.851  0.00  0.00     0.021 C 
ENDROOT
BRANCH   4  11
ATOM     11  N   UNL d   1      58.986   0.682  30.933  0.00  0.00    -0.380 NA
BRANCH  11  12
ATOM     12  C   UNL d   1      59.331   0.659  30.147  0.00  0.00     0.164 C 
BRANCH  12  13
ATOM     13  C   UNL d   1      59.817  -0.002  29.926  0.00  0.00     0.054 C 
BRANCH  13  14
ATOM     14  C   UNL d   1      59.619  -0.456  29.230  0.00  0.00     0.084 C 
BRANCH  14  15
ATOM     15  N   UNL d   1      59.972  -1.233  29.107  0.00  0.00    -0.285 N 
ATOM     16  C   UNL d   1      59.765  -1.955  29.516  0.00  0.00     0.183 A 
ATOM     17  N   UNL d   1      60.257  -2.582  29.214  0.00  0.00    -0.222 NA
ATOM     18  C   UNL d   1      60.770  -2.245  28.615  0.00  0.00     0.120 A 
ATOM     19  C   UNL d   1      60.595  -1.416  28.549  0.00  0.00     0.102 A 
ENDBRANCH  14  15
ENDBRANCH  13  14
ENDBRANCH  12  13
ENDBRANCH  11  12
ENDBRANCH   4  11
BRANCH   3  20
ATOM     20  C   UNL d   1      56.169   0.668  33.205  0.00  0.00     0.005 A 
ATOM     21  C   UNL d   1      56.602   0.680  33.895  0.00  0.00     0.001 A 
ATOM     22  C   UNL d   1      56.213   0.678  34.623  0.00  0.00     0.011 A 
ATOM     23  C   UNL d   1      55.399   0.665  34.648  0.00  0.00     0.058 A 
ATOM     24  C   UNL d   1      54.973   0.653  33.946  0.00  0.00     0.011 A 
ATOM     25 CL   UNL d   1      54.991   0.662  35.411  0.00  0.00    -0.082 Cl
ATOM     26  C   UNL d   1      55.355   0.655  33.229  0.00  0.00     0.001 A 
ENDBRANCH   3  20
TORSDOF 6
ENDMDL
MODEL 2
REMARK VINA RESULT:      -1.0      2.312      5.674
REMARK  6 active torsions:
REMARK  status: ('A' for Active; 'I' for Inactive)
REMARK    1  A    between atoms: C_12  and  C_3 
REMARK    2  A    between atoms: N_16  and  C_4 
REMARK    3  A    between atoms: N_11  and  C_23 
REMARK    4  A    between atoms: C_26  and  N_16 
REMARK    5  A    between atoms: C_23  and  C_24 
REMARK    6  A    between atoms: C_24  and  C_26 
ROOT
ATOM      1  C   UNL d   1      58.227  -0.252  30.764  0.00  0.00     0.168 A 
ATOM      2  N   UNL d   1      57.495  -0.060  31.154  0.00  0.00    -0.184 N 
ATOM      3  C   UNL d   1      58.221  -0.676  30.073  0.00  0.00     0.057 A 
ATOM      4  C   UNL d   1      57.521   0.363  31.841  0.00  0.00     0.218 A 
ATOM      5  N   UNL d   1      56.785  -0.737  30.123  0.00  0.00    -0.160 NA
ATOM      6  N   UNL d   1      58.936  -0.008  31.088  0.00  0.00    -0.227 NA
ATOM      7  C   UNL d   1      58.231   0.613  32.176  0.00  0.00     0.071 A 
ATOM      8  C   UNL d   1      57.494  -0.923  29.746  0.00  0.00     0.124 A 
ATOM      9  C   UNL d   1      58.951   0.425  31.792  0.00  0.00     0.087 A 
ATOM     10  C   UNL d   1      59.698   0.682  32.134  0.00  0.00     0.021 C 
ENDROOT
BRANCH   4  11
ATOM     11  N   UNL d   1      56.783   0.558  32.238  0.00  0.00    -0.380 NA
BRANCH  11  12
ATOM     12  C   UNL d   1      56.030   0.681  32.632  0.00  0.00     0.164 C 
BRANCH  12  13
ATOM     13  C   UNL d   1      56.001   0.679  33.481  0.00  0.00     0.054 C 
BRANCH  13  14
ATOM     14  C   UNL d   1      55.355   0.287  33.879  0.00  0.00     0.084 C 
BRANCH  14  15
ATOM     15  N   UNL d   1      55.235   0.406  34.725  0.00  0.00    -0.285 N 
ATOM     16  C   UNL d   1      54.498   0.611  35.109  0.00  0.00     0.183 A 
ATOM     17  N   UNL d   1      54.643   0.670  35.948  0.00  0.00    -0.222 NA
ATOM     18  C   UNL d   1      55.474   0.502  36.081  0.00  0.00     0.120 A 
ATOM     19  C   UNL d   1      55.837   0.340  35.330  0.00  0.00     0.102 A 
ENDBRANCH  14  15
ENDBRANCH  13  14
ENDBRANCH  12  13
ENDBRANCH  11  12
ENDBRANCH   4  11
BRANCH   3  20
ATOM     20  C   UNL d   1      58.931  -0.862  29.695  0.00  0.00     0.005 A 
ATOM     21  C   UNL d   1      59.289  -1.580  29.836  0.00  0.00     0.001 A 
ATOM     22  C   UNL d   1      59.999  -1.766  29.459  0.00  0.00     0.011 A 
ATOM     23  C   UNL d   1      60.338  -1.231  28.946  0.00  0.00     0.058 A 
ATOM     24  C   UNL d   1      59.968  -0.509  28.812  0.00  0.00     0.011 A 
ATOM     25 CL   UNL d   1      61.082  -1.426  28.551  0.00  0.00    -0.082 Cl
ATOM     26  C   UNL d   1      59.270  -0.326  29.183  0.00  0.00     0.001 A 
ENDBRANCH   3  20
TORSDOF 6
ENDMDL
MODEL 3
REMARK VINA RESULT:       1.0      1.009      1.198
REMARK  6 active torsions:
REMARK  status: ('A' for Active; 'I' for Inactive)
REMARK    1  A    between atoms: C_12  and  C_3 
REMARK    2  A    between atoms: N_16  and  C_4 
REMARK    3  A    between atoms: N_11  and  C_23 
REMARK    4  A    between atoms: C_26  and  N_16 
REMARK    5  A    between atoms: C_23  and  C_24 
REMARK    6  A    between atoms: C_24  and  C_26 
ROOT
ATOM      1  C   UNL d   1      56.773   0.380  32.690  0.00  0.00     0.168 A 
ATOM      2  N   UNL d   1      56.880   0.421  31.847  0.00  0.00    -0.184 N 
ATOM      3  C   UNL d   1      56.031   0.276  33.001  0.00  0.00     0.057 A 
ATOM      4  C   UNL d   1      57.626   0.526  31.556  0.00  0.00     0.218 A 
ATOM      5  N   UNL d   1      55.479   0.248  31.673  0.00  0.00    -0.160 NA
ATOM      6  N   UNL d   1      57.418   0.447  33.187  0.00  0.00    -0.227 NA
ATOM      7  C   UNL d   1      58.284   0.594  32.048  0.00  0.00     0.071 A 
ATOM      8  C   UNL d   1      55.374   0.208  32.490  0.00  0.00     0.124 A 
ATOM      9  C   UNL d   1      58.178   0.554  32.878  0.00  0.00     0.087 A 
ATOM     10  C   UNL d   1      58.857   0.623  33.401  0.00  0.00     0.021 C 
ENDROOT
BRANCH   4  11
ATOM     11  N   UNL d   1      57.739   0.568  30.705  0.00  0.00    -0.380 NA
BRANCH  11  12
ATOM     12  C   UNL d   1      57.852   0.536  29.854  0.00  0.00     0.164 C 
BRANCH  12  13
ATOM     13  C   UNL d   1      58.357  -0.063  29.524  0.00  0.00     0.054 C 
BRANCH  13  14
ATOM     14  C   UNL d   1      58.833   0.119  28.839  0.00  0.00     0.084 C 
BRANCH  14  15
ATOM     15  N   UNL d   1      59.643  -0.173  28.787  0.00  0.00    -0.285 N 
ATOM     16  C   UNL d   1      60.356   0.287  28.890  0.00  0.00     0.183 A 
ATOM     17  N   UNL d   1      61.025  -0.232  28.790  0.00  0.00    -0.222 NA
ATOM     18  C   UNL d   1      60.722  -1.017  28.623  0.00  0.00     0.120 A 
ATOM     19  C   UNL d   1      59.873  -0.981  28.621  0.00  0.00     0.102 A 
ENDBRANCH  14  15
ENDBRANCH  13  14
ENDBRANCH  12  13
ENDBRANCH  11  12
ENDBRANCH   4  11
BRANCH   3  20
ATOM     20  C   UNL d   1      55.926   0.236  33.819  0.00  0.00     0.005 A 
ATOM     21  C   UNL d   1      56.422   0.655  34.311  0.00  0.00     0.001 A 
ATOM     22  C   UNL d   1      56.317   0.615  35.129  0.00  0.00     0.011 A 
ATOM     23  C   UNL d   1      55.719   0.157  35.440  0.00  0.00     0.058 A 
ATOM     24  C   UNL d   1      55.225  -0.262  34.933  0.00  0.00     0.011 A 
ATOM     25 CL   UNL d   1      55.609   0.115  36.297  0.00  0.00    -0.082 Cl
ATOM     26  C   UNL d   1      55.328  -0.223  34.129  0.00  0.00     0.001 A 
ENDBRANCH   3  20
TORSDOF 6
ENDMDL
