MODEL 1
REMARK VINA RESULT:      -6.5      0.000      0.000
REMARK  5 active torsions:
REMARK  status: ('A' for Active; 'I' for Inactive)
REMARK    1  A    between atoms: N_2  and  S_1 
REMARK    2  A    between atoms: C_3  and  S_1 
REMARK    3  A    between atoms: C_10  and  C_3 
REMARK    4  A    between atoms: C_9  and  N_4 
REMARK    5  A    between atoms: C_16  and  C_10 
ROOT
ATOM      1  N   UNL d   1     -47.330  12.464  23.395  0.00  0.00    -0.226 N 
ATOM      2  N   UNL d   1     -48.557  13.508  23.124  0.00  0.00    -0.301 N 
ATOM      3  C   UNL d   1     -48.092  12.250  23.601  0.00  0.00     0.111 A 
ATOM      4  C   UNL d   1     -47.170  13.199  23.053  0.00  0.00     0.111 A 
ATOM      5  C   UNL d   1     -48.715  12.772  23.466  0.00  0.00     0.100 A 
ATOM      6  C   UNL d   1     -47.786  13.728  22.915  0.00  0.00     0.100 A 
ENDROOT
BRANCH   1   7
ATOM      7  S   UNL d   1     -46.700  11.923  23.536  0.00  0.00     0.272 S 
ATOM      8  O   UNL d   1     -46.164  12.554  23.541  0.00  0.00    -0.200 OA
ATOM      9  O   UNL d   1     -47.248  11.288  23.531  0.00  0.00    -0.200 OA
BRANCH   7  10
ATOM     10  C   UNL d   1     -46.082  11.378  23.677  0.00  0.00     0.116 C 
BRANCH  10  11
ATOM     11  C   UNL d   1     -45.465  11.319  23.129  0.00  0.00     0.014 C 
BRANCH  11  12
ATOM     12  C   UNL d   1     -44.825  10.829  23.297  0.00  0.00     0.001 A 
ATOM     13  C   UNL d   1     -44.948  10.022  23.531  0.00  0.00     0.000 A 
ATOM     14  C   UNL d   1     -44.298   9.537  23.698  0.00  0.00     0.000 A 
ATOM     15  C   UNL d   1     -43.518   9.855  23.632  0.00  0.00     0.000 A 
ATOM     16  C   UNL d   1     -43.401  10.630  23.407  0.00  0.00     0.000 A 
ATOM     17  C   UNL d   1     -44.063  11.114  23.240  0.00  0.00     0.000 A 
ENDBRANCH  11  12
ENDBRANCH  10  11
ENDBRANCH   7  10
ENDBRANCH   1   7
BRANCH   2  18
ATOM     18  C   UNL d   1     -49.189  14.037  22.988  0.00  0.00     0.064 A 
ATOM     19  C   UNL d   1     -49.778  13.845  22.447  0.00  0.00     0.020 A 
ATOM     20  C   UNL d   1     -50.398  14.371  22.318  0.00  0.00     0.031 A 
ATOM     21  C   UNL d   1     -50.424  15.081  22.729  0.00  0.00     0.140 A 
ATOM     22  C   UNL d   1     -49.832  15.281  23.278  0.00  0.00     0.031 A 
ATOM     23  F   UNL d   1     -51.063  15.627  22.599  0.00  0.00    -0.204 F 
ATOM     24  C   UNL d   1     -49.212  14.752  23.405  0.00  0.00     0.020 A 
ENDBRANCH   2  18
TORSDOF 5
ENDMDL
MODEL 2
REMARK VINA RESULT:      -5.7      2.543      5.784
REMARK  5 active torsions:
REMARK  status: ('A' for Active; 'I' for Inactive)
REMARK    1  A    between atoms: N_2  and  S_1 
REMARK    2  A    between atoms: C_3  and  S_1 
REMARK    3  A    between atoms: C_10  and  C_3 
REMARK    4  A    between atoms: C_9  and  N_4 
REMARK    5  A    between atoms: C_16  and  C_10 
ROOT
ATOM      1  N   UNL d   1     -47.008  13.553  22.583  0.00  0.00    -0.226 N 
ATOM      2  N   UNL d   1     -45.474  13.132  22.210  0.00  0.00    -0.301 N 
ATOM      3  C   UNL d   1     -46.857  12.804  22.292  0.00  0.00     0.111 A 
ATOM      4  C   UNL d   1     -46.399  14.101  22.691  0.00  0.00     0.111 A 
ATOM      5  C   UNL d   1     -46.085  12.586  22.102  0.00  0.00     0.100 A 
ATOM      6  C   UNL d   1     -45.624  13.892  22.504  0.00  0.00     0.100 A 
ENDROOT
BRANCH   1   7
ATOM      7  S   UNL d   1     -47.800  13.766  22.774  0.00  0.00     0.272 S 
ATOM      8  O   UNL d   1     -47.601  13.772  23.578  0.00  0.00    -0.200 OA
ATOM      9  O   UNL d   1     -47.996  13.759  21.959  0.00  0.00    -0.200 OA
BRANCH   7  10
ATOM     10  C   UNL d   1     -48.588  13.978  22.954  0.00  0.00     0.116 C 
BRANCH  10  11
ATOM     11  C   UNL d   1     -48.900  14.676  22.636  0.00  0.00     0.014 C 
BRANCH  11  12
ATOM     12  C   UNL d   1     -49.619  14.959  22.921  0.00  0.00     0.001 A 
ATOM     13  C   UNL d   1     -50.347  14.570  22.722  0.00  0.00     0.000 A 
ATOM     14  C   UNL d   1     -51.064  14.863  23.013  0.00  0.00     0.000 A 
ATOM     15  C   UNL d   1     -51.061  15.549  23.506  0.00  0.00     0.000 A 
ATOM     16  C   UNL d   1     -50.360  15.922  23.697  0.00  0.00     0.000 A 
ATOM     17  C   UNL d   1     -49.639  15.620  23.399  0.00  0.00     0.000 A 
ENDBRANCH  11  12
ENDBRANCH  10  11
ENDBRANCH   7  10
ENDBRANCH   1   7
BRANCH   2  18
ATOM     18  C   UNL d   1     -44.692  12.910  22.017  0.00  0.00     0.064 A 
ATOM     19  C   UNL d   1     -44.352  12.250  22.372  0.00  0.00     0.020 A 
ATOM     20  C   UNL d   1     -43.580  12.038  22.177  0.00  0.00     0.031 A 
ATOM     21  C   UNL d   1     -43.158  12.483  21.632  0.00  0.00     0.140 A 
ATOM     22  C   UNL d   1     -43.497  13.151  21.269  0.00  0.00     0.031 A 
ATOM     23  F   UNL d   1     -42.362  12.266  21.429  0.00  0.00    -0.204 F 
ATOM     24  C   UNL d   1     -44.270  13.362  21.466  0.00  0.00     0.020 A 
ENDBRANCH   2  18
TORSDOF 5
ENDMDL
MODEL 3
REMARK VINA RESULT:      -4.7      9.344     10.606
REMARK  5 active torsions:
REMARK  status: ('A' for Active; 'I' for Inactive)
REMARK    1  A    between atoms: N_2  and  S_1 
REMARK    2  A    between atoms: C_3  and  S_1 
REMARK    3  A    between atoms: C_10  and  C_3 
REMARK    4  A    between atoms: C_9  and  N_4 
REMARK    5  A    between atoms: C_16  and  C_10 
ROOT
ATOM      1  N   UNL d   1     -38.649  14.317  19.078  0.00  0.00    -0.226 N 
ATOM      2  N   UNL d   1     -38.448  14.176  17.463  0.00  0.00    -0.301 N 
ATOM      3  C   UNL d   1     -38.771  13.592  18.720  0.00  0.00     0.111 A 
ATOM      4  C   UNL d   1     -38.426  14.979  18.638  0.00  0.00     0.111 A 
ATOM      5  C   UNL d   1     -38.671  13.515  17.906  0.00  0.00     0.100 A 
ATOM      6  C   UNL d   1     -38.324  14.912  17.823  0.00  0.00     0.100 A 
ENDROOT
BRANCH   1   7
ATOM      7  S   UNL d   1     -38.754  14.385  19.911  0.00  0.00     0.272 S 
ATOM      8  O   UNL d   1     -37.941  14.511  20.000  0.00  0.00    -0.200 OA
ATOM      9  O   UNL d   1     -39.578  14.258  19.815  0.00  0.00    -0.200 OA
BRANCH   7  10
ATOM     10  C   UNL d   1     -38.869  14.452  20.736  0.00  0.00     0.116 C 
BRANCH  10  11
ATOM     11  C   UNL d   1     -38.401  13.999  21.246  0.00  0.00     0.014 C 
BRANCH  11  12
ATOM     12  C   UNL d   1     -38.531  14.046  22.058  0.00  0.00     0.001 A 
ATOM     13  C   UNL d   1     -38.659  13.344  22.517  0.00  0.00     0.000 A 
ATOM     14  C   UNL d   1     -38.789  13.402  23.333  0.00  0.00     0.000 A 
ATOM     15  C   UNL d   1     -38.791  14.164  23.697  0.00  0.00     0.000 A 
ATOM     16  C   UNL d   1     -38.667  14.838  23.255  0.00  0.00     0.000 A 
ATOM     17  C   UNL d   1     -38.537  14.771  22.431  0.00  0.00     0.000 A 
ENDBRANCH  11  12
ENDBRANCH  10  11
ENDBRANCH   7  10
ENDBRANCH   1   7
BRANCH   2  18
ATOM     18  C   UNL d   1     -38.347  14.097  16.638  0.00  0.00     0.064 A 
ATOM     19  C   UNL d   1     -38.491  14.738  16.142  0.00  0.00     0.020 A 
ATOM     20  C   UNL d   1     -38.389  14.653  15.329  0.00  0.00     0.031 A 
ATOM     21  C   UNL d   1     -38.145  13.932  15.021  0.00  0.00     0.140 A 
ATOM     22  C   UNL d   1     -37.998  13.281  15.516  0.00  0.00     0.031 A 
ATOM     23  F   UNL d   1     -38.039  13.841  14.182  0.00  0.00    -0.204 F 
ATOM     24  C   UNL d   1     -38.101  13.369  16.330  0.00  0.00     0.020 A 
ENDBRANCH   2  18
TORSDOF 5
ENDMDL
MODEL 4
REMARK VINA RESULT:      -4.6      9.243     10.642
REMARK  5 active torsions:
REMARK  status: ('A' for Active; 'I' for Inactive)
REMARK    1  A    between atoms: N_2  and  S_1 
REMARK    2  A    between atoms: C_3  and  S_1 
REMARK    3  A    between atoms: C_10  and  C_3 
REMARK    4  A    between atoms: C_9  and  N_4 
REMARK    5  A    between atoms: C_16  and  C_10 
ROOT
ATOM      1  N   UNL d   1     -39.251  15.034  17.605  0.00  0.00    -0.226 N 
ATOM      2  N   UNL d   1     -39.669  15.293  19.163  0.00  0.00    -0.301 N 
ATOM      3  C   UNL d   1     -39.507  15.776  17.834  0.00  0.00     0.111 A 
ATOM      4  C   UNL d   1     -39.200  14.413  18.148  0.00  0.00     0.111 A 
ATOM      5  C   UNL d   1     -39.719  15.913  18.618  0.00  0.00     0.100 A 
ATOM      6  C   UNL d   1     -39.410  14.540  18.935  0.00  0.00     0.100 A 
ENDROOT
BRANCH   1   7
ATOM      7  S   UNL d   1     -39.037  14.903  16.801  0.00  0.00     0.272 S 
ATOM      8  O   UNL d   1     -38.239  14.882  17.021  0.00  0.00    -0.200 OA
ATOM      9  O   UNL d   1     -39.847  14.926  16.585  0.00  0.00    -0.200 OA
BRANCH   7  10
ATOM     10  C   UNL d   1     -38.834  14.774  16.001  0.00  0.00     0.116 C 
BRANCH  10  11
ATOM     11  C   UNL d   1     -38.264  14.205  15.816  0.00  0.00     0.014 C 
BRANCH  11  12
ATOM     12  C   UNL d   1     -38.156  13.985  15.029  0.00  0.00     0.001 A 
ATOM     13  C   UNL d   1     -38.057  13.169  14.818  0.00  0.00     0.000 A 
ATOM     14  C   UNL d   1     -37.949  12.958  14.024  0.00  0.00     0.000 A 
ATOM     15  C   UNL d   1     -37.940  13.563  13.435  0.00  0.00     0.000 A 
ATOM     16  C   UNL d   1     -38.036  14.347  13.639  0.00  0.00     0.000 A 
ATOM     17  C   UNL d   1     -38.144  14.552  14.443  0.00  0.00     0.000 A 
ENDBRANCH  11  12
ENDBRANCH  10  11
ENDBRANCH   7  10
ENDBRANCH   1   7
BRANCH   2  18
ATOM     18  C   UNL d   1     -39.884  15.433  19.958  0.00  0.00     0.064 A 
ATOM     19  C   UNL d   1     -40.643  15.252  20.217  0.00  0.00     0.020 A 
ATOM     20  C   UNL d   1     -40.848  15.392  21.002  0.00  0.00     0.031 A 
ATOM     21  C   UNL d   1     -40.296  15.711  21.519  0.00  0.00     0.140 A 
ATOM     22  C   UNL d   1     -39.526  15.896  21.263  0.00  0.00     0.031 A 
ATOM     23  F   UNL d   1     -40.504  15.857  22.330  0.00  0.00    -0.204 F 
ATOM     24  C   UNL d   1     -39.324  15.754  20.476  0.00  0.00     0.020 A 
ENDBRANCH   2  18
TORSDOF 5
ENDMDL
MODEL 5
REMARK VINA RESULT:      -4.6      2.143      2.835
REMARK  5 active torsions:
REMARK  status: ('A' for Active; 'I' for Inactive)
REMARK    1  A    between atoms: N_2  and  S_1 
REMARK    2  A    between atoms: C_3  and  S_1 
REMARK    3  A    between atoms: C_10  and  C_3 
REMARK    4  A    between atoms: C_9  and  N_4 
REMARK    5  A    between atoms: C_16  and  C_10 
ROOT
ATOM      1  N   UNL d   1     -46.302  12.966  22.648  0.00  0.00    -0.226 N 
ATOM      2  N   UNL d   1     -47.870  12.671  23.001  0.00  0.00    -0.301 N 
ATOM      3  C   UNL d   1     -46.887  13.283  22.172  0.00  0.00     0.111 A 
ATOM      4  C   UNL d   1     -46.489  12.500  23.303  0.00  0.00     0.111 A 
ATOM      5  C   UNL d   1     -47.680  13.138  22.346  0.00  0.00     0.100 A 
ATOM      6  C   UNL d   1     -47.279  12.349  23.484  0.00  0.00     0.100 A 
ENDROOT
BRANCH   1   7
ATOM      7  S   UNL d   1     -45.495  13.121  22.462  0.00  0.00     0.272 S 
ATOM      8  O   UNL d   1     -45.302  12.342  22.669  0.00  0.00    -0.200 OA
ATOM      9  O   UNL d   1     -45.697  13.908  22.254  0.00  0.00    -0.200 OA
BRANCH   7  10
ATOM     10  C   UNL d   1     -44.697  13.284  22.276  0.00  0.00     0.116 C 
BRANCH  10  11
ATOM     11  C   UNL d   1     -44.345  12.894  21.637  0.00  0.00     0.014 C 
BRANCH  11  12
ATOM     12  C   UNL d   1     -43.547  13.026  21.477  0.00  0.00     0.001 A 
ATOM     13  C   UNL d   1     -43.292  13.755  21.124  0.00  0.00     0.000 A 
ATOM     14  C   UNL d   1     -42.488  13.878  20.967  0.00  0.00     0.000 A 
ATOM     15  C   UNL d   1     -41.933  13.273  21.162  0.00  0.00     0.000 A 
ATOM     16  C   UNL d   1     -42.179  12.573  21.501  0.00  0.00     0.000 A 
ATOM     17  C   UNL d   1     -42.993  12.456  21.657  0.00  0.00     0.000 A 
ENDBRANCH  11  12
ENDBRANCH  10  11
ENDBRANCH   7  10
ENDBRANCH   1   7
BRANCH   2  18
ATOM     18  C   UNL d   1     -48.673  12.524  23.176  0.00  0.00     0.064 A 
ATOM     19  C   UNL d   1     -49.201  13.152  23.245  0.00  0.00     0.020 A 
ATOM     20  C   UNL d   1     -49.992  12.999  23.418  0.00  0.00     0.031 A 
ATOM     21  C   UNL d   1     -50.247  12.226  23.520  0.00  0.00     0.140 A 
ATOM     22  C   UNL d   1     -49.718  11.587  23.451  0.00  0.00     0.031 A 
ATOM     23  F   UNL d   1     -51.062  12.065  23.698  0.00  0.00    -0.204 F 
ATOM     24  C   UNL d   1     -48.926  11.743  23.278  0.00  0.00     0.020 A 
ENDBRANCH   2  18
TORSDOF 5
ENDMDL
MODEL 6
REMARK VINA RESULT:      -3.6      3.405      4.399
REMARK  5 active torsions:
REMARK  status: ('A' for Active; 'I' for Inactive)
REMARK    1  A    between atoms: N_2  and  S_1 
REMARK    2  A    between atoms: C_3  and  S_1 
REMARK    3  A    between atoms: C_10  and  C_3 
REMARK    4  A    between atoms: C_9  and  N_4 
REMARK    5  A    between atoms: C_16  and  C_10 
ROOT
ATOM      1  N   UNL d   1     -44.131  12.841  21.968  0.00  0.00    -0.226 N 
ATOM      2  N   UNL d   1     -45.639  12.596  22.545  0.00  0.00    -0.301 N 
ATOM      3  C   UNL d   1     -44.693  13.428  21.883  0.00  0.00     0.111 A 
ATOM      4  C   UNL d   1     -44.312  12.126  22.340  0.00  0.00     0.111 A 
ATOM      5  C   UNL d   1     -45.455  13.311  22.172  0.00  0.00     0.100 A 
ATOM      6  C   UNL d   1     -45.072  11.999  22.633  0.00  0.00     0.100 A 
ENDROOT
BRANCH   1   7
ATOM      7  S   UNL d   1     -43.354  12.970  21.669  0.00  0.00     0.272 S 
ATOM      8  O   UNL d   1     -43.502  13.784  21.644  0.00  0.00    -0.200 OA
ATOM      9  O   UNL d   1     -43.209  12.144  21.696  0.00  0.00    -0.200 OA
BRANCH   7  10
ATOM     10  C   UNL d   1     -42.581  13.087  21.373  0.00  0.00     0.116 C 
BRANCH  10  11
ATOM     11  C   UNL d   1     -42.377  13.827  21.063  0.00  0.00     0.014 C 
BRANCH  11  12
ATOM     12  C   UNL d   1     -41.600  13.959  20.821  0.00  0.00     0.001 A 
ATOM     13  C   UNL d   1     -41.408  14.014  19.996  0.00  0.00     0.000 A 
ATOM     14  C   UNL d   1     -40.625  14.147  19.763  0.00  0.00     0.000 A 
ATOM     15  C   UNL d   1     -40.026  14.227  20.353  0.00  0.00     0.000 A 
ATOM     16  C   UNL d   1     -40.212  14.174  21.146  0.00  0.00     0.000 A 
ATOM     17  C   UNL d   1     -41.006  14.039  21.374  0.00  0.00     0.000 A 
ENDBRANCH  11  12
ENDBRANCH  10  11
ENDBRANCH   7  10
ENDBRANCH   1   7
BRANCH   2  18
ATOM     18  C   UNL d   1     -46.412  12.478  22.838  0.00  0.00     0.064 A 
ATOM     19  C   UNL d   1     -46.555  11.894  23.401  0.00  0.00     0.020 A 
ATOM     20  C   UNL d   1     -47.320  11.784  23.685  0.00  0.00     0.031 A 
ATOM     21  C   UNL d   1     -47.932  12.254  23.406  0.00  0.00     0.140 A 
ATOM     22  C   UNL d   1     -47.795  12.846  22.838  0.00  0.00     0.031 A 
ATOM     23  F   UNL d   1     -48.723  12.142  23.698  0.00  0.00    -0.204 F 
ATOM     24  C   UNL d   1     -47.027  12.954  22.555  0.00  0.00     0.020 A 
ENDBRANCH   2  18
TORSDOF 5
ENDMDL
