MODEL 1
REMARK VINA RESULT:      41.8      0.000      0.000
REMARK  5 active torsions:
REMARK  status: ('A' for Active; 'I' for Inactive)
REMARK    1  A    between atoms: C_10  and  C_3 
REMARK    2  A    between atoms: C_11  and  N_5 
REMARK    3  A    between atoms: O_17  and  C_10 
REMARK    4  A    between atoms: C_22  and  O_17 
REMARK    5  A    between atoms: O_21  and  C_18 
ROOT
ATOM      1  C   UNL d   1     -58.638 -98.782 -43.687  0.00  0.00     0.086 A 
ATOM      2  C   UNL d   1     -57.823 -98.778 -43.592  0.00  0.00     0.038 A 
ATOM      3  C   UNL d   1     -57.314 -98.789 -44.245  0.00  0.00     0.165 A 
ATOM      4  C   UNL d   1     -58.960 -98.797 -44.451  0.00  0.00     0.282 A 
ATOM      5  N   UNL d   1     -58.465 -98.809 -45.107  0.00  0.00    -0.194 N 
ATOM      6  N   UNL d   1     -57.644 -98.805 -45.004  0.00  0.00    -0.157 NA
ATOM      7  C   UNL d   1     -58.984 -98.768 -42.935  0.00  0.00     0.137 A 
ATOM      8  C   UNL d   1     -57.654 -98.762 -42.785  0.00  0.00     0.039 A 
ATOM      9  S   UNL d   1     -58.376 -98.756 -42.381  0.00  0.00    -0.066 SA
ATOM     10  O   UNL d   1     -59.775 -98.801 -44.555  0.00  0.00    -0.265 OA
ATOM     11  N   UNL d   1     -59.796 -98.766 -42.775  0.00  0.00    -0.141 N 
ENDROOT
BRANCH   5  12
ATOM     12  C   UNL d   1     -58.786 -98.824 -45.866  0.00  0.00     0.086 A 
ATOM     13  C   UNL d   1     -59.606 -98.755 -45.975  0.00  0.00     0.021 A 
ATOM     14  C   UNL d   1     -59.921 -98.772 -46.737  0.00  0.00     0.026 A 
ATOM     15  C   UNL d   1     -59.426 -98.856 -47.389  0.00  0.00     0.094 A 
ATOM     16  C   UNL d   1     -58.607 -98.924 -47.281  0.00  0.00     0.026 A 
ATOM     17  C   UNL d   1     -58.292 -98.908 -46.515  0.00  0.00     0.021 A 
BRANCH  15  18
ATOM     18  O   UNL d   1     -59.748 -98.871 -48.146  0.00  0.00    -0.328 OA
ATOM     19  C   UNL d   1     -59.918 -99.599 -48.508  0.00  0.00     0.181 C 
ENDBRANCH  15  18
ENDBRANCH   5  12
BRANCH   3  20
ATOM     20  C   UNL d   1     -56.497 -98.786 -44.145  0.00  0.00     0.320 C 
ATOM     21  O   UNL d   1     -56.173 -98.790 -43.382  0.00  0.00    -0.257 OA
BRANCH  20  22
ATOM     22  O   UNL d   1     -56.000 -98.778 -44.806  0.00  0.00    -0.270 OA
BRANCH  22  23
ATOM     23  C   UNL d   1     -55.199 -98.940 -44.720  0.00  0.00     0.126 C 
ATOM     24  C   UNL d   1     -54.786 -99.339 -45.311  0.00  0.00     0.029 C 
ENDBRANCH  22  23
ENDBRANCH  20  22
ENDBRANCH   3  20
TORSDOF 5
ENDMDL
