MODEL 1
REMARK VINA RESULT:      -1.4      0.000      0.000
REMARK  9 active torsions:
REMARK  status: ('A' for Active; 'I' for Inactive)
REMARK    1  A    between atoms: N_6  and  S_1 
REMARK    2  A    between atoms: C_12  and  S_1 
REMARK    3  A    between atoms: C_2  and  C_3 
REMARK    4  A    between atoms: C_4  and  C_2 
REMARK    5  A    between atoms: C_5  and  C_2 
REMARK    6  A    between atoms: O_14  and  C_4 
REMARK    7  A    between atoms: C_9  and  C_5 
REMARK    8  A    between atoms: C_7  and  N_6 
REMARK    9  A    between atoms: C_29  and  O_14 
ROOT
ATOM      1  C   UNL d   1      59.622  -2.203  28.935  0.00  0.00     0.049 A 
ATOM      2  C   UNL d   1      58.969  -0.940  29.029  0.00  0.00     0.094 A 
ATOM      3  C   UNL d   1      60.330  -1.813  28.745  0.00  0.00     0.196 A 
ATOM      4  C   UNL d   1      58.944  -1.768  29.076  0.00  0.00     0.023 A 
ATOM      5  C   UNL d   1      60.357  -0.980  28.696  0.00  0.00     0.040 A 
ATOM      6  C   UNL d   1      59.679  -0.545  28.838  0.00  0.00     0.021 A 
ATOM      7  O   UNL d   1      61.013  -2.252  28.602  0.00  0.00    -0.287 OA
ATOM      8  C   UNL d   1      61.081  -0.640  28.505  0.00  0.00     0.003 A 
ATOM      9  C   UNL d   1      59.695   0.280  28.793  0.00  0.00     0.002 A 
ATOM     10  C   UNL d   1      61.073   0.246  28.463  0.00  0.00     0.000 A 
ATOM     11  C   UNL d   1      60.411   0.671  28.601  0.00  0.00     0.000 A 
ENDROOT
BRANCH   2  12
ATOM     12  N   UNL d   1      58.253  -0.519  29.181  0.00  0.00    -0.158 NA
BRANCH  12  13
ATOM     13  S   UNL d   1      57.980  -0.443  29.949  0.00  0.00     0.285 S 
ATOM     14  O   UNL d   1      58.325   0.321  30.001  0.00  0.00    -0.198 OA
ATOM     15  O   UNL d   1      57.632  -1.194  29.918  0.00  0.00    -0.198 OA
BRANCH  13  16
ATOM     16  C   UNL d   1      57.703  -0.352  30.747  0.00  0.00     0.105 A 
ATOM     17  C   UNL d   1      57.187  -0.884  31.078  0.00  0.00     0.013 A 
ATOM     18  C   UNL d   1      56.923  -0.795  31.840  0.00  0.00     0.001 A 
ATOM     19  C   UNL d   1      56.408  -1.337  32.154  0.00  0.00     0.000 A 
ATOM     20  C   UNL d   1      57.187  -0.134  32.309  0.00  0.00     0.000 A 
ATOM     21  C   UNL d   1      56.118  -1.253  32.971  0.00  0.00     0.000 A 
ATOM     22  C   UNL d   1      56.382  -0.602  33.422  0.00  0.00     0.000 A 
ATOM     23  C   UNL d   1      56.918  -0.038  33.096  0.00  0.00     0.000 A 
ATOM     24  C   UNL d   1      57.703   0.385  31.954  0.00  0.00     0.001 A 
ATOM     25  C   UNL d   1      57.967   0.293  31.188  0.00  0.00     0.013 A 
ENDBRANCH  13  16
ENDBRANCH  12  13
ENDBRANCH   2  12
BRANCH   1  26
ATOM     26  C   UNL d   1      59.595  -3.036  28.983  0.00  0.00     0.110 C 
BRANCH  26  27
ATOM     27  C   UNL d   1      58.937  -3.413  28.656  0.00  0.00     0.303 C 
ATOM     28  O   UNL d   1      58.230  -3.002  28.544  0.00  0.00    -0.259 OA
BRANCH  27  29
ATOM     29  O   UNL d   1      59.032  -4.201  28.456  0.00  0.00    -0.273 OA
BRANCH  29  30
ATOM     30  C   UNL d   1      58.390  -4.712  28.546  0.00  0.00     0.103 C 
ATOM     31  C   UNL d   1      58.515  -5.491  28.677  0.00  0.00     0.027 C 
ATOM     32  C   UNL d   1      57.628  -4.406  28.499  0.00  0.00     0.027 C 
ENDBRANCH  29  30
ENDBRANCH  27  29
ENDBRANCH  26  27
BRANCH  26  33
ATOM     33  C   UNL d   1      60.211  -3.464  29.348  0.00  0.00     0.272 C 
ATOM     34  O   UNL d   1      60.668  -3.952  28.906  0.00  0.00    -0.282 OA
BRANCH  33  35
ATOM     35  C   UNL d   1      60.340  -3.380  30.152  0.00  0.00     0.456 C 
ATOM     36  F   UNL d   1      61.133  -3.638  30.018  0.00  0.00    -0.163 F 
ATOM     37  F   UNL d   1      59.560  -3.131  30.251  0.00  0.00    -0.163 F 
ATOM     38  F   UNL d   1      60.493  -3.305  30.945  0.00  0.00    -0.163 F 
ENDBRANCH  33  35
ENDBRANCH  26  33
ENDBRANCH   1  26
TORSDOF 9
ENDMDL
