MODEL 1
REMARK VINA RESULT:       3.5      0.000      0.000
REMARK  1 active torsions:
REMARK  status: ('A' for Active; 'I' for Inactive)
REMARK    1  A    between atoms: C_8  and  C_3 
ROOT
ATOM      1  N   UNL d   1     -56.021-102.716 -37.962  0.00  0.00    -0.145 NA
ATOM      2  N   UNL d   1     -56.198-102.867 -38.763  0.00  0.00    -0.106 NA
ATOM      3  C   UNL d   1     -55.280-102.430 -37.756  0.00  0.00     0.103 A 
ATOM      4  C   UNL d   1     -55.630-102.730 -39.344  0.00  0.00     0.297 A 
ATOM      5  C   UNL d   1     -54.711-102.293 -38.347  0.00  0.00     0.026 A 
ATOM      6  C   UNL d   1     -54.886-102.441 -39.126  0.00  0.00     0.066 A 
ATOM      7  O   UNL d   1     -55.806-102.879 -40.128  0.00  0.00    -0.264 OA
ENDROOT
BRANCH   3   8
ATOM      8  C   UNL d   1     -55.093-102.277 -36.976  0.00  0.00     0.019 A 
ATOM      9  C   UNL d   1     -54.904-101.498 -36.756  0.00  0.00     0.002 A 
ATOM     10  C   UNL d   1     -54.712-101.334 -35.966  0.00  0.00     0.000 A 
ATOM     11  C   UNL d   1     -54.711-101.944 -35.406  0.00  0.00     0.000 A 
ATOM     12  C   UNL d   1     -54.899-102.714 -35.628  0.00  0.00     0.000 A 
ATOM     13  C   UNL d   1     -55.089-102.873 -36.415  0.00  0.00     0.002 A 
ENDBRANCH   3   8
TORSDOF 1
ENDMDL
