MODEL 1
REMARK VINA RESULT:      67.1      0.000      0.000
REMARK  4 active torsions:
REMARK  status: ('A' for Active; 'I' for Inactive)
REMARK    1  A    between atoms: C_2  and  C_1 
REMARK    2  A    between atoms: C_4  and  C_2 
REMARK       I    between atoms: C_3  and  N_6 
REMARK    3  A    between atoms: C_7  and  C_3 
REMARK    4  A    between atoms: N_6  and  C_5 
ROOT
ATOM      1  C   UNL d   1     -51.273  25.835  33.606  0.00  0.00     0.058 A 
ATOM      2  C   UNL d   1     -50.438  25.824  33.468  0.00  0.00     0.088 A 
ATOM      3  C   UNL d   1     -51.671  26.530  33.590  0.00  0.00     0.016 A 
ATOM      4  C   UNL d   1     -50.070  26.548  33.320  0.00  0.00     0.020 A 
ATOM      5  C   UNL d   1     -51.278  27.240  33.440  0.00  0.00     0.058 A 
ATOM      6  C   UNL d   1     -50.489  27.255  33.306  0.00  0.00     0.013 A 
ATOM      7 CL   UNL d   1     -51.721  27.961  33.428  0.00  0.00    -0.082 Cl
ENDROOT
BRANCH   1   8
ATOM      8  C   UNL d   1     -51.689  25.139  33.758  0.00  0.00     0.198 C 
ATOM      9  O   UNL d   1     -51.272  24.498  34.070  0.00  0.00    -0.286 OA
BRANCH   8  10
ATOM     10  C   UNL d   1     -52.495  25.071  33.608  0.00  0.00     0.050 A 
ATOM     11  C   UNL d   1     -52.849  24.326  33.579  0.00  0.00     0.061 A 
ATOM     12 CL   UNL d   1     -52.412  23.619  33.699  0.00  0.00    -0.082 Cl
ATOM     13  C   UNL d   1     -53.663  24.263  33.428  0.00  0.00     0.011 A 
ATOM     14  C   UNL d   1     -54.119  24.941  33.306  0.00  0.00     0.001 A 
ATOM     15  C   UNL d   1     -53.740  25.674  33.340  0.00  0.00     0.000 A 
ATOM     16  C   UNL d   1     -52.925  25.737  33.492  0.00  0.00     0.004 A 
ENDBRANCH   8  10
ENDBRANCH   1   8
BRANCH   2  17
ATOM     17  N   UNL d   1     -49.990  25.100  33.479  0.00  0.00    -0.206 NA
ATOM     18  C   UNL d   1     -49.205  25.116  33.635  0.00  0.00     0.302 C 
ATOM     19  O   UNL d   1     -48.817  25.828  33.787  0.00  0.00    -0.263 OA
BRANCH  18  20
ATOM     20  C   UNL d   1     -48.782  24.406  33.643  0.00  0.00     0.158 A 
ATOM     21  O   UNL d   1     -48.956  23.668  33.931  0.00  0.00    -0.300 OA
ATOM     22  C   UNL d   1     -48.324  23.193  33.777  0.00  0.00     0.123 A 
ATOM     23  C   UNL d   1     -47.756  23.581  33.408  0.00  0.00     0.029 A 
ATOM     24  C   UNL d   1     -48.028  24.373  33.308  0.00  0.00     0.032 A 
ENDBRANCH  18  20
ENDBRANCH   2  17
TORSDOF 4
ENDMDL
MODEL 2
REMARK VINA RESULT:      67.3      1.555      2.888
REMARK  4 active torsions:
REMARK  status: ('A' for Active; 'I' for Inactive)
REMARK    1  A    between atoms: C_2  and  C_1 
REMARK    2  A    between atoms: C_4  and  C_2 
REMARK       I    between atoms: C_3  and  N_6 
REMARK    3  A    between atoms: C_7  and  C_3 
REMARK    4  A    between atoms: N_6  and  C_5 
ROOT
ATOM      1  C   UNL d   1     -51.524  25.189  33.527  0.00  0.00     0.058 A 
ATOM      2  C   UNL d   1     -50.842  25.690  33.521  0.00  0.00     0.088 A 
ATOM      3  C   UNL d   1     -51.437  24.396  33.457  0.00  0.00     0.016 A 
ATOM      4  C   UNL d   1     -50.106  25.325  33.441  0.00  0.00     0.020 A 
ATOM      5  C   UNL d   1     -50.689  24.056  33.379  0.00  0.00     0.058 A 
ATOM      6  C   UNL d   1     -50.029  24.510  33.370  0.00  0.00     0.013 A 
ATOM      7 CL   UNL d   1     -50.624  23.216  33.307  0.00  0.00    -0.082 Cl
ENDROOT
BRANCH   1   8
ATOM      8  C   UNL d   1     -52.283  25.503  33.604  0.00  0.00     0.198 C 
ATOM      9  O   UNL d   1     -52.360  26.324  33.652  0.00  0.00    -0.286 OA
BRANCH   8  10
ATOM     10  C   UNL d   1     -52.952  25.026  33.634  0.00  0.00     0.050 A 
ATOM     11  C   UNL d   1     -52.891  24.246  33.895  0.00  0.00     0.061 A 
ATOM     12 CL   UNL d   1     -52.160  23.910  34.136  0.00  0.00    -0.082 Cl
ATOM     13  C   UNL d   1     -53.569  23.767  33.923  0.00  0.00     0.011 A 
ATOM     14  C   UNL d   1     -54.303  24.069  33.692  0.00  0.00     0.001 A 
ATOM     15  C   UNL d   1     -54.336  24.853  33.436  0.00  0.00     0.000 A 
ATOM     16  C   UNL d   1     -53.657  25.331  33.408  0.00  0.00     0.004 A 
ENDBRANCH   8  10
ENDBRANCH   1   8
BRANCH   2  17
ATOM     17  N   UNL d   1     -50.905  26.536  33.593  0.00  0.00    -0.206 NA
ATOM     18  C   UNL d   1     -50.244  26.989  33.603  0.00  0.00     0.302 C 
ATOM     19  O   UNL d   1     -49.495  26.648  33.544  0.00  0.00    -0.263 OA
BRANCH  18  20
ATOM     20  C   UNL d   1     -50.319  27.808  33.674  0.00  0.00     0.158 A 
ATOM     21  O   UNL d   1     -50.843  28.340  33.356  0.00  0.00    -0.300 OA
ATOM     22  C   UNL d   1     -50.641  29.071  33.625  0.00  0.00     0.123 A 
ATOM     23  C   UNL d   1     -50.018  29.041  34.096  0.00  0.00     0.029 A 
ATOM     24  C   UNL d   1     -49.789  28.231  34.145  0.00  0.00     0.032 A 
ENDBRANCH  18  20
ENDBRANCH   2  17
TORSDOF 4
ENDMDL
