MODEL 1
REMARK VINA RESULT:      63.0      0.000      0.000
REMARK  8 active torsions:
REMARK  status: ('A' for Active; 'I' for Inactive)
REMARK    1  A    between atoms: C_2  and  S_1 
REMARK    2  A    between atoms: N_3  and  S_1 
REMARK    3  A    between atoms: C_17  and  N_3 
REMARK    4  A    between atoms: O_21  and  C_8 
REMARK    5  A    between atoms: O_22  and  C_16 
REMARK    6  A    between atoms: C_18  and  C_17 
REMARK    7  A    between atoms: C_23  and  O_21 
REMARK    8  A    between atoms: C_24  and  O_22 
ROOT
ATOM      1  S   UNL d   1     -56.058-100.924 -44.489  0.00  0.00     0.287 S 
ATOM      2  O   UNL d   1     -56.345-101.080 -45.244  0.00  0.00    -0.198 OA
ATOM      3  O   UNL d   1     -55.645-101.657 -44.507  0.00  0.00    -0.198 OA
ENDROOT
BRANCH   1   4
ATOM      4  C   UNL d   1     -56.467-100.192 -44.466  0.00  0.00     0.130 A 
ATOM      5  C   UNL d   1     -57.263-100.167 -44.251  0.00  0.00     0.040 A 
ATOM      6  C   UNL d   1     -57.653 -99.448 -44.231  0.00  0.00     0.101 A 
ATOM      7  C   UNL d   1     -57.257 -98.756 -44.423  0.00  0.00     0.027 A 
ATOM      8  C   UNL d   1     -56.460 -98.764 -44.640  0.00  0.00     0.028 A 
ATOM      9  C   UNL d   1     -56.071 -99.500 -44.657  0.00  0.00     0.112 A 
BRANCH   6  10
ATOM     10  O   UNL d   1     -58.473 -99.435 -44.009  0.00  0.00    -0.305 OA
BRANCH  10  11
ATOM     11  C   UNL d   1     -58.745 -98.935 -43.393  0.00  0.00     0.123 C 
ATOM     12  C   UNL d   1     -59.462 -99.103 -43.030  0.00  0.00     0.029 C 
ENDBRANCH  10  11
ENDBRANCH   6  10
BRANCH   9  13
ATOM     13  O   UNL d   1     -55.236 -99.519 -44.883  0.00  0.00    -0.304 OA
BRANCH  13  14
ATOM     14  C   UNL d   1     -54.988-100.027 -45.506  0.00  0.00     0.123 C 
ATOM     15  C   UNL d   1     -54.713 -99.698 -46.214  0.00  0.00     0.029 C 
ENDBRANCH  13  14
ENDBRANCH   9  13
ENDBRANCH   1   4
BRANCH   1  16
ATOM     16  N   UNL d   1     -55.757-100.777 -43.718  0.00  0.00    -0.157 NA
BRANCH  16  17
ATOM     17  C   UNL d   1     -55.063-101.168 -43.451  0.00  0.00     0.112 C 
BRANCH  17  18
ATOM     18  C   UNL d   1     -55.090-101.602 -42.719  0.00  0.00     0.022 A 
ATOM     19  C   UNL d   1     -54.873-101.208 -42.022  0.00  0.00     0.028 A 
ATOM     20  C   UNL d   1     -54.898-101.624 -41.309  0.00  0.00     0.119 A 
ATOM     21  O   UNL d   1     -54.717-101.388 -40.536  0.00  0.00    -0.300 OA
ATOM     22  C   UNL d   1     -55.131-102.409 -41.289  0.00  0.00     0.119 A 
ATOM     23  C   UNL d   1     -54.845-102.040 -40.050  0.00  0.00     0.304 A 
ATOM     24  O   UNL d   1     -55.096-102.661 -40.504  0.00  0.00    -0.300 OA
ATOM     25  C   UNL d   1     -55.345-102.795 -41.982  0.00  0.00     0.026 A 
ATOM     26  C   UNL d   1     -55.324-102.388 -42.700  0.00  0.00     0.004 A 
ENDBRANCH  17  18
ENDBRANCH  16  17
ENDBRANCH   1  16
TORSDOF 8
ENDMDL
