MODEL 1
REMARK VINA RESULT:      -7.8      0.000      0.000
REMARK  3 active torsions:
REMARK  status: ('A' for Active; 'I' for Inactive)
REMARK    1  A    between atoms: C_4  and  C_1 
REMARK    2  A    between atoms: C_9  and  N_2 
REMARK    3  A    between atoms: C_8  and  N_3 
ROOT
ATOM      1  C   UNL d   1     -48.121  13.870  22.762  0.00  0.00     0.139 A 
ATOM      2  N   UNL d   1     -48.599  14.541  22.729  0.00  0.00    -0.290 N 
ATOM      3  N   UNL d   1     -47.332  14.108  22.730  0.00  0.00    -0.290 N 
ATOM      4  C   UNL d   1     -48.114  15.190  22.677  0.00  0.00     0.101 A 
ATOM      5  C   UNL d   1     -47.340  14.930  22.677  0.00  0.00     0.101 A 
ENDROOT
BRANCH   2   6
ATOM      6  C   UNL d   1     -49.431  14.638  22.741  0.00  0.00     0.066 A 
ATOM      7  C   UNL d   1     -49.862  14.651  22.049  0.00  0.00     0.018 A 
ATOM      8  C   UNL d   1     -50.672  14.746  22.065  0.00  0.00     0.002 A 
ATOM      9  C   UNL d   1     -51.059  14.830  22.789  0.00  0.00     0.000 A 
ATOM     10  C   UNL d   1     -50.628  14.816  23.483  0.00  0.00     0.002 A 
ATOM     11  C   UNL d   1     -49.812  14.721  23.468  0.00  0.00     0.018 A 
ENDBRANCH   2   6
BRANCH   1  12
ATOM     12  C   UNL d   1     -48.414  13.095  22.818  0.00  0.00     0.063 A 
ATOM     13  S   UNL d   1     -48.561  12.811  22.028  0.00  0.00    -0.083 SA
ATOM     14  C   UNL d   1     -48.851  12.040  22.099  0.00  0.00     0.035 A 
ATOM     15  C   UNL d   1     -48.890  11.840  22.890  0.00  0.00     0.008 A 
ATOM     16  C   UNL d   1     -48.620  12.490  23.346  0.00  0.00     0.010 A 
ENDBRANCH   1  12
BRANCH   3  17
ATOM     17  C   UNL d   1     -46.729  13.556  22.752  0.00  0.00     0.066 A 
ATOM     18  C   UNL d   1     -46.528  13.180  23.456  0.00  0.00     0.018 A 
ATOM     19  C   UNL d   1     -45.914  12.623  23.457  0.00  0.00     0.002 A 
ATOM     20  C   UNL d   1     -45.508  12.443  22.778  0.00  0.00     0.000 A 
ATOM     21  C   UNL d   1     -45.700  12.816  22.057  0.00  0.00     0.002 A 
ATOM     22  C   UNL d   1     -46.311  13.372  22.047  0.00  0.00     0.018 A 
ENDBRANCH   3  17
TORSDOF 3
ENDMDL
MODEL 2
REMARK VINA RESULT:      -7.3      1.328      2.189
REMARK  3 active torsions:
REMARK  status: ('A' for Active; 'I' for Inactive)
REMARK    1  A    between atoms: C_4  and  C_1 
REMARK    2  A    between atoms: C_9  and  N_2 
REMARK    3  A    between atoms: C_8  and  N_3 
ROOT
ATOM      1  C   UNL d   1     -48.022  12.865  22.824  0.00  0.00     0.139 A 
ATOM      2  N   UNL d   1     -48.589  12.334  23.101  0.00  0.00    -0.290 N 
ATOM      3  N   UNL d   1     -47.275  12.572  23.013  0.00  0.00    -0.290 N 
ATOM      4  C   UNL d   1     -48.199  11.718  23.458  0.00  0.00     0.101 A 
ATOM      5  C   UNL d   1     -47.397  11.860  23.407  0.00  0.00     0.101 A 
ENDROOT
BRANCH   2   6
ATOM      6  C   UNL d   1     -49.426  12.340  23.069  0.00  0.00     0.066 A 
ATOM      7  C   UNL d   1     -49.869  12.611  23.698  0.00  0.00     0.018 A 
ATOM      8  C   UNL d   1     -50.684  12.615  23.662  0.00  0.00     0.002 A 
ATOM      9  C   UNL d   1     -51.064  12.343  22.982  0.00  0.00     0.000 A 
ATOM     10  C   UNL d   1     -50.621  12.071  22.351  0.00  0.00     0.002 A 
ATOM     11  C   UNL d   1     -49.801  12.067  22.386  0.00  0.00     0.018 A 
ENDBRANCH   2   6
BRANCH   1  12
ATOM     12  C   UNL d   1     -48.204  13.570  22.425  0.00  0.00     0.063 A 
ATOM     13  S   UNL d   1     -48.328  14.179  23.008  0.00  0.00    -0.083 SA
ATOM     14  C   UNL d   1     -48.508  14.874  22.597  0.00  0.00     0.035 A 
ATOM     15  C   UNL d   1     -48.500  14.720  21.794  0.00  0.00     0.008 A 
ATOM     16  C   UNL d   1     -48.312  13.911  21.677  0.00  0.00     0.010 A 
ENDBRANCH   1  12
BRANCH   3  17
ATOM     17  C   UNL d   1     -46.600  12.987  22.805  0.00  0.00     0.066 A 
ATOM     18  C   UNL d   1     -46.312  13.590  23.284  0.00  0.00     0.018 A 
ATOM     19  C   UNL d   1     -45.627  13.998  23.055  0.00  0.00     0.002 A 
ATOM     20  C   UNL d   1     -45.237  13.812  22.368  0.00  0.00     0.000 A 
ATOM     21  C   UNL d   1     -45.517  13.202  21.872  0.00  0.00     0.002 A 
ATOM     22  C   UNL d   1     -46.199  12.791  22.093  0.00  0.00     0.018 A 
ENDBRANCH   3  17
TORSDOF 3
ENDMDL
MODEL 3
REMARK VINA RESULT:      -6.5      8.024     10.031
REMARK  3 active torsions:
REMARK  status: ('A' for Active; 'I' for Inactive)
REMARK    1  A    between atoms: C_4  and  C_1 
REMARK    2  A    between atoms: C_9  and  N_2 
REMARK    3  A    between atoms: C_8  and  N_3 
ROOT
ATOM      1  C   UNL d   1     -39.342  14.746  18.496  0.00  0.00     0.139 A 
ATOM      2  N   UNL d   1     -39.340  14.766  19.321  0.00  0.00    -0.290 N 
ATOM      3  N   UNL d   1     -38.589  14.529  18.238  0.00  0.00    -0.290 N 
ATOM      4  C   UNL d   1     -38.596  14.564  19.573  0.00  0.00     0.101 A 
ATOM      5  C   UNL d   1     -38.134  14.418  18.916  0.00  0.00     0.101 A 
ENDROOT
BRANCH   2   6
ATOM      6  C   UNL d   1     -39.939  14.948  19.878  0.00  0.00     0.066 A 
ATOM      7  C   UNL d   1     -40.020  15.702  20.177  0.00  0.00     0.018 A 
ATOM      8  C   UNL d   1     -40.603  15.874  20.719  0.00  0.00     0.002 A 
ATOM      9  C   UNL d   1     -41.118  15.279  20.969  0.00  0.00     0.000 A 
ATOM     10  C   UNL d   1     -41.038  14.523  20.670  0.00  0.00     0.002 A 
ATOM     11  C   UNL d   1     -40.450  14.348  20.123  0.00  0.00     0.018 A 
ENDBRANCH   2   6
BRANCH   1  12
ATOM     12  C   UNL d   1     -40.006  14.921  18.030  0.00  0.00     0.063 A 
ATOM     13  S   UNL d   1     -40.021  15.762  17.898  0.00  0.00    -0.083 SA
ATOM     14  C   UNL d   1     -40.686  15.922  17.433  0.00  0.00     0.035 A 
ATOM     15  C   UNL d   1     -41.077  15.222  17.275  0.00  0.00     0.008 A 
ATOM     16  C   UNL d   1     -40.662  14.593  17.642  0.00  0.00     0.010 A 
ENDBRANCH   1  12
BRANCH   3  17
ATOM     17  C   UNL d   1     -38.426  14.463  17.439  0.00  0.00     0.066 A 
ATOM     18  C   UNL d   1     -38.143  15.107  17.012  0.00  0.00     0.018 A 
ATOM     19  C   UNL d   1     -37.984  15.020  16.203  0.00  0.00     0.002 A 
ATOM     20  C   UNL d   1     -38.101  14.310  15.826  0.00  0.00     0.000 A 
ATOM     21  C   UNL d   1     -38.387  13.648  16.245  0.00  0.00     0.002 A 
ATOM     22  C   UNL d   1     -38.548  13.727  17.052  0.00  0.00     0.018 A 
ENDBRANCH   3  17
TORSDOF 3
ENDMDL
MODEL 4
REMARK VINA RESULT:      -6.5      8.097     10.327
REMARK  3 active torsions:
REMARK  status: ('A' for Active; 'I' for Inactive)
REMARK    1  A    between atoms: C_4  and  C_1 
REMARK    2  A    between atoms: C_9  and  N_2 
REMARK    3  A    between atoms: C_8  and  N_3 
ROOT
ATOM      1  C   UNL d   1     -39.721  14.843  18.350  0.00  0.00     0.139 A 
ATOM      2  N   UNL d   1     -39.727  14.840  17.526  0.00  0.00    -0.290 N 
ATOM      3  N   UNL d   1     -40.471  15.057  18.617  0.00  0.00    -0.290 N 
ATOM      4  C   UNL d   1     -40.472  15.050  17.282  0.00  0.00     0.101 A 
ATOM      5  C   UNL d   1     -40.930  15.183  17.945  0.00  0.00     0.101 A 
ENDROOT
BRANCH   2   6
ATOM      6  C   UNL d   1     -39.132  14.669  16.961  0.00  0.00     0.066 A 
ATOM      7  C   UNL d   1     -38.931  13.899  16.784  0.00  0.00     0.018 A 
ATOM      8  C   UNL d   1     -38.352  13.737  16.233  0.00  0.00     0.002 A 
ATOM      9  C   UNL d   1     -37.965  14.358  15.851  0.00  0.00     0.000 A 
ATOM     10  C   UNL d   1     -38.166  15.130  16.029  0.00  0.00     0.002 A 
ATOM     11  C   UNL d   1     -38.750  15.295  16.583  0.00  0.00     0.018 A 
ENDBRANCH   2   6
BRANCH   1  12
ATOM     12  C   UNL d   1     -39.054  14.657  18.809  0.00  0.00     0.063 A 
ATOM     13  S   UNL d   1     -38.601  15.371  18.918  0.00  0.00    -0.083 SA
ATOM     14  C   UNL d   1     -37.942  15.171  19.375  0.00  0.00     0.035 A 
ATOM     15  C   UNL d   1     -37.969  14.373  19.551  0.00  0.00     0.008 A 
ATOM     16  C   UNL d   1     -38.658  14.044  19.203  0.00  0.00     0.010 A 
ENDBRANCH   1  12
BRANCH   3  17
ATOM     17  C   UNL d   1     -40.630  15.107  19.419  0.00  0.00     0.066 A 
ATOM     18  C   UNL d   1     -40.783  14.430  19.861  0.00  0.00     0.018 A 
ATOM     19  C   UNL d   1     -40.941  14.501  20.671  0.00  0.00     0.002 A 
ATOM     20  C   UNL d   1     -40.948  15.227  21.035  0.00  0.00     0.000 A 
ATOM     21  C   UNL d   1     -40.794  15.922  20.601  0.00  0.00     0.002 A 
ATOM     22  C   UNL d   1     -40.636  15.859  19.793  0.00  0.00     0.018 A 
ENDBRANCH   3  17
TORSDOF 3
ENDMDL
MODEL 5
REMARK VINA RESULT:      -6.1      7.678      9.343
REMARK  3 active torsions:
REMARK  status: ('A' for Active; 'I' for Inactive)
REMARK    1  A    between atoms: C_4  and  C_1 
REMARK    2  A    between atoms: C_9  and  N_2 
REMARK    3  A    between atoms: C_8  and  N_3 
ROOT
ATOM      1  C   UNL d   1     -39.497  15.189  20.090  0.00  0.00     0.139 A 
ATOM      2  N   UNL d   1     -39.349  15.218  19.280  0.00  0.00    -0.290 N 
ATOM      3  N   UNL d   1     -38.777  15.228  20.490  0.00  0.00    -0.290 N 
ATOM      4  C   UNL d   1     -38.546  15.274  19.176  0.00  0.00     0.101 A 
ATOM      5  C   UNL d   1     -38.193  15.281  19.912  0.00  0.00     0.101 A 
ENDROOT
BRANCH   2   6
ATOM      6  C   UNL d   1     -39.859  15.199  18.615  0.00  0.00     0.066 A 
ATOM      7  C   UNL d   1     -40.132  15.888  18.276  0.00  0.00     0.018 A 
ATOM      8  C   UNL d   1     -40.629  15.864  17.630  0.00  0.00     0.002 A 
ATOM      9  C   UNL d   1     -40.856  15.136  17.315  0.00  0.00     0.000 A 
ATOM     10  C   UNL d   1     -40.582  14.445  17.655  0.00  0.00     0.002 A 
ATOM     11  C   UNL d   1     -40.082  14.467  18.306  0.00  0.00     0.018 A 
ENDBRANCH   2   6
BRANCH   1  12
ATOM     12  C   UNL d   1     -40.257  15.131  20.420  0.00  0.00     0.063 A 
ATOM     13  S   UNL d   1     -40.569  15.919  20.504  0.00  0.00    -0.083 SA
ATOM     14  C   UNL d   1     -41.324  15.846  20.833  0.00  0.00     0.035 A 
ATOM     15  C   UNL d   1     -41.488  15.055  20.954  0.00  0.00     0.008 A 
ATOM     16  C   UNL d   1     -40.830  14.601  20.700  0.00  0.00     0.010 A 
ENDBRANCH   1  12
BRANCH   3  17
ATOM     17  C   UNL d   1     -38.753  15.211  21.308  0.00  0.00     0.066 A 
ATOM     18  C   UNL d   1     -38.754  15.909  21.745  0.00  0.00     0.018 A 
ATOM     19  C   UNL d   1     -38.730  15.869  22.572  0.00  0.00     0.002 A 
ATOM     20  C   UNL d   1     -38.704  15.156  22.959  0.00  0.00     0.000 A 
ATOM     21  C   UNL d   1     -38.702  14.441  22.530  0.00  0.00     0.002 A 
ATOM     22  C   UNL d   1     -38.726  14.471  21.705  0.00  0.00     0.018 A 
ENDBRANCH   3  17
TORSDOF 3
ENDMDL
MODEL 6
REMARK VINA RESULT:      -6.1      7.867      9.643
REMARK  3 active torsions:
REMARK  status: ('A' for Active; 'I' for Inactive)
REMARK    1  A    between atoms: C_4  and  C_1 
REMARK    2  A    between atoms: C_9  and  N_2 
REMARK    3  A    between atoms: C_8  and  N_3 
ROOT
ATOM      1  C   UNL d   1     -39.392  14.670  20.117  0.00  0.00     0.139 A 
ATOM      2  N   UNL d   1     -38.764  14.438  20.599  0.00  0.00    -0.290 N 
ATOM      3  N   UNL d   1     -39.143  14.644  19.331  0.00  0.00    -0.290 N 
ATOM      4  C   UNL d   1     -38.131  14.270  20.118  0.00  0.00     0.101 A 
ATOM      5  C   UNL d   1     -38.359  14.394  19.344  0.00  0.00     0.101 A 
ENDROOT
BRANCH   2   6
ATOM      6  C   UNL d   1     -38.693  14.359  21.430  0.00  0.00     0.066 A 
ATOM      7  C   UNL d   1     -38.406  14.970  21.887  0.00  0.00     0.018 A 
ATOM      8  C   UNL d   1     -38.339  14.889  22.695  0.00  0.00     0.002 A 
ATOM      9  C   UNL d   1     -38.564  14.181  23.055  0.00  0.00     0.000 A 
ATOM     10  C   UNL d   1     -38.852  13.568  22.597  0.00  0.00     0.002 A 
ATOM     11  C   UNL d   1     -38.920  13.649  21.783  0.00  0.00     0.018 A 
ENDBRANCH   2   6
BRANCH   1  12
ATOM     12  C   UNL d   1     -40.139  14.887  20.405  0.00  0.00     0.063 A 
ATOM     13  S   UNL d   1     -40.119  15.719  20.590  0.00  0.00    -0.083 SA
ATOM     14  C   UNL d   1     -40.868  15.922  20.875  0.00  0.00     0.035 A 
ATOM     15  C   UNL d   1     -41.344  15.257  20.873  0.00  0.00     0.008 A 
ATOM     16  C   UNL d   1     -40.900  14.608  20.583  0.00  0.00     0.010 A 
ENDBRANCH   1  12
BRANCH   3  17
ATOM     17  C   UNL d   1     -39.655  14.847  18.726  0.00  0.00     0.066 A 
ATOM     18  C   UNL d   1     -39.684  15.618  18.440  0.00  0.00     0.018 A 
ATOM     19  C   UNL d   1     -40.210  15.804  17.826  0.00  0.00     0.002 A 
ATOM     20  C   UNL d   1     -40.695  15.238  17.503  0.00  0.00     0.000 A 
ATOM     21  C   UNL d   1     -40.677  14.453  17.782  0.00  0.00     0.002 A 
ATOM     22  C   UNL d   1     -40.156  14.260  18.394  0.00  0.00     0.018 A 
ENDBRANCH   3  17
TORSDOF 3
ENDMDL
