MODEL 1
REMARK VINA RESULT:      39.5      0.000      0.000
REMARK  1 active torsions:
REMARK  status: ('A' for Active; 'I' for Inactive)
REMARK    1  A    between atoms: C_7  and  C_5 
ROOT
ATOM      1  C   UNL d   1     -57.959 -98.922 -43.600  0.00  0.00     0.110 A 
ATOM      2  C   UNL d   1     -58.510 -98.851 -42.381  0.00  0.00     0.332 A 
ATOM      3  C   UNL d   1     -58.769 -98.807 -43.689  0.00  0.00     0.060 A 
ATOM      4  S   UNL d   1     -59.111 -98.763 -42.941  0.00  0.00    -0.018 SA
ATOM      5  C   UNL d   1     -57.465 -98.987 -44.258  0.00  0.00     0.027 A 
ATOM      6  O   UNL d   1     -57.797 -98.950 -42.789  0.00  0.00    -0.268 OA
ATOM      7  C   UNL d   1     -59.089 -98.757 -44.462  0.00  0.00     0.051 A 
ATOM      8  C   UNL d   1     -57.783 -98.938 -45.017  0.00  0.00     0.044 A 
ATOM      9  O   UNL d   1     -58.599 -98.844 -41.559  0.00  0.00    -0.251 OA
ATOM     10  C   UNL d   1     -58.596 -98.822 -45.119  0.00  0.00     0.196 A 
ATOM     11  O   UNL d   1     -58.913 -98.772 -45.883  0.00  0.00    -0.286 OA
ENDROOT
BRANCH   5  12
ATOM     12  C   UNL d   1     -56.653 -99.103 -44.156  0.00  0.00     0.004 A 
ATOM     13  C   UNL d   1     -56.230 -99.563 -44.694  0.00  0.00     0.030 A 
ATOM     14  C   UNL d   1     -55.418 -99.678 -44.592  0.00  0.00     0.140 A 
ATOM     15  F   UNL d   1     -54.990-100.139 -45.130  0.00  0.00    -0.204 F 
ATOM     16  C   UNL d   1     -55.029 -99.333 -43.952  0.00  0.00     0.030 A 
ATOM     17  C   UNL d   1     -55.451 -98.873 -43.413  0.00  0.00     0.002 A 
ATOM     18  C   UNL d   1     -56.264 -98.758 -43.515  0.00  0.00     0.000 A 
ENDBRANCH   5  12
TORSDOF 1
ENDMDL
