MODEL 1
REMARK VINA RESULT:      -3.1      0.000      0.000
REMARK  6 active torsions:
REMARK  status: ('A' for Active; 'I' for Inactive)
REMARK       I    between atoms: C_2  and  N_1 
REMARK    1  A    between atoms: O_20  and  C_2 
REMARK       I    between atoms: C_5  and  N_3 
REMARK    2  A    between atoms: C_16  and  C_5 
REMARK    3  A    between atoms: C_9  and  C_7 
REMARK    4  A    between atoms: C_8  and  S_14 
REMARK    5  A    between atoms: S_14  and  C_16 
REMARK    6  A    between atoms: C_25  and  O_20 
ROOT
ATOM      1  C   UNL d   1      57.861  -0.332  30.677  0.00  0.00     0.098 C 
ENDROOT
BRANCH   1   2
ATOM      2  S   UNL d   1      58.094  -0.422  29.895  0.00  0.00    -0.061 SA
BRANCH   2   3
ATOM      3  C   UNL d   1      58.516  -1.091  29.661  0.00  0.00     0.133 A 
ATOM      4  N   UNL d   1      58.189  -1.838  29.734  0.00  0.00    -0.141 NA
ATOM      5  N   UNL d   1      58.612  -2.506  29.499  0.00  0.00    -0.148 NA
ATOM      6  C   UNL d   1      59.375  -2.426  29.185  0.00  0.00     0.104 A 
ATOM      7  C   UNL d   1      59.708  -1.673  29.110  0.00  0.00     0.023 A 
ATOM      8  C   UNL d   1      59.284  -1.008  29.345  0.00  0.00     0.029 A 
BRANCH   6   9
ATOM      9  C   UNL d   1      59.798  -3.095  28.951  0.00  0.00     0.039 A 
ATOM     10  C   UNL d   1      59.400  -3.783  28.778  0.00  0.00     0.101 A 
ATOM     11  N   UNL d   1      59.815  -4.449  28.544  0.00  0.00    -0.242 NA
ATOM     12  C   UNL d   1      60.644  -4.419  28.485  0.00  0.00     0.099 A 
ATOM     13  C   UNL d   1      61.040  -3.725  28.659  0.00  0.00     0.021 A 
ATOM     14  C   UNL d   1      60.625  -3.050  28.895  0.00  0.00     0.005 A 
ENDBRANCH   6   9
ENDBRANCH   2   3
ENDBRANCH   1   2
BRANCH   1  15
ATOM     15  C   UNL d   1      57.236   0.178  30.860  0.00  0.00     0.272 C 
ATOM     16  N   UNL d   1      56.915   0.176  31.618  0.00  0.00    -0.269 N 
ATOM     17  C   UNL d   1      57.222  -0.339  32.192  0.00  0.00     0.102 A 
ATOM     18  C   UNL d   1      56.296   0.680  31.799  0.00  0.00     0.102 A 
ATOM     19  C   UNL d   1      56.897  -0.334  32.942  0.00  0.00     0.104 A 
ATOM     20  N   UNL d   1      56.276   0.169  33.132  0.00  0.00    -0.249 N 
ATOM     21  C   UNL d   1      55.948   0.175  33.883  0.00  0.00     0.378 C 
ATOM     22  C   UNL d   1      55.971   0.680  32.558  0.00  0.00     0.104 A 
ATOM     23  O   UNL d   1      56.252  -0.336  34.458  0.00  0.00    -0.237 OA
ATOM     24  O   UNL d   1      56.935   0.682  30.296  0.00  0.00    -0.266 OA
BRANCH  21  25
ATOM     25  O   UNL d   1      55.327   0.682  34.065  0.00  0.00    -0.257 OA
BRANCH  25  26
ATOM     26  C   UNL d   1      54.867   0.551  34.728  0.00  0.00     0.128 C 
ATOM     27  C   UNL d   1      54.063   0.680  34.705  0.00  0.00     0.029 C 
ENDBRANCH  25  26
ENDBRANCH  21  25
ENDBRANCH   1  15
TORSDOF 6
ENDMDL
MODEL 2
REMARK VINA RESULT:      -2.7      1.725      6.247
REMARK  6 active torsions:
REMARK  status: ('A' for Active; 'I' for Inactive)
REMARK       I    between atoms: C_2  and  N_1 
REMARK    1  A    between atoms: O_20  and  C_2 
REMARK       I    between atoms: C_5  and  N_3 
REMARK    2  A    between atoms: C_16  and  C_5 
REMARK    3  A    between atoms: C_9  and  C_7 
REMARK    4  A    between atoms: C_8  and  S_14 
REMARK    5  A    between atoms: S_14  and  C_16 
REMARK    6  A    between atoms: C_25  and  O_20 
ROOT
ATOM      1  C   UNL d   1      57.551   0.027  30.698  0.00  0.00     0.098 C 
ENDROOT
BRANCH   1   2
ATOM      2  S   UNL d   1      57.570   0.677  31.200  0.00  0.00    -0.061 SA
BRANCH   2   3
ATOM      3  C   UNL d   1      57.142   0.671  31.905  0.00  0.00     0.133 A 
ATOM      4  N   UNL d   1      56.323   0.670  31.897  0.00  0.00    -0.141 NA
ATOM      5  N   UNL d   1      55.896   0.664  32.602  0.00  0.00    -0.148 NA
ATOM      6  C   UNL d   1      56.295   0.660  33.329  0.00  0.00     0.104 A 
ATOM      7  C   UNL d   1      57.122   0.661  33.341  0.00  0.00     0.023 A 
ATOM      8  C   UNL d   1      57.545   0.667  32.635  0.00  0.00     0.029 A 
BRANCH   6   9
ATOM      9  C   UNL d   1      55.867   0.654  34.035  0.00  0.00     0.039 A 
ATOM     10  C   UNL d   1      55.054   0.677  34.014  0.00  0.00     0.101 A 
ATOM     11  N   UNL d   1      54.626   0.672  34.712  0.00  0.00    -0.242 NA
ATOM     12  C   UNL d   1      55.025   0.643  35.441  0.00  0.00     0.099 A 
ATOM     13  C   UNL d   1      55.843   0.620  35.457  0.00  0.00     0.021 A 
ATOM     14  C   UNL d   1      56.279   0.626  34.756  0.00  0.00     0.005 A 
ENDBRANCH   6   9
ENDBRANCH   2   3
ENDBRANCH   1   2
BRANCH   1  15
ATOM     15  C   UNL d   1      58.144  -0.065  30.128  0.00  0.00     0.272 C 
ATOM     16  N   UNL d   1      58.353  -0.820  29.876  0.00  0.00    -0.269 N 
ATOM     17  C   UNL d   1      57.968  -1.481  30.195  0.00  0.00     0.102 A 
ATOM     18  C   UNL d   1      58.940  -0.912  29.312  0.00  0.00     0.102 A 
ATOM     19  C   UNL d   1      58.182  -2.227  29.938  0.00  0.00     0.104 A 
ATOM     20  N   UNL d   1      58.770  -2.328  29.373  0.00  0.00    -0.249 N 
ATOM     21  C   UNL d   1      58.988  -3.075  29.113  0.00  0.00     0.378 C 
ATOM     22  C   UNL d   1      59.153  -1.666  29.056  0.00  0.00     0.104 A 
ATOM     23  O   UNL d   1      58.605  -3.736  29.430  0.00  0.00    -0.237 OA
ATOM     24  O   UNL d   1      58.521   0.585  29.816  0.00  0.00    -0.266 OA
BRANCH  21  25
ATOM     25  O   UNL d   1      59.577  -3.167  28.548  0.00  0.00    -0.257 OA
BRANCH  25  26
ATOM     26  C   UNL d   1      59.982  -3.874  28.484  0.00  0.00     0.128 C 
ATOM     27  C   UNL d   1      60.796  -3.880  28.458  0.00  0.00     0.029 C 
ENDBRANCH  25  26
ENDBRANCH  21  25
ENDBRANCH   1  15
TORSDOF 6
ENDMDL
