MODEL 1
REMARK VINA RESULT:       9.3      0.000      0.000
REMARK  2 active torsions:
REMARK  status: ('A' for Active; 'I' for Inactive)
REMARK    1  A    between atoms: N_8  and  C_7 
REMARK    2  A    between atoms: C_9  and  N_8 
ROOT
ATOM      1  N   UNL d   1     -52.061  25.687  33.312  0.00  0.00    -0.245 NA
ENDROOT
BRANCH   1   2
ATOM      2  C   UNL d   1     -51.313  26.018  33.311  0.00  0.00     0.093 A 
ATOM      3  C   UNL d   1     -51.136  26.821  33.314  0.00  0.00     0.118 A 
ATOM      4  S   UNL d   1     -50.310  26.893  33.311  0.00  0.00     0.213 S 
ATOM      5  C   UNL d   1     -49.981  26.141  33.306  0.00  0.00     0.100 A 
ATOM      6  O   UNL d   1     -49.487  26.896  33.308  0.00  0.00    -0.217 OA
ATOM      7  O   UNL d   1     -50.722  27.602  33.315  0.00  0.00    -0.217 OA
ATOM      8  C   UNL d   1     -50.603  25.598  33.306  0.00  0.00     0.032 A 
ENDBRANCH   1   2
BRANCH   1   9
ATOM      9  C   UNL d   1     -52.141  24.864  33.312  0.00  0.00     0.082 A 
ATOM     10  C   UNL d   1     -52.893  24.523  33.309  0.00  0.00     0.030 A 
ATOM     11  C   UNL d   1     -52.975  23.713  33.309  0.00  0.00     0.059 A 
ATOM     12 CL   UNL d   1     -53.675  23.290  33.307  0.00  0.00    -0.082 Cl
ATOM     13  C   UNL d   1     -52.305  23.230  33.312  0.00  0.00     0.011 A 
ATOM     14  C   UNL d   1     -51.553  23.570  33.315  0.00  0.00     0.002 A 
ATOM     15  C   UNL d   1     -51.472  24.394  33.315  0.00  0.00     0.019 A 
ENDBRANCH   1   9
TORSDOF 2
ENDMDL
