MODEL 1
REMARK VINA RESULT:      -9.1      0.000      0.000
REMARK  3 active torsions:
REMARK  status: ('A' for Active; 'I' for Inactive)
REMARK       I    between atoms: N_3  and  C_1 
REMARK    1  A    between atoms: C_6  and  C_1 
REMARK    2  A    between atoms: N_2  and  C_4 
REMARK    3  A    between atoms: C_9  and  N_3 
ROOT
ATOM      1  C   UNL d   1      52.504  33.711  53.502  0.00  0.00     0.064 A 
ATOM      2  C   UNL d   1      52.487  34.374  53.001  0.00  0.00     0.019 A 
ATOM      3  C   UNL d   1      51.832  33.227  53.586  0.00  0.00     0.019 A 
ATOM      4  C   UNL d   1      51.120  34.055  52.675  0.00  0.00     0.085 A 
ATOM      5  C   UNL d   1      51.791  34.539  52.591  0.00  0.00     0.021 A 
ATOM      6  C   UNL d   1      51.140  33.402  53.170  0.00  0.00     0.021 A 
ENDROOT
BRANCH   4   7
ATOM      7  N   UNL d   1      50.424  34.235  52.254  0.00  0.00    -0.208 NA
ATOM      8  C   UNL d   1      49.838  34.704  52.600  0.00  0.00     0.279 C 
ATOM      9  O   UNL d   1      49.942  34.998  53.372  0.00  0.00    -0.265 OA
BRANCH   8  10
ATOM     10  C   UNL d   1      49.146  34.882  52.179  0.00  0.00     0.058 A 
ATOM     11  C   UNL d   1      48.557  35.346  52.541  0.00  0.00     0.005 A 
ATOM     12  C   UNL d   1      47.872  35.521  52.120  0.00  0.00     0.000 A 
ATOM     13  C   UNL d   1      47.773  35.234  51.340  0.00  0.00     0.000 A 
ATOM     14  C   UNL d   1      48.361  34.779  50.998  0.00  0.00     0.000 A 
ATOM     15  C   UNL d   1      49.048  34.600  51.411  0.00  0.00     0.005 A 
ENDBRANCH   8  10
ENDBRANCH   4   7
BRANCH   1  16
ATOM     16  N   UNL d   1      53.207  33.537  53.922  0.00  0.00    -0.304 N 
ATOM     17  C   UNL d   1      53.359  33.912  54.633  0.00  0.00     0.080 A 
ATOM     18  C   UNL d   1      54.063  33.738  55.054  0.00  0.00     0.019 A 
ATOM     19  C   UNL d   1      54.588  33.188  54.737  0.00  0.00     0.003 A 
ATOM     20  C   UNL d   1      54.428  32.816  54.025  0.00  0.00     0.019 A 
ATOM     21  C   UNL d   1      53.741  32.987  53.613  0.00  0.00     0.080 A 
ENDBRANCH   1  16
TORSDOF 3
ENDMDL
MODEL 2
REMARK VINA RESULT:      -8.8      0.834      5.061
REMARK  3 active torsions:
REMARK  status: ('A' for Active; 'I' for Inactive)
REMARK       I    between atoms: N_3  and  C_1 
REMARK    1  A    between atoms: C_6  and  C_1 
REMARK    2  A    between atoms: N_2  and  C_4 
REMARK    3  A    between atoms: C_9  and  N_3 
ROOT
ATOM      1  C   UNL d   1      50.233  34.265  52.197  0.00  0.00     0.064 A 
ATOM      2  C   UNL d   1      50.178  33.890  52.937  0.00  0.00     0.019 A 
ATOM      3  C   UNL d   1      50.972  34.381  51.834  0.00  0.00     0.019 A 
ATOM      4  C   UNL d   1      51.612  33.753  52.938  0.00  0.00     0.085 A 
ATOM      5  C   UNL d   1      50.872  33.637  53.301  0.00  0.00     0.021 A 
ATOM      6  C   UNL d   1      51.662  34.123  52.209  0.00  0.00     0.021 A 
ENDROOT
BRANCH   4   7
ATOM      7  N   UNL d   1      52.306  33.491  53.320  0.00  0.00    -0.208 NA
ATOM      8  C   UNL d   1      52.782  34.027  53.731  0.00  0.00     0.279 C 
ATOM      9  O   UNL d   1      52.570  34.831  53.765  0.00  0.00    -0.265 OA
BRANCH   8  10
ATOM     10  C   UNL d   1      53.471  33.764  54.109  0.00  0.00     0.058 A 
ATOM     11  C   UNL d   1      53.966  33.218  53.720  0.00  0.00     0.005 A 
ATOM     12  C   UNL d   1      54.649  32.960  54.099  0.00  0.00     0.000 A 
ATOM     13  C   UNL d   1      54.840  33.243  54.863  0.00  0.00     0.000 A 
ATOM     14  C   UNL d   1      54.344  33.779  55.232  0.00  0.00     0.000 A 
ATOM     15  C   UNL d   1      53.659  34.043  54.861  0.00  0.00     0.005 A 
ENDBRANCH   8  10
ENDBRANCH   4   7
BRANCH   1  16
ATOM     16  N   UNL d   1      49.531  34.525  51.820  0.00  0.00    -0.304 N 
ATOM     17  C   UNL d   1      49.003  35.000  52.228  0.00  0.00     0.080 A 
ATOM     18  C   UNL d   1      48.302  35.260  51.851  0.00  0.00     0.019 A 
ATOM     19  C   UNL d   1      48.160  35.030  51.073  0.00  0.00     0.003 A 
ATOM     20  C   UNL d   1      48.694  34.555  50.672  0.00  0.00     0.019 A 
ATOM     21  C   UNL d   1      49.380  34.300  51.040  0.00  0.00     0.080 A 
ENDBRANCH   1  16
TORSDOF 3
ENDMDL
