MODEL 1
REMARK VINA RESULT:      -3.8      0.000      0.000
REMARK  6 active torsions:
REMARK  status: ('A' for Active; 'I' for Inactive)
REMARK    1  A    between atoms: C_3  and  C_2 
REMARK    2  A    between atoms: O_5  and  C_3 
REMARK    3  A    between atoms: C_9  and  O_5 
REMARK    4  A    between atoms: C_6  and  C_9 
REMARK    5  A    between atoms: C_7  and  C_6 
REMARK    6  A    between atoms: O_19  and  C_16 
ROOT
ATOM      1  C   UNL d   1      33.075  19.993 -22.018  0.00  0.00     0.318 C 
ATOM      2  O   UNL d   1      33.241  19.528 -21.357  0.00  0.00    -0.257 OA
ENDROOT
BRANCH   1   3
ATOM      3  C   UNL d   1      32.960  20.806 -21.937  0.00  0.00     0.145 A 
ATOM      4  N   UNL d   1      32.558  21.103 -21.267  0.00  0.00    -0.240 NA
ATOM      5  C   UNL d   1      32.440  21.914 -21.182  0.00  0.00     0.082 A 
ATOM      6  C   UNL d   1      32.723  22.442 -21.768  0.00  0.00     0.018 A 
ATOM      7  C   UNL d   1      32.045  22.207 -20.525  0.00  0.00     0.019 A 
ATOM      8  C   UNL d   1      33.123  22.148 -22.436  0.00  0.00     0.003 A 
ATOM      9  C   UNL d   1      32.605  23.252 -21.684  0.00  0.00     0.002 A 
ATOM     10  C   UNL d   1      33.241  21.331 -22.520  0.00  0.00     0.025 A 
ATOM     11  C   UNL d   1      32.206  23.537 -21.016  0.00  0.00     0.000 A 
ATOM     12  C   UNL d   1      31.928  23.018 -20.441  0.00  0.00     0.002 A 
ENDBRANCH   1   3
BRANCH   1  13
ATOM     13  O   UNL d   1      33.025  19.641 -22.768  0.00  0.00    -0.266 OA
BRANCH  13  14
ATOM     14  C   UNL d   1      32.893  18.831 -22.838  0.00  0.00     0.168 C 
BRANCH  14  15
ATOM     15  C   UNL d   1      32.806  18.483 -23.578  0.00  0.00     0.220 C 
ATOM     16  O   UNL d   1      33.195  18.811 -24.228  0.00  0.00    -0.284 OA
BRANCH  15  17
ATOM     17  C   UNL d   1      32.334  17.812 -23.670  0.00  0.00     0.041 A 
ATOM     18  C   UNL d   1      32.508  17.132 -23.237  0.00  0.00     0.005 A 
ATOM     19  C   UNL d   1      32.034  16.465 -23.332  0.00  0.00     0.024 A 
ATOM     20  C   UNL d   1      31.391  16.480 -23.856  0.00  0.00     0.094 A 
ATOM     21  C   UNL d   1      31.227  17.167 -24.282  0.00  0.00     0.024 A 
ATOM     22  C   UNL d   1      31.700  17.834 -24.189  0.00  0.00     0.005 A 
BRANCH  20  23
ATOM     23  O   UNL d   1      30.924  15.817 -23.947  0.00  0.00    -0.328 OA
ATOM     24  C   UNL d   1      30.285  15.688 -23.433  0.00  0.00     0.181 C 
ENDBRANCH  20  23
ENDBRANCH  15  17
ENDBRANCH  14  15
ENDBRANCH  13  14
ENDBRANCH   1  13
TORSDOF 6
ENDMDL
MODEL 2
REMARK VINA RESULT:      -2.9      1.504      5.464
REMARK  6 active torsions:
REMARK  status: ('A' for Active; 'I' for Inactive)
REMARK    1  A    between atoms: C_3  and  C_2 
REMARK    2  A    between atoms: O_5  and  C_3 
REMARK    3  A    between atoms: C_9  and  O_5 
REMARK    4  A    between atoms: C_6  and  C_9 
REMARK    5  A    between atoms: C_7  and  C_6 
REMARK    6  A    between atoms: O_19  and  C_16 
ROOT
ATOM      1  C   UNL d   1      32.529  17.275 -23.395  0.00  0.00     0.318 C 
ATOM      2  O   UNL d   1      32.969  16.883 -22.817  0.00  0.00    -0.257 OA
ENDROOT
BRANCH   1   3
ATOM      3  C   UNL d   1      31.948  16.873 -23.821  0.00  0.00     0.145 A 
ATOM      4  N   UNL d   1      31.143  16.970 -23.618  0.00  0.00    -0.240 NA
ATOM      5  C   UNL d   1      30.560  16.570 -24.040  0.00  0.00     0.082 A 
ATOM      6  C   UNL d   1      30.772  16.067 -24.675  0.00  0.00     0.018 A 
ATOM      7  C   UNL d   1      29.769  16.665 -23.841  0.00  0.00     0.019 A 
ATOM      8  C   UNL d   1      31.574  15.969 -24.879  0.00  0.00     0.003 A 
ATOM      9  C   UNL d   1      30.190  15.667 -25.097  0.00  0.00     0.002 A 
ATOM     10  C   UNL d   1      32.160  16.372 -24.452  0.00  0.00     0.025 A 
ATOM     11  C   UNL d   1      29.395  15.769 -24.888  0.00  0.00     0.000 A 
ATOM     12  C   UNL d   1      29.186  16.265 -24.264  0.00  0.00     0.002 A 
ENDBRANCH   1   3
BRANCH   1  13
ATOM     13  O   UNL d   1      32.674  18.078 -23.549  0.00  0.00    -0.266 OA
BRANCH  13  14
ATOM     14  C   UNL d   1      32.958  18.570 -22.952  0.00  0.00     0.168 C 
BRANCH  14  15
ATOM     15  C   UNL d   1      33.106  19.365 -23.100  0.00  0.00     0.220 C 
ATOM     16  O   UNL d   1      33.241  19.614 -23.875  0.00  0.00    -0.284 OA
BRANCH  15  17
ATOM     17  C   UNL d   1      33.118  19.909 -22.479  0.00  0.00     0.041 A 
ATOM     18  C   UNL d   1      33.221  19.639 -21.706  0.00  0.00     0.005 A 
ATOM     19  C   UNL d   1      33.233  20.185 -21.089  0.00  0.00     0.024 A 
ATOM     20  C   UNL d   1      33.143  20.994 -21.247  0.00  0.00     0.094 A 
ATOM     21  C   UNL d   1      33.040  21.252 -22.024  0.00  0.00     0.024 A 
ATOM     22  C   UNL d   1      33.028  20.707 -22.641  0.00  0.00     0.005 A 
BRANCH  20  23
ATOM     23  O   UNL d   1      33.155  21.532 -20.632  0.00  0.00    -0.328 OA
ATOM     24  C   UNL d   1      32.503  22.028 -20.503  0.00  0.00     0.181 C 
ENDBRANCH  20  23
ENDBRANCH  15  17
ENDBRANCH  14  15
ENDBRANCH  13  14
ENDBRANCH   1  13
TORSDOF 6
ENDMDL
MODEL 3
REMARK VINA RESULT:      -2.0      1.364      2.501
REMARK  6 active torsions:
REMARK  status: ('A' for Active; 'I' for Inactive)
REMARK    1  A    between atoms: C_3  and  C_2 
REMARK    2  A    between atoms: O_5  and  C_3 
REMARK    3  A    between atoms: C_9  and  O_5 
REMARK    4  A    between atoms: C_6  and  C_9 
REMARK    5  A    between atoms: C_7  and  C_6 
REMARK    6  A    between atoms: O_19  and  C_16 
ROOT
ATOM      1  C   UNL d   1      32.830  18.235 -23.434  0.00  0.00     0.318 C 
ATOM      2  O   UNL d   1      33.241  18.159 -24.145  0.00  0.00    -0.257 OA
ENDROOT
BRANCH   1   3
ATOM      3  C   UNL d   1      32.933  18.905 -22.962  0.00  0.00     0.145 A 
ATOM      4  N   UNL d   1      32.927  19.664 -23.313  0.00  0.00    -0.240 NA
ATOM      5  C   UNL d   1      33.029  20.335 -22.846  0.00  0.00     0.082 A 
ATOM      6  C   UNL d   1      33.139  20.257 -22.019  0.00  0.00     0.018 A 
ATOM      7  C   UNL d   1      33.024  21.080 -23.189  0.00  0.00     0.019 A 
ATOM      8  C   UNL d   1      33.145  19.502 -21.668  0.00  0.00     0.003 A 
ATOM      9  C   UNL d   1      33.241  20.927 -21.553  0.00  0.00     0.002 A 
ATOM     10  C   UNL d   1      33.042  18.828 -22.140  0.00  0.00     0.025 A 
ATOM     11  C   UNL d   1      33.234  21.675 -21.908  0.00  0.00     0.000 A 
ATOM     12  C   UNL d   1      33.126  21.751 -22.722  0.00  0.00     0.002 A 
ENDBRANCH   1   3
BRANCH   1  13
ATOM     13  O   UNL d   1      32.311  17.634 -23.192  0.00  0.00    -0.266 OA
BRANCH  13  14
ATOM     14  C   UNL d   1      31.791  17.293 -23.732  0.00  0.00     0.168 C 
BRANCH  14  15
ATOM     15  C   UNL d   1      31.495  16.537 -23.606  0.00  0.00     0.220 C 
ATOM     16  O   UNL d   1      31.949  15.987 -23.190  0.00  0.00    -0.284 OA
BRANCH  15  17
ATOM     17  C   UNL d   1      30.749  16.329 -23.893  0.00  0.00     0.041 A 
ATOM     18  C   UNL d   1      30.074  16.577 -23.487  0.00  0.00     0.005 A 
ATOM     19  C   UNL d   1      29.333  16.368 -23.777  0.00  0.00     0.024 A 
ATOM     20  C   UNL d   1      29.268  15.913 -24.468  0.00  0.00     0.094 A 
ATOM     21  C   UNL d   1      29.949  15.671 -24.865  0.00  0.00     0.024 A 
ATOM     22  C   UNL d   1      30.691  15.880 -24.576  0.00  0.00     0.005 A 
BRANCH  20  23
ATOM     23  O   UNL d   1      28.530  15.708 -24.752  0.00  0.00    -0.328 OA
ATOM     24  C   UNL d   1      27.916  15.533 -24.222  0.00  0.00     0.181 C 
ENDBRANCH  20  23
ENDBRANCH  15  17
ENDBRANCH  14  15
ENDBRANCH  13  14
ENDBRANCH   1  13
TORSDOF 6
ENDMDL
