MODEL 1
REMARK VINA RESULT:      51.1      0.000      0.000
REMARK  3 active torsions:
REMARK  status: ('A' for Active; 'I' for Inactive)
REMARK    1  A    between atoms: N_2  and  C_1 
REMARK       I    between atoms: C_5  and  N_2 
REMARK    2  A    between atoms: C_8  and  C_5 
REMARK    3  A    between atoms: O_17  and  C_13 
ROOT
ATOM      1  N   UNL d   1     -50.324  25.949  33.495  0.00  0.00    -0.184 NA
ATOM      2  C   UNL d   1     -50.424  26.551  34.052  0.00  0.00     0.281 C 
ATOM      3  O   UNL d   1     -51.084  26.522  34.548  0.00  0.00    -0.265 OA
ENDROOT
BRANCH   1   4
ATOM      4  C   UNL d   1     -50.887  25.341  33.453  0.00  0.00     0.182 A 
ATOM      5  N   UNL d   1     -50.761  24.512  33.400  0.00  0.00    -0.283 N 
ATOM      6  C   UNL d   1     -51.542  24.169  33.374  0.00  0.00     0.072 A 
ATOM      7  C   UNL d   1     -50.059  24.141  33.381  0.00  0.00     0.101 C 
ATOM      8  C   UNL d   1     -51.807  23.371  33.322  0.00  0.00     0.018 A 
ATOM      9  C   UNL d   1     -52.064  24.769  33.409  0.00  0.00     0.048 A 
ATOM     10  C   UNL d   1     -52.639  23.213  33.307  0.00  0.00     0.002 A 
ATOM     11  C   UNL d   1     -53.161  23.828  33.343  0.00  0.00     0.001 A 
ATOM     12  C   UNL d   1     -52.900  24.620  33.395  0.00  0.00     0.008 A 
ATOM     13  S   UNL d   1     -51.690  25.475  33.456  0.00  0.00    -0.048 SA
ENDBRANCH   1   4
BRANCH   2  14
ATOM     14  C   UNL d   1     -49.905  27.165  34.134  0.00  0.00     0.058 A 
ATOM     15  C   UNL d   1     -49.770  27.664  33.506  0.00  0.00     0.007 A 
ATOM     16  C   UNL d   1     -49.239  28.290  33.594  0.00  0.00     0.024 A 
ATOM     17  C   UNL d   1     -48.854  28.405  34.305  0.00  0.00     0.094 A 
ATOM     18  C   UNL d   1     -48.989  27.906  34.932  0.00  0.00     0.024 A 
ATOM     19  C   UNL d   1     -49.526  27.261  34.867  0.00  0.00     0.007 A 
BRANCH  17  20
ATOM     20  O   UNL d   1     -48.322  29.038  34.385  0.00  0.00    -0.328 OA
ATOM     21  C   UNL d   1     -48.426  29.751  34.888  0.00  0.00     0.181 C 
ENDBRANCH  17  20
ENDBRANCH   2  14
TORSDOF 3
ENDMDL
MODEL 2
REMARK VINA RESULT:      53.2      0.681      1.111
REMARK  3 active torsions:
REMARK  status: ('A' for Active; 'I' for Inactive)
REMARK    1  A    between atoms: N_2  and  C_1 
REMARK       I    between atoms: C_5  and  N_2 
REMARK    2  A    between atoms: C_8  and  C_5 
REMARK    3  A    between atoms: O_17  and  C_13 
ROOT
ATOM      1  N   UNL d   1     -50.771  26.349  33.518  0.00  0.00    -0.184 NA
ATOM      2  C   UNL d   1     -50.396  26.517  34.234  0.00  0.00     0.281 C 
ATOM      3  O   UNL d   1     -50.535  26.018  34.878  0.00  0.00    -0.265 OA
ENDROOT
BRANCH   1   4
ATOM      4  C   UNL d   1     -51.272  25.689  33.470  0.00  0.00     0.182 A 
ATOM      5  N   UNL d   1     -52.112  25.669  33.439  0.00  0.00    -0.283 N 
ATOM      6  C   UNL d   1     -52.314  24.841  33.394  0.00  0.00     0.072 A 
ATOM      7  C   UNL d   1     -52.600  26.295  33.449  0.00  0.00     0.101 C 
ATOM      8  C   UNL d   1     -53.054  24.441  33.350  0.00  0.00     0.018 A 
ATOM      9  C   UNL d   1     -51.631  24.432  33.401  0.00  0.00     0.048 A 
ATOM     10  C   UNL d   1     -53.064  23.595  33.312  0.00  0.00     0.002 A 
ATOM     11  C   UNL d   1     -52.365  23.189  33.319  0.00  0.00     0.001 A 
ATOM     12  C   UNL d   1     -51.630  23.584  33.364  0.00  0.00     0.008 A 
ATOM     13  S   UNL d   1     -51.000  24.923  33.446  0.00  0.00    -0.048 SA
ENDBRANCH   1   4
BRANCH   2  14
ATOM     14  C   UNL d   1     -49.899  27.147  34.333  0.00  0.00     0.058 A 
ATOM     15  C   UNL d   1     -49.655  27.573  33.685  0.00  0.00     0.007 A 
ATOM     16  C   UNL d   1     -49.148  28.215  33.791  0.00  0.00     0.024 A 
ATOM     17  C   UNL d   1     -48.895  28.420  34.540  0.00  0.00     0.094 A 
ATOM     18  C   UNL d   1     -49.139  27.994  35.188  0.00  0.00     0.024 A 
ATOM     19  C   UNL d   1     -49.656  27.335  35.105  0.00  0.00     0.007 A 
BRANCH  17  20
ATOM     20  O   UNL d   1     -48.384  29.068  34.637  0.00  0.00    -0.328 OA
ATOM     21  C   UNL d   1     -47.724  29.134  35.215  0.00  0.00     0.181 C 
ENDBRANCH  17  20
ENDBRANCH   2  14
TORSDOF 3
ENDMDL
