MODEL 1
REMARK VINA RESULT:      22.4      0.000      0.000
REMARK  3 active torsions:
REMARK  status: ('A' for Active; 'I' for Inactive)
REMARK    1  A    between atoms: C_2  and  S_1 
REMARK    2  A    between atoms: N_3  and  S_1 
REMARK    3  A    between atoms: C_12  and  N_3 
ROOT
ATOM      1  S   UNL d   1      14.417  12.381  -1.724  0.00  0.00     0.285 S 
ATOM      2  O   UNL d   1      15.063  12.302  -2.099  0.00  0.00    -0.198 OA
ATOM      3  O   UNL d   1      13.699  12.291  -1.447  0.00  0.00    -0.198 OA
ENDROOT
BRANCH   1   4
ATOM      4  C   UNL d   1      14.590  13.061  -1.270  0.00  0.00     0.105 A 
ATOM      5  C   UNL d   1      14.760  12.989  -0.463  0.00  0.00     0.012 A 
ATOM      6  C   UNL d   1      14.932  13.662  -0.014  0.00  0.00     0.001 A 
ATOM      7  C   UNL d   1      14.756  12.225  -0.111  0.00  0.00     0.001 C 
ATOM      8  C   UNL d   1      14.932  14.403  -0.376  0.00  0.00     0.000 A 
ATOM      9  C   UNL d   1      14.762  14.487  -1.186  0.00  0.00     0.001 A 
ATOM     10  C   UNL d   1      14.591  13.813  -1.635  0.00  0.00     0.013 A 
ATOM     11  C   UNL d   1      14.765  15.241  -1.545  0.00  0.00     0.000 C 
ENDBRANCH   1   4
BRANCH   1  12
ATOM     12  N   UNL d   1      14.328  11.779  -2.156  0.00  0.00    -0.158 NA
BRANCH  12  13
ATOM     13  C   UNL d   1      13.906  11.927  -2.684  0.00  0.00     0.095 A 
ATOM     14  C   UNL d   1      14.142  11.881  -3.335  0.00  0.00     0.040 A 
ATOM     15  C   UNL d   1      13.717  12.030  -3.847  0.00  0.00     0.089 A 
ATOM     16  N   UNL d   1      13.812  12.027  -4.528  0.00  0.00    -0.236 NA
ATOM     17  C   UNL d   1      13.071  12.220  -3.733  0.00  0.00     0.049 A 
ATOM     18  C   UNL d   1      13.216  12.219  -4.825  0.00  0.00     0.135 A 
ATOM     19  S   UNL d   1      12.769  12.335  -4.333  0.00  0.00    -0.064 SA
ATOM     20  C   UNL d   1      12.845  12.263  -3.076  0.00  0.00     0.010 A 
ATOM     21  C   UNL d   1      13.264  12.116  -2.549  0.00  0.00     0.021 A 
ENDBRANCH  12  13
ENDBRANCH   1  12
TORSDOF 3
ENDMDL
