MODEL 1
REMARK VINA RESULT:      -2.7      0.000      0.000
REMARK  3 active torsions:
REMARK  status: ('A' for Active; 'I' for Inactive)
REMARK    1  A    between atoms: N_10  and  C_3 
REMARK    2  A    between atoms: C_15  and  N_4 
REMARK    3  A    between atoms: C_20  and  C_15 
ROOT
ATOM      1  C   UNL d   1     -41.440-121.716 -52.085  0.00  0.00     0.191 A 
ATOM      2  C   UNL d   1     -41.436-122.544 -52.136  0.00  0.00     0.173 A 
ATOM      3  C   UNL d   1     -41.617-122.045 -53.361  0.00  0.00     0.738 A 
ATOM      4  N   UNL d   1     -41.235-122.619 -50.725  0.00  0.00    -0.224 N 
ATOM      5  N   UNL d   1     -41.551-121.410 -52.841  0.00  0.00    -0.041 NA
ATOM      6  N   UNL d   1     -41.342-121.343 -51.360  0.00  0.00    -0.240 N 
ATOM      7  C   UNL d   1     -41.239-121.794 -50.678  0.00  0.00     0.343 A 
ATOM      8  C   UNL d   1     -41.334-122.992 -51.453  0.00  0.00     0.288 A 
ATOM      9  N   UNL d   1     -41.546-122.747 -52.929  0.00  0.00    -0.130 N 
ATOM     10  O   UNL d   1     -41.141-121.421 -49.949  0.00  0.00    -0.245 OA
ATOM     11  O   UNL d   1     -41.329-123.817 -51.499  0.00  0.00    -0.265 OA
ATOM     12  C   UNL d   1     -41.346-120.518 -51.313  0.00  0.00     0.105 C 
ATOM     13  C   UNL d   1     -41.579-123.511 -53.232  0.00  0.00     0.118 C 
ENDROOT
BRANCH   4  14
ATOM     14  C   UNL d   1     -41.132-123.071 -50.038  0.00  0.00     0.087 C 
BRANCH  14  15
ATOM     15  C   UNL d   1     -41.781-123.259 -49.567  0.00  0.00     0.019 A 
ATOM     16  C   UNL d   1     -41.763-123.094 -48.750  0.00  0.00     0.014 A 
ATOM     17  C   UNL d   1     -42.413-123.282 -48.278  0.00  0.00     0.068 A 
ATOM     18 CL   UNL d   1     -42.394-123.119 -47.470  0.00  0.00    -0.082 Cl
ATOM     19  C   UNL d   1     -43.074-123.629 -48.611  0.00  0.00     0.068 A 
ATOM     20  C   UNL d   1     -43.094-123.795 -49.433  0.00  0.00     0.012 A 
ATOM     21 CL   UNL d   1     -43.723-123.817 -48.139  0.00  0.00    -0.082 Cl
ATOM     22  C   UNL d   1     -42.439-123.604 -49.898  0.00  0.00     0.002 A 
ENDBRANCH  14  15
ENDBRANCH   4  14
BRANCH   3  23
ATOM     23  N   UNL d   1     -41.733-121.992 -54.177  0.00  0.00    -0.059 N 
ATOM     24  N   UNL d   1     -41.163-122.129 -54.755  0.00  0.00    -0.151 NA
ATOM     25  C   UNL d   1     -41.518-122.014 -55.498  0.00  0.00     0.103 A 
ATOM     26  C   UNL d   1     -41.143-122.095 -56.232  0.00  0.00     0.022 C 
ATOM     27  C   UNL d   1     -42.307-121.805 -55.366  0.00  0.00     0.041 A 
ATOM     28  C   UNL d   1     -42.435-121.793 -54.552  0.00  0.00     0.102 A 
ATOM     29  C   UNL d   1     -43.150-121.611 -54.180  0.00  0.00     0.021 C 
ENDBRANCH   3  23
TORSDOF 3
ENDMDL
