MODEL 1
REMARK VINA RESULT:      -2.4      0.000      0.000
REMARK  7 active torsions:
REMARK  status: ('A' for Active; 'I' for Inactive)
REMARK    1  A    between atoms: C_21  and  C_3 
REMARK    2  A    between atoms: S_17  and  C_5 
REMARK    3  A    between atoms: C_11  and  C_16 
REMARK       I    between atoms: N_14  and  C_11 
REMARK    4  A    between atoms: C_19  and  N_14 
REMARK    5  A    between atoms: C_16  and  C_20 
REMARK    6  A    between atoms: C_20  and  S_17 
REMARK    7  A    between atoms: O_27  and  C_22 
ROOT
ATOM      1  C   UNL d   1      31.559  16.639 -23.748  0.00  0.00     0.092 A 
ATOM      2  C   UNL d   1      30.160  16.729 -24.034  0.00  0.00     0.057 A 
ATOM      3  C   UNL d   1      30.800  16.307 -23.737  0.00  0.00     0.016 A 
ATOM      4  N   UNL d   1      31.024  17.817 -24.356  0.00  0.00    -0.239 NA
ATOM      5  C   UNL d   1      31.671  17.394 -24.057  0.00  0.00     0.120 A 
ATOM      6  C   UNL d   1      30.272  17.485 -24.343  0.00  0.00     0.081 A 
ATOM      7  C   UNL d   1      29.409  16.397 -24.022  0.00  0.00     0.193 A 
ATOM      8  C   UNL d   1      32.202  16.212 -23.448  0.00  0.00     0.103 C 
ATOM      9  N   UNL d   1      32.847  15.778 -23.145  0.00  0.00    -0.191 NA
ATOM     10  C   UNL d   1      28.878  17.575 -24.629  0.00  0.00     0.042 A 
ATOM     11  C   UNL d   1      28.766  16.820 -24.319  0.00  0.00     0.019 A 
ATOM     12  C   UNL d   1      29.633  17.907 -24.640  0.00  0.00    -0.003 A 
ATOM     13  O   UNL d   1      29.296  15.642 -23.713  0.00  0.00    -0.287 OA
ATOM     14  C   UNL d   1      28.708  18.310 -24.979  0.00  0.00     0.009 C 
ATOM     15  C   UNL d   1      28.119  17.250 -24.621  0.00  0.00     0.009 C 
ENDROOT
BRANCH   3  16
ATOM     16  C   UNL d   1      30.688  15.552 -23.428  0.00  0.00     0.001 C 
ATOM     17  C   UNL d   1      30.546  15.453 -22.624  0.00  0.00     0.000 C 
ENDBRANCH   3  16
BRANCH   5  18
ATOM     18  S   UNL d   1      32.427  17.726 -24.068  0.00  0.00    -0.067 SA
BRANCH  18  19
ATOM     19  C   UNL d   1      32.536  18.486 -24.369  0.00  0.00     0.042 C 
BRANCH  19  20
ATOM     20  C   UNL d   1      33.240  18.895 -24.215  0.00  0.00     0.070 C 
BRANCH  20  21
ATOM     21  C   UNL d   1      33.207  19.686 -23.960  0.00  0.00     0.280 C 
ATOM     22  N   UNL d   1      33.181  19.853 -23.148  0.00  0.00    -0.208 NA
ATOM     23  O   UNL d   1      33.200  20.300 -24.508  0.00  0.00    -0.265 OA
BRANCH  22  24
ATOM     24  C   UNL d   1      33.147  20.644 -22.893  0.00  0.00     0.085 A 
ATOM     25  C   UNL d   1      33.214  21.260 -23.436  0.00  0.00     0.021 A 
ATOM     26  C   UNL d   1      33.180  22.039 -23.176  0.00  0.00     0.026 A 
ATOM     27  C   UNL d   1      33.080  22.216 -22.374  0.00  0.00     0.094 A 
ATOM     28  C   UNL d   1      33.014  21.601 -21.832  0.00  0.00     0.026 A 
ATOM     29  C   UNL d   1      33.047  20.810 -22.087  0.00  0.00     0.021 A 
BRANCH  27  30
ATOM     30  O   UNL d   1      33.046  23.014 -22.113  0.00  0.00    -0.328 OA
ATOM     31  C   UNL d   1      32.578  23.213 -21.458  0.00  0.00     0.181 C 
ENDBRANCH  27  30
ENDBRANCH  22  24
ENDBRANCH  20  21
ENDBRANCH  19  20
ENDBRANCH  18  19
ENDBRANCH   5  18
TORSDOF 7
ENDMDL
MODEL 2
REMARK VINA RESULT:      -0.7      1.786      6.022
REMARK  7 active torsions:
REMARK  status: ('A' for Active; 'I' for Inactive)
REMARK    1  A    between atoms: C_21  and  C_3 
REMARK    2  A    between atoms: S_17  and  C_5 
REMARK    3  A    between atoms: C_11  and  C_16 
REMARK       I    between atoms: N_14  and  C_11 
REMARK    4  A    between atoms: C_19  and  N_14 
REMARK    5  A    between atoms: C_16  and  C_20 
REMARK    6  A    between atoms: C_20  and  S_17 
REMARK    7  A    between atoms: O_27  and  C_22 
ROOT
ATOM      1  C   UNL d   1      32.601  22.571 -22.786  0.00  0.00     0.092 A 
ATOM      2  C   UNL d   1      32.637  22.323 -21.378  0.00  0.00     0.057 A 
ATOM      3  C   UNL d   1      32.475  22.825 -22.008  0.00  0.00     0.016 A 
ATOM      4  N   UNL d   1      33.050  21.308 -22.291  0.00  0.00    -0.239 NA
ATOM      5  C   UNL d   1      32.888  21.812 -22.928  0.00  0.00     0.120 A 
ATOM      6  C   UNL d   1      32.924  21.564 -21.519  0.00  0.00     0.081 A 
ATOM      7  C   UNL d   1      32.511  22.578 -20.607  0.00  0.00     0.193 A 
ATOM      8  C   UNL d   1      32.437  23.079 -23.420  0.00  0.00     0.103 C 
ATOM      9  N   UNL d   1      32.271  23.595 -24.055  0.00  0.00    -0.191 NA
ATOM     10  C   UNL d   1      32.960  21.316 -20.115  0.00  0.00     0.042 A 
ATOM     11  C   UNL d   1      32.673  22.075 -19.974  0.00  0.00     0.019 A 
ATOM     12  C   UNL d   1      33.086  21.060 -20.890  0.00  0.00    -0.003 A 
ATOM     13  O   UNL d   1      32.224  23.337 -20.466  0.00  0.00    -0.287 OA
ATOM     14  C   UNL d   1      33.240  20.546 -19.971  0.00  0.00     0.009 C 
ATOM     15  C   UNL d   1      32.837  21.563 -19.337  0.00  0.00     0.009 C 
ENDROOT
BRANCH   3  16
ATOM     16  C   UNL d   1      32.188  23.584 -21.867  0.00  0.00     0.001 C 
ATOM     17  C   UNL d   1      31.477  23.688 -21.465  0.00  0.00     0.000 C 
ENDBRANCH   3  16
BRANCH   5  18
ATOM     18  S   UNL d   1      33.014  21.557 -23.703  0.00  0.00    -0.067 SA
BRANCH  18  19
ATOM     19  C   UNL d   1      33.240  20.778 -23.846  0.00  0.00     0.042 C 
BRANCH  19  20
ATOM     20  C   UNL d   1      33.092  20.433 -24.586  0.00  0.00     0.070 C 
BRANCH  20  21
ATOM     21  C   UNL d   1      32.735  19.683 -24.624  0.00  0.00     0.280 C 
ATOM     22  N   UNL d   1      33.066  19.051 -24.201  0.00  0.00    -0.208 NA
ATOM     23  O   UNL d   1      32.058  19.566 -25.078  0.00  0.00    -0.265 OA
BRANCH  22  24
ATOM     24  C   UNL d   1      32.710  18.301 -24.239  0.00  0.00     0.085 A 
ATOM     25  C   UNL d   1      32.912  17.773 -24.838  0.00  0.00     0.021 A 
ATOM     26  C   UNL d   1      32.556  17.033 -24.869  0.00  0.00     0.026 A 
ATOM     27  C   UNL d   1      31.994  16.808 -24.305  0.00  0.00     0.094 A 
ATOM     28  C   UNL d   1      31.792  17.335 -23.706  0.00  0.00     0.026 A 
ATOM     29  C   UNL d   1      32.148  18.086 -23.668  0.00  0.00     0.021 A 
BRANCH  27  30
ATOM     30  O   UNL d   1      31.633  16.051 -24.340  0.00  0.00    -0.328 OA
ATOM     31  C   UNL d   1      30.814  15.979 -24.227  0.00  0.00     0.181 C 
ENDBRANCH  27  30
ENDBRANCH  22  24
ENDBRANCH  20  21
ENDBRANCH  19  20
ENDBRANCH  18  19
ENDBRANCH   5  18
TORSDOF 7
ENDMDL
