MODEL 1
REMARK VINA RESULT:      51.1      0.000      0.000
REMARK  6 active torsions:
REMARK  status: ('A' for Active; 'I' for Inactive)
REMARK    1  A    between atoms: C_3  and  N_4 
REMARK       I    between atoms: N_4  and  C_6 
REMARK    2  A    between atoms: C_9  and  C_5 
REMARK    3  A    between atoms: C_6  and  C_16 
REMARK    4  A    between atoms: S_12  and  C_7 
REMARK    5  A    between atoms: O_20  and  C_8 
REMARK    6  A    between atoms: C_16  and  S_12 
ROOT
ATOM      1  S   UNL d   1      14.010  15.593  -4.914  0.00  0.00    -0.061 SA
ENDROOT
BRANCH   1   2
ATOM      2  C   UNL d   1      14.039  16.382  -5.161  0.00  0.00     0.133 A 
ATOM      3  N   UNL d   1      14.323  16.968  -4.654  0.00  0.00    -0.141 NA
ATOM      4  N   UNL d   1      14.352  17.757  -4.901  0.00  0.00    -0.146 NA
ATOM      5  C   UNL d   1      14.093  17.963  -5.666  0.00  0.00     0.121 A 
ATOM      6  C   UNL d   1      13.808  17.376  -6.173  0.00  0.00     0.025 A 
ATOM      7  C   UNL d   1      13.778  16.590  -5.930  0.00  0.00     0.029 A 
BRANCH   5   8
ATOM      8  C   UNL d   1      14.124  18.757  -5.908  0.00  0.00     0.101 A 
ATOM      9  N   UNL d   1      13.427  19.180  -6.029  0.00  0.00    -0.242 NA
ATOM     10  C   UNL d   1      13.468  19.954  -6.264  0.00  0.00     0.099 A 
ATOM     11  C   UNL d   1      14.205  20.324  -6.385  0.00  0.00     0.021 A 
ATOM     12  C   UNL d   1      14.897  19.900  -6.263  0.00  0.00     0.003 A 
ATOM     13  C   UNL d   1      14.866  19.111  -6.023  0.00  0.00     0.021 A 
ENDBRANCH   5   8
ENDBRANCH   1   2
BRANCH   1  14
ATOM     14  C   UNL d   1      13.298  15.189  -4.898  0.00  0.00     0.099 C 
BRANCH  14  15
ATOM     15  C   UNL d   1      13.221  14.522  -4.426  0.00  0.00     0.286 C 
ATOM     16  N   UNL d   1      13.508  13.798  -4.678  0.00  0.00    -0.206 NA
ATOM     17  O   UNL d   1      12.853  14.572  -3.689  0.00  0.00    -0.265 OA
BRANCH  16  18
ATOM     18  C   UNL d   1      13.430  13.120  -4.199  0.00  0.00     0.107 A 
ATOM     19  C   UNL d   1      13.068  12.444  -4.496  0.00  0.00     0.112 A 
ATOM     20  C   UNL d   1      12.992  11.780  -4.027  0.00  0.00     0.026 A 
ATOM     21  C   UNL d   1      13.278  11.781  -3.248  0.00  0.00     0.002 A 
ATOM     22  C   UNL d   1      13.644  12.461  -2.943  0.00  0.00     0.002 A 
ATOM     23  C   UNL d   1      13.718  13.128  -3.423  0.00  0.00     0.021 A 
ATOM     24  C   UNL d   1      13.926  12.464  -2.177  0.00  0.00     0.000 C 
BRANCH  19  25
ATOM     25  O   UNL d   1      12.777  12.365  -5.213  0.00  0.00    -0.327 OA
ATOM     26  C   UNL d   1      13.019  11.786  -5.732  0.00  0.00     0.181 C 
ENDBRANCH  19  25
ENDBRANCH  16  18
ENDBRANCH  14  15
ENDBRANCH   1  14
TORSDOF 6
ENDMDL
