MODEL 1
REMARK VINA RESULT:      -7.4      0.000      0.000
REMARK  3 active torsions:
REMARK  status: ('A' for Active; 'I' for Inactive)
REMARK    1  A    between atoms: C_2  and  C_1 
REMARK    2  A    between atoms: N_5  and  C_2 
REMARK    3  A    between atoms: C_9  and  N_5 
ROOT
ATOM      1  C   UNL d   1     -47.732  12.783  22.786  0.00  0.00     0.139 C 
ATOM      2  S   UNL d   1     -48.041  13.533  22.965  0.00  0.00    -0.057 SA
ENDROOT
BRANCH   1   3
ATOM      3  C   UNL d   1     -46.985  12.564  23.066  0.00  0.00     0.074 A 
ATOM      4  C   UNL d   1     -46.253  12.996  22.935  0.00  0.00     0.129 A 
ATOM      5  O   UNL d   1     -45.622  12.563  23.327  0.00  0.00    -0.211 OA
ATOM      6  C   UNL d   1     -46.176  13.692  22.512  0.00  0.00     0.029 C 
ATOM      7  N   UNL d   1     -45.961  11.870  23.698  0.00  0.00    -0.125 NA
ATOM      8  C   UNL d   1     -46.804  11.868  23.538  0.00  0.00     0.132 A 
ENDBRANCH   1   3
BRANCH   1   9
ATOM      9  N   UNL d   1     -48.171  12.260  22.329  0.00  0.00    -0.235 NA
BRANCH   9  10
ATOM     10  C   UNL d   1     -48.977  12.381  22.224  0.00  0.00     0.082 A 
ATOM     11  C   UNL d   1     -49.505  12.121  22.798  0.00  0.00     0.019 A 
ATOM     12  C   UNL d   1     -50.307  12.244  22.691  0.00  0.00     0.002 A 
ATOM     13  C   UNL d   1     -50.581  12.621  22.021  0.00  0.00     0.000 A 
ATOM     14  C   UNL d   1     -50.045  12.880  21.448  0.00  0.00     0.002 A 
ATOM     15  C   UNL d   1     -49.237  12.757  21.555  0.00  0.00     0.019 A 
ENDBRANCH   9  10
ENDBRANCH   1   9
TORSDOF 3
ENDMDL
MODEL 2
REMARK VINA RESULT:      -7.0      1.594      3.315
REMARK  3 active torsions:
REMARK  status: ('A' for Active; 'I' for Inactive)
REMARK    1  A    between atoms: C_2  and  C_1 
REMARK    2  A    between atoms: N_5  and  C_2 
REMARK    3  A    between atoms: C_9  and  N_5 
ROOT
ATOM      1  C   UNL d   1     -48.464  12.556  22.772  0.00  0.00     0.139 C 
ATOM      2  S   UNL d   1     -48.366  12.715  21.963  0.00  0.00    -0.057 SA
ENDROOT
BRANCH   1   3
ATOM      3  C   UNL d   1     -49.068  12.051  23.026  0.00  0.00     0.074 A 
ATOM      4  C   UNL d   1     -49.881  12.059  22.745  0.00  0.00     0.129 A 
ATOM      5  O   UNL d   1     -50.307  11.440  23.163  0.00  0.00    -0.211 OA
ATOM      6  C   UNL d   1     -50.188  12.566  22.182  0.00  0.00     0.029 C 
ATOM      7  N   UNL d   1     -49.762  11.052  23.698  0.00  0.00    -0.125 NA
ATOM      8  C   UNL d   1     -48.995  11.428  23.615  0.00  0.00     0.132 A 
ENDBRANCH   1   3
BRANCH   1   9
ATOM      9  N   UNL d   1     -47.958  12.901  23.319  0.00  0.00    -0.235 NA
BRANCH   9  10
ATOM     10  C   UNL d   1     -47.263  13.260  23.067  0.00  0.00     0.082 A 
ATOM     11  C   UNL d   1     -46.589  12.803  22.949  0.00  0.00     0.019 A 
ATOM     12  C   UNL d   1     -45.899  13.164  22.698  0.00  0.00     0.002 A 
ATOM     13  C   UNL d   1     -45.878  13.968  22.566  0.00  0.00     0.000 A 
ATOM     14  C   UNL d   1     -46.558  14.423  22.686  0.00  0.00     0.002 A 
ATOM     15  C   UNL d   1     -47.254  14.060  22.939  0.00  0.00     0.019 A 
ENDBRANCH   9  10
ENDBRANCH   1   9
TORSDOF 3
ENDMDL
MODEL 3
REMARK VINA RESULT:      -6.8      2.287      3.839
REMARK  3 active torsions:
REMARK  status: ('A' for Active; 'I' for Inactive)
REMARK    1  A    between atoms: C_2  and  C_1 
REMARK    2  A    between atoms: N_5  and  C_2 
REMARK    3  A    between atoms: C_9  and  N_5 
ROOT
ATOM      1  C   UNL d   1     -48.912  14.077  22.425  0.00  0.00     0.139 C 
ATOM      2  S   UNL d   1     -48.719  13.681  21.721  0.00  0.00    -0.057 SA
ENDROOT
BRANCH   1   3
ATOM      3  C   UNL d   1     -49.562  14.589  22.449  0.00  0.00     0.074 A 
ATOM      4  C   UNL d   1     -50.360  14.400  22.192  0.00  0.00     0.129 A 
ATOM      5  O   UNL d   1     -50.846  15.097  22.320  0.00  0.00    -0.211 OA
ATOM      6  C   UNL d   1     -50.607  13.684  21.883  0.00  0.00     0.029 C 
ATOM      7  N   UNL d   1     -50.353  15.712  22.653  0.00  0.00    -0.125 NA
ATOM      8  C   UNL d   1     -49.557  15.401  22.734  0.00  0.00     0.132 A 
ENDBRANCH   1   3
BRANCH   1   9
ATOM      9  N   UNL d   1     -48.455  13.958  23.098  0.00  0.00    -0.235 NA
BRANCH   9  10
ATOM     10  C   UNL d   1     -47.698  13.647  23.030  0.00  0.00     0.082 A 
ATOM     11  C   UNL d   1     -47.073  14.139  22.820  0.00  0.00     0.019 A 
ATOM     12  C   UNL d   1     -46.320  13.827  22.754  0.00  0.00     0.002 A 
ATOM     13  C   UNL d   1     -46.189  13.034  22.895  0.00  0.00     0.000 A 
ATOM     14  C   UNL d   1     -46.820  12.544  23.106  0.00  0.00     0.002 A 
ATOM     15  C   UNL d   1     -47.580  12.858  23.173  0.00  0.00     0.019 A 
ENDBRANCH   9  10
ENDBRANCH   1   9
TORSDOF 3
ENDMDL
