MODEL 1
REMARK VINA RESULT:      -6.2      0.000      0.000
REMARK  3 active torsions:
REMARK  status: ('A' for Active; 'I' for Inactive)
REMARK       I    between atoms: C_2  and  N_1 
REMARK    1  A    between atoms: C_3  and  C_2 
REMARK    2  A    between atoms: S_5  and  C_3 
REMARK    3  A    between atoms: C_7  and  S_5 
ROOT
ATOM      1  C   UNL d   1     -48.409  13.384  22.783  0.00  0.00     0.125 C 
ENDROOT
BRANCH   1   2
ATOM      2  C   UNL d   1     -48.966  13.993  22.760  0.00  0.00     0.259 C 
ATOM      3  N   UNL d   1     -49.665  13.902  22.317  0.00  0.00    -0.268 N 
ATOM      4  C   UNL d   1     -50.226  14.505  22.288  0.00  0.00     0.110 A 
ATOM      5  C   UNL d   1     -49.792  13.199  21.904  0.00  0.00     0.110 A 
ATOM      6  C   UNL d   1     -50.916  14.405  21.846  0.00  0.00     0.142 A 
ATOM      7  O   UNL d   1     -51.043  13.702  21.433  0.00  0.00    -0.300 OA
ATOM      8  C   UNL d   1     -50.481  13.100  21.462  0.00  0.00     0.142 A 
ATOM      9  O   UNL d   1     -48.835  14.698  23.175  0.00  0.00    -0.267 OA
ENDBRANCH   1   2
BRANCH   1  10
ATOM     10  S   UNL d   1     -47.735  13.478  23.237  0.00  0.00    -0.095 SA
BRANCH  10  11
ATOM     11  C   UNL d   1     -47.174  12.874  23.268  0.00  0.00     0.029 A 
ATOM     12  C   UNL d   1     -46.441  12.972  22.901  0.00  0.00     0.006 A 
ATOM     13  C   UNL d   1     -45.880  12.368  22.933  0.00  0.00     0.001 A 
ATOM     14  C   UNL d   1     -46.053  11.666  23.332  0.00  0.00     0.000 A 
ATOM     15  C   UNL d   1     -46.785  11.569  23.698  0.00  0.00     0.001 A 
ATOM     16  C   UNL d   1     -45.483  11.070  23.356  0.00  0.00     0.000 C 
ATOM     17  C   UNL d   1     -47.346  12.173  23.666  0.00  0.00     0.006 A 
ENDBRANCH  10  11
ENDBRANCH   1  10
TORSDOF 3
ENDMDL
MODEL 2
REMARK VINA RESULT:      -6.2      1.299      1.755
REMARK  3 active torsions:
REMARK  status: ('A' for Active; 'I' for Inactive)
REMARK       I    between atoms: C_2  and  N_1 
REMARK    1  A    between atoms: C_3  and  C_2 
REMARK    2  A    between atoms: S_5  and  C_3 
REMARK    3  A    between atoms: C_7  and  S_5 
ROOT
ATOM      1  C   UNL d   1     -48.686  13.724  23.076  0.00  0.00     0.125 C 
ENDROOT
BRANCH   1   2
ATOM      2  C   UNL d   1     -49.495  13.741  23.235  0.00  0.00     0.259 C 
ATOM      3  N   UNL d   1     -49.882  14.469  23.353  0.00  0.00    -0.268 N 
ATOM      4  C   UNL d   1     -50.690  14.496  23.512  0.00  0.00     0.110 A 
ATOM      5  C   UNL d   1     -49.447  15.169  23.307  0.00  0.00     0.110 A 
ATOM      6  C   UNL d   1     -51.064  15.223  23.627  0.00  0.00     0.142 A 
ATOM      7  O   UNL d   1     -50.629  15.922  23.582  0.00  0.00    -0.300 OA
ATOM      8  C   UNL d   1     -49.821  15.895  23.422  0.00  0.00     0.142 A 
ATOM      9  O   UNL d   1     -49.930  13.038  23.280  0.00  0.00    -0.267 OA
ENDBRANCH   1   2
BRANCH   1  10
ATOM     10  S   UNL d   1     -48.304  13.002  23.028  0.00  0.00    -0.095 SA
BRANCH  10  11
ATOM     11  C   UNL d   1     -47.496  12.975  22.866  0.00  0.00     0.029 A 
ATOM     12  C   UNL d   1     -47.201  13.330  22.183  0.00  0.00     0.006 A 
ATOM     13  C   UNL d   1     -46.392  13.303  22.020  0.00  0.00     0.001 A 
ATOM     14  C   UNL d   1     -45.880  12.921  22.542  0.00  0.00     0.000 A 
ATOM     15  C   UNL d   1     -46.175  12.566  23.225  0.00  0.00     0.001 A 
ATOM     16  C   UNL d   1     -45.074  12.901  22.368  0.00  0.00     0.000 C 
ATOM     17  C   UNL d   1     -46.984  12.593  23.387  0.00  0.00     0.006 A 
ENDBRANCH  10  11
ENDBRANCH   1  10
TORSDOF 3
ENDMDL
MODEL 3
REMARK VINA RESULT:      -4.9      8.944      9.571
REMARK  3 active torsions:
REMARK  status: ('A' for Active; 'I' for Inactive)
REMARK       I    between atoms: C_2  and  N_1 
REMARK    1  A    between atoms: C_3  and  C_2 
REMARK    2  A    between atoms: S_5  and  C_3 
REMARK    3  A    between atoms: C_7  and  S_5 
ROOT
ATOM      1  C   UNL d   1     -39.969  14.897  19.535  0.00  0.00     0.125 C 
ENDROOT
BRANCH   1   2
ATOM      2  C   UNL d   1     -40.326  14.635  18.838  0.00  0.00     0.259 C 
ATOM      3  N   UNL d   1     -40.117  14.976  18.108  0.00  0.00    -0.268 N 
ATOM      4  C   UNL d   1     -40.468  14.720  17.408  0.00  0.00     0.110 A 
ATOM      5  C   UNL d   1     -39.551  15.577  18.091  0.00  0.00     0.110 A 
ATOM      6  C   UNL d   1     -40.254  15.065  16.689  0.00  0.00     0.142 A 
ATOM      7  O   UNL d   1     -39.689  15.665  16.673  0.00  0.00    -0.300 OA
ATOM      8  C   UNL d   1     -39.338  15.921  17.373  0.00  0.00     0.142 A 
ATOM      9  O   UNL d   1     -40.894  14.032  18.858  0.00  0.00    -0.267 OA
ENDBRANCH   1   2
BRANCH   1  10
ATOM     10  S   UNL d   1     -40.290  14.677  20.254  0.00  0.00    -0.095 SA
BRANCH  10  11
ATOM     11  C   UNL d   1     -39.936  14.928  20.956  0.00  0.00     0.029 A 
ATOM     12  C   UNL d   1     -40.125  15.667  21.270  0.00  0.00     0.006 A 
ATOM     13  C   UNL d   1     -39.771  15.919  21.972  0.00  0.00     0.001 A 
ATOM     14  C   UNL d   1     -39.229  15.431  22.358  0.00  0.00     0.000 A 
ATOM     15  C   UNL d   1     -39.041  14.693  22.043  0.00  0.00     0.001 A 
ATOM     16  C   UNL d   1     -38.882  15.695  23.059  0.00  0.00     0.000 C 
ATOM     17  C   UNL d   1     -39.395  14.441  21.342  0.00  0.00     0.006 A 
ENDBRANCH  10  11
ENDBRANCH   1  10
TORSDOF 3
ENDMDL
MODEL 4
REMARK VINA RESULT:      -4.7      9.229     10.658
REMARK  3 active torsions:
REMARK  status: ('A' for Active; 'I' for Inactive)
REMARK       I    between atoms: C_2  and  N_1 
REMARK    1  A    between atoms: C_3  and  C_2 
REMARK    2  A    between atoms: S_5  and  C_3 
REMARK    3  A    between atoms: C_7  and  S_5 
ROOT
ATOM      1  C   UNL d   1     -39.404  14.359  18.008  0.00  0.00     0.125 C 
ENDROOT
BRANCH   1   2
ATOM      2  C   UNL d   1     -39.109  13.870  17.413  0.00  0.00     0.259 C 
ATOM      3  N   UNL d   1     -38.716  14.200  16.758  0.00  0.00    -0.268 N 
ATOM      4  C   UNL d   1     -38.418  13.720  16.159  0.00  0.00     0.110 A 
ATOM      5  C   UNL d   1     -38.627  15.020  16.713  0.00  0.00     0.110 A 
ATOM      6  C   UNL d   1     -38.030  14.057  15.513  0.00  0.00     0.142 A 
ATOM      7  O   UNL d   1     -37.941  14.876  15.468  0.00  0.00    -0.300 OA
ATOM      8  C   UNL d   1     -38.239  15.357  16.068  0.00  0.00     0.142 A 
ATOM      9  O   UNL d   1     -39.200  13.048  17.461  0.00  0.00    -0.267 OA
ENDBRANCH   1   2
BRANCH   1  10
ATOM     10  S   UNL d   1     -39.889  14.038  18.584  0.00  0.00    -0.095 SA
BRANCH  10  11
ATOM     11  C   UNL d   1     -40.147  14.508  19.211  0.00  0.00     0.029 A 
ATOM     12  C   UNL d   1     -40.728  15.080  19.085  0.00  0.00     0.006 A 
ATOM     13  C   UNL d   1     -40.986  15.550  19.712  0.00  0.00     0.001 A 
ATOM     14  C   UNL d   1     -40.664  15.446  20.465  0.00  0.00     0.000 A 
ATOM     15  C   UNL d   1     -40.084  14.874  20.590  0.00  0.00     0.001 A 
ATOM     16  C   UNL d   1     -40.931  15.922  21.084  0.00  0.00     0.000 C 
ATOM     17  C   UNL d   1     -39.826  14.404  19.963  0.00  0.00     0.006 A 
ENDBRANCH  10  11
ENDBRANCH   1  10
TORSDOF 3
ENDMDL
MODEL 5
REMARK VINA RESULT:      -4.7      8.874      9.931
REMARK  3 active torsions:
REMARK  status: ('A' for Active; 'I' for Inactive)
REMARK       I    between atoms: C_2  and  N_1 
REMARK    1  A    between atoms: C_3  and  C_2 
REMARK    2  A    between atoms: S_5  and  C_3 
REMARK    3  A    between atoms: C_7  and  S_5 
ROOT
ATOM      1  C   UNL d   1     -39.833  14.483  20.170  0.00  0.00     0.125 C 
ENDROOT
BRANCH   1   2
ATOM      2  C   UNL d   1     -39.845  14.323  20.979  0.00  0.00     0.259 C 
ATOM      3  N   UNL d   1     -39.211  13.917  21.334  0.00  0.00    -0.268 N 
ATOM      4  C   UNL d   1     -39.215  13.753  22.141  0.00  0.00     0.110 A 
ATOM      5  C   UNL d   1     -38.573  13.679  20.867  0.00  0.00     0.110 A 
ATOM      6  C   UNL d   1     -38.580  13.350  22.483  0.00  0.00     0.142 A 
ATOM      7  O   UNL d   1     -37.943  13.112  22.016  0.00  0.00    -0.300 OA
ATOM      8  C   UNL d   1     -37.940  13.277  21.209  0.00  0.00     0.142 A 
ATOM      9  O   UNL d   1     -40.487  14.563  21.445  0.00  0.00    -0.267 OA
ENDBRANCH   1   2
BRANCH   1  10
ATOM     10  S   UNL d   1     -40.502  14.792  19.814  0.00  0.00    -0.095 SA
BRANCH  10  11
ATOM     11  C   UNL d   1     -40.496  14.965  19.008  0.00  0.00     0.029 A 
ATOM     12  C   UNL d   1     -40.412  15.746  18.754  0.00  0.00     0.006 A 
ATOM     13  C   UNL d   1     -40.406  15.918  17.947  0.00  0.00     0.001 A 
ATOM     14  C   UNL d   1     -40.483  15.310  17.395  0.00  0.00     0.000 A 
ATOM     15  C   UNL d   1     -40.567  14.530  17.649  0.00  0.00     0.001 A 
ATOM     16  C   UNL d   1     -40.475  15.496  16.591  0.00  0.00     0.000 C 
ATOM     17  C   UNL d   1     -40.573  14.357  18.456  0.00  0.00     0.006 A 
ENDBRANCH  10  11
ENDBRANCH   1  10
TORSDOF 3
ENDMDL
MODEL 6
REMARK VINA RESULT:      -4.1      1.852      3.782
REMARK  3 active torsions:
REMARK  status: ('A' for Active; 'I' for Inactive)
REMARK       I    between atoms: C_2  and  N_1 
REMARK    1  A    between atoms: C_3  and  C_2 
REMARK    2  A    between atoms: S_5  and  C_3 
REMARK    3  A    between atoms: C_7  and  S_5 
ROOT
ATOM      1  C   UNL d   1     -48.076  13.451  22.668  0.00  0.00     0.125 C 
ENDROOT
BRANCH   1   2
ATOM      2  C   UNL d   1     -47.549  14.061  22.491  0.00  0.00     0.259 C 
ATOM      3  N   UNL d   1     -46.728  13.925  22.521  0.00  0.00    -0.268 N 
ATOM      4  C   UNL d   1     -46.194  14.527  22.345  0.00  0.00     0.110 A 
ATOM      5  C   UNL d   1     -46.451  13.175  22.728  0.00  0.00     0.110 A 
ATOM      6  C   UNL d   1     -45.382  14.382  22.378  0.00  0.00     0.142 A 
ATOM      7  O   UNL d   1     -45.106  13.633  22.585  0.00  0.00    -0.300 OA
ATOM      8  C   UNL d   1     -45.640  13.030  22.760  0.00  0.00     0.142 A 
ATOM      9  O   UNL d   1     -47.829  14.812  22.283  0.00  0.00    -0.267 OA
ENDBRANCH   1   2
BRANCH   1  10
ATOM     10  S   UNL d   1     -48.871  13.552  22.503  0.00  0.00    -0.095 SA
BRANCH  10  11
ATOM     11  C   UNL d   1     -49.421  13.007  22.788  0.00  0.00     0.029 A 
ATOM     12  C   UNL d   1     -49.220  12.507  23.413  0.00  0.00     0.006 A 
ATOM     13  C   UNL d   1     -49.770  11.962  23.697  0.00  0.00     0.001 A 
ATOM     14  C   UNL d   1     -50.521  11.918  23.357  0.00  0.00     0.000 A 
ATOM     15  C   UNL d   1     -50.721  12.418  22.733  0.00  0.00     0.001 A 
ATOM     16  C   UNL d   1     -51.062  11.369  23.651  0.00  0.00     0.000 C 
ATOM     17  C   UNL d   1     -50.171  12.963  22.448  0.00  0.00     0.006 A 
ENDBRANCH  10  11
ENDBRANCH   1  10
TORSDOF 3
ENDMDL
MODEL 7
REMARK VINA RESULT:      -3.6      2.246      4.214
REMARK  3 active torsions:
REMARK  status: ('A' for Active; 'I' for Inactive)
REMARK       I    between atoms: C_2  and  N_1 
REMARK    1  A    between atoms: C_3  and  C_2 
REMARK    2  A    between atoms: S_5  and  C_3 
REMARK    3  A    between atoms: C_7  and  S_5 
ROOT
ATOM      1  C   UNL d   1     -47.369  12.193  23.399  0.00  0.00     0.125 C 
ENDROOT
BRANCH   1   2
ATOM      2  C   UNL d   1     -46.686  11.866  23.072  0.00  0.00     0.259 C 
ATOM      3  N   UNL d   1     -46.053  12.358  22.849  0.00  0.00    -0.268 N 
ATOM      4  C   UNL d   1     -45.366  12.040  22.522  0.00  0.00     0.110 A 
ATOM      5  C   UNL d   1     -46.118  13.174  22.960  0.00  0.00     0.110 A 
ATOM      6  C   UNL d   1     -44.744  12.537  22.305  0.00  0.00     0.142 A 
ATOM      7  O   UNL d   1     -44.810  13.352  22.415  0.00  0.00    -0.300 OA
ATOM      8  C   UNL d   1     -45.496  13.670  22.742  0.00  0.00     0.142 A 
ATOM      9  O   UNL d   1     -46.622  11.047  22.962  0.00  0.00    -0.267 OA
ENDBRANCH   1   2
BRANCH   1  10
ATOM     10  S   UNL d   1     -48.021  11.714  23.522  0.00  0.00    -0.095 SA
BRANCH  10  11
ATOM     11  C   UNL d   1     -48.779  12.007  23.381  0.00  0.00     0.029 A 
ATOM     12  C   UNL d   1     -49.321  11.557  22.952  0.00  0.00     0.006 A 
ATOM     13  C   UNL d   1     -50.079  11.850  22.811  0.00  0.00     0.001 A 
ATOM     14  C   UNL d   1     -50.294  12.593  23.098  0.00  0.00     0.000 A 
ATOM     15  C   UNL d   1     -49.751  13.042  23.527  0.00  0.00     0.001 A 
ATOM     16  C   UNL d   1     -51.055  12.875  22.950  0.00  0.00     0.000 C 
ATOM     17  C   UNL d   1     -48.993  12.749  23.668  0.00  0.00     0.006 A 
ENDBRANCH  10  11
ENDBRANCH   1  10
TORSDOF 3
ENDMDL
MODEL 8
REMARK VINA RESULT:      -3.4      8.888     10.374
REMARK  3 active torsions:
REMARK  status: ('A' for Active; 'I' for Inactive)
REMARK       I    between atoms: C_2  and  N_1 
REMARK    1  A    between atoms: C_3  and  C_2 
REMARK    2  A    between atoms: S_5  and  C_3 
REMARK    3  A    between atoms: C_7  and  S_5 
ROOT
ATOM      1  C   UNL d   1     -39.610  14.508  18.834  0.00  0.00     0.125 C 
ENDROOT
BRANCH   1   2
ATOM      2  C   UNL d   1     -40.115  14.621  19.477  0.00  0.00     0.259 C 
ATOM      3  N   UNL d   1     -39.858  15.056  20.138  0.00  0.00    -0.268 N 
ATOM      4  C   UNL d   1     -40.356  15.173  20.785  0.00  0.00     0.110 A 
ATOM      5  C   UNL d   1     -39.095  15.372  20.142  0.00  0.00     0.110 A 
ATOM      6  C   UNL d   1     -40.091  15.607  21.436  0.00  0.00     0.142 A 
ATOM      7  O   UNL d   1     -39.329  15.922  21.439  0.00  0.00    -0.300 OA
ATOM      8  C   UNL d   1     -38.832  15.805  20.792  0.00  0.00     0.142 A 
ATOM      9  O   UNL d   1     -40.880  14.303  19.471  0.00  0.00    -0.267 OA
ENDBRANCH   1   2
BRANCH   1  10
ATOM     10  S   UNL d   1     -39.894  14.134  18.164  0.00  0.00    -0.095 SA
BRANCH  10  11
ATOM     11  C   UNL d   1     -39.404  14.040  17.508  0.00  0.00     0.029 A 
ATOM     12  C   UNL d   1     -39.432  14.588  16.891  0.00  0.00     0.006 A 
ATOM     13  C   UNL d   1     -38.941  14.493  16.234  0.00  0.00     0.001 A 
ATOM     14  C   UNL d   1     -38.424  13.851  16.195  0.00  0.00     0.000 A 
ATOM     15  C   UNL d   1     -38.397  13.305  16.811  0.00  0.00     0.001 A 
ATOM     16  C   UNL d   1     -37.939  13.769  15.532  0.00  0.00     0.000 C 
ATOM     17  C   UNL d   1     -38.887  13.399  17.468  0.00  0.00     0.006 A 
ENDBRANCH  10  11
ENDBRANCH   1  10
TORSDOF 3
ENDMDL
