MODEL 1
REMARK VINA RESULT:      -7.1      0.000      0.000
REMARK  6 active torsions:
REMARK  status: ('A' for Active; 'I' for Inactive)
REMARK       I    between atoms: N_2  and  C_1 
REMARK    1  A    between atoms: C_3  and  C_1 
REMARK    2  A    between atoms: C_5  and  N_2 
REMARK    3  A    between atoms: C_6  and  C_3 
REMARK    4  A    between atoms: C_8  and  C_5 
REMARK    5  A    between atoms: O_7  and  C_6 
REMARK    6  A    between atoms: C_9  and  O_7 
ROOT
ATOM      1  C   UNL d   1     -48.288  11.469  23.190  0.00  0.00     0.330 C 
ATOM      2  N   UNL d   1     -47.584  11.804  23.438  0.00  0.00    -0.362 NA
ATOM      3  O   UNL d   1     -48.281  10.847  22.662  0.00  0.00    -0.251 OA
ENDROOT
BRANCH   1   4
ATOM      4  C   UNL d   1     -48.994  11.761  23.471  0.00  0.00     0.103 C 
BRANCH   4   5
ATOM      5  C   UNL d   1     -49.538  12.092  22.937  0.00  0.00     0.129 C 
BRANCH   5   6
ATOM      6  O   UNL d   1     -50.182  12.536  23.225  0.00  0.00    -0.305 OA
BRANCH   6   7
ATOM      7  C   UNL d   1     -50.474  13.176  22.791  0.00  0.00     0.100 A 
ATOM      8  C   UNL d   1     -50.767  13.061  22.047  0.00  0.00     0.025 A 
ATOM      9  C   UNL d   1     -51.064  13.704  21.601  0.00  0.00     0.002 A 
ATOM     10  C   UNL d   1     -51.049  14.460  21.942  0.00  0.00     0.000 A 
ATOM     11  C   UNL d   1     -50.757  14.575  22.686  0.00  0.00     0.002 A 
ATOM     12  C   UNL d   1     -50.466  13.939  23.120  0.00  0.00     0.025 A 
ENDBRANCH   6   7
ENDBRANCH   5   6
ENDBRANCH   4   5
ENDBRANCH   1   4
BRANCH   2  13
ATOM     13  C   UNL d   1     -46.885  12.151  23.698  0.00  0.00     0.165 C 
BRANCH  13  14
ATOM     14  C   UNL d   1     -46.510  12.734  23.258  0.00  0.00     0.032 A 
ATOM     15  C   UNL d   1     -46.716  13.526  23.366  0.00  0.00     0.003 A 
ATOM     16  C   UNL d   1     -46.336  14.117  22.920  0.00  0.00     0.000 A 
ATOM     17  C   UNL d   1     -45.753  13.911  22.371  0.00  0.00     0.000 A 
ATOM     18  C   UNL d   1     -45.553  13.123  22.268  0.00  0.00     0.000 A 
ATOM     19  C   UNL d   1     -45.933  12.531  22.715  0.00  0.00     0.003 A 
ENDBRANCH  13  14
ENDBRANCH   2  13
TORSDOF 6
ENDMDL
MODEL 2
REMARK VINA RESULT:      -6.5      1.706      4.419
REMARK  6 active torsions:
REMARK  status: ('A' for Active; 'I' for Inactive)
REMARK       I    between atoms: N_2  and  C_1 
REMARK    1  A    between atoms: C_3  and  C_1 
REMARK    2  A    between atoms: C_5  and  N_2 
REMARK    3  A    between atoms: C_6  and  C_3 
REMARK    4  A    between atoms: C_8  and  C_5 
REMARK    5  A    between atoms: O_7  and  C_6 
REMARK    6  A    between atoms: C_9  and  O_7 
ROOT
ATOM      1  C   UNL d   1     -49.067  15.131  22.499  0.00  0.00     0.330 C 
ATOM      2  N   UNL d   1     -49.728  14.707  22.726  0.00  0.00    -0.362 NA
ATOM      3  O   UNL d   1     -49.086  15.586  21.822  0.00  0.00    -0.251 OA
ENDROOT
BRANCH   1   4
ATOM      4  C   UNL d   1     -48.391  15.096  22.950  0.00  0.00     0.103 C 
BRANCH   4   5
ATOM      5  C   UNL d   1     -47.712  14.731  22.638  0.00  0.00     0.129 C 
BRANCH   5   6
ATOM      6  O   UNL d   1     -47.076  14.540  23.143  0.00  0.00    -0.305 OA
BRANCH   6   7
ATOM      7  C   UNL d   1     -46.606  13.878  22.986  0.00  0.00     0.100 A 
ATOM      8  C   UNL d   1     -46.027  13.917  22.424  0.00  0.00     0.025 A 
ATOM      9  C   UNL d   1     -45.546  13.252  22.260  0.00  0.00     0.002 A 
ATOM     10  C   UNL d   1     -45.680  12.554  22.687  0.00  0.00     0.000 A 
ATOM     11  C   UNL d   1     -46.259  12.515  23.249  0.00  0.00     0.002 A 
ATOM     12  C   UNL d   1     -46.728  13.172  23.407  0.00  0.00     0.025 A 
ENDBRANCH   6   7
ENDBRANCH   5   6
ENDBRANCH   4   5
ENDBRANCH   1   4
BRANCH   2  13
ATOM     13  C   UNL d   1     -50.385  14.275  22.969  0.00  0.00     0.165 C 
BRANCH  13  14
ATOM     14  C   UNL d   1     -50.376  13.454  22.977  0.00  0.00     0.032 A 
ATOM     15  C   UNL d   1     -50.355  13.037  22.266  0.00  0.00     0.003 A 
ATOM     16  C   UNL d   1     -50.346  12.205  22.274  0.00  0.00     0.000 A 
ATOM     17  C   UNL d   1     -50.357  11.798  22.994  0.00  0.00     0.000 A 
ATOM     18  C   UNL d   1     -50.377  12.219  23.698  0.00  0.00     0.000 A 
ATOM     19  C   UNL d   1     -50.387  13.052  23.689  0.00  0.00     0.003 A 
ENDBRANCH  13  14
ENDBRANCH   2  13
TORSDOF 6
ENDMDL
MODEL 3
REMARK VINA RESULT:      -5.9      1.531      2.254
REMARK  6 active torsions:
REMARK  status: ('A' for Active; 'I' for Inactive)
REMARK       I    between atoms: N_2  and  C_1 
REMARK    1  A    between atoms: C_3  and  C_1 
REMARK    2  A    between atoms: C_5  and  N_2 
REMARK    3  A    between atoms: C_6  and  C_3 
REMARK    4  A    between atoms: C_8  and  C_5 
REMARK    5  A    between atoms: O_7  and  C_6 
REMARK    6  A    between atoms: C_9  and  O_7 
ROOT
ATOM      1  C   UNL d   1     -47.995  15.100  22.436  0.00  0.00     0.330 C 
ATOM      2  N   UNL d   1     -47.300  14.816  22.761  0.00  0.00    -0.362 NA
ATOM      3  O   UNL d   1     -47.994  15.422  21.686  0.00  0.00    -0.251 OA
ENDROOT
BRANCH   1   4
ATOM      4  C   UNL d   1     -48.686  15.060  22.864  0.00  0.00     0.103 C 
BRANCH   4   5
ATOM      5  C   UNL d   1     -49.325  14.622  22.562  0.00  0.00     0.129 C 
BRANCH   5   6
ATOM      6  O   UNL d   1     -49.979  14.455  23.052  0.00  0.00    -0.305 OA
BRANCH   6   7
ATOM      7  C   UNL d   1     -50.339  13.711  23.026  0.00  0.00     0.100 A 
ATOM      8  C   UNL d   1     -50.696  13.458  22.347  0.00  0.00     0.025 A 
ATOM      9  C   UNL d   1     -51.062  12.706  22.312  0.00  0.00     0.002 A 
ATOM     10  C   UNL d   1     -51.049  12.229  22.990  0.00  0.00     0.000 A 
ATOM     11  C   UNL d   1     -50.692  12.483  23.669  0.00  0.00     0.002 A 
ATOM     12  C   UNL d   1     -50.333  13.223  23.698  0.00  0.00     0.025 A 
ENDBRANCH   6   7
ENDBRANCH   5   6
ENDBRANCH   4   5
ENDBRANCH   1   4
BRANCH   2  13
ATOM     13  C   UNL d   1     -46.610  14.527  23.103  0.00  0.00     0.165 C 
BRANCH  13  14
ATOM     14  C   UNL d   1     -46.360  13.756  22.971  0.00  0.00     0.032 A 
ATOM     15  C   UNL d   1     -46.598  13.154  23.483  0.00  0.00     0.003 A 
ATOM     16  C   UNL d   1     -46.345  12.372  23.349  0.00  0.00     0.000 A 
ATOM     17  C   UNL d   1     -45.857  12.200  22.704  0.00  0.00     0.000 A 
ATOM     18  C   UNL d   1     -45.624  12.802  22.199  0.00  0.00     0.000 A 
ATOM     19  C   UNL d   1     -45.877  13.585  22.333  0.00  0.00     0.003 A 
ENDBRANCH  13  14
ENDBRANCH   2  13
TORSDOF 6
ENDMDL
MODEL 4
REMARK VINA RESULT:      -5.6      8.678     10.348
REMARK  6 active torsions:
REMARK  status: ('A' for Active; 'I' for Inactive)
REMARK       I    between atoms: N_2  and  C_1 
REMARK    1  A    between atoms: C_3  and  C_1 
REMARK    2  A    between atoms: C_5  and  N_2 
REMARK    3  A    between atoms: C_6  and  C_3 
REMARK    4  A    between atoms: C_8  and  C_5 
REMARK    5  A    between atoms: O_7  and  C_6 
REMARK    6  A    between atoms: C_9  and  O_7 
ROOT
ATOM      1  C   UNL d   1     -40.570  15.050  19.391  0.00  0.00     0.330 C 
ATOM      2  N   UNL d   1     -40.629  14.919  20.196  0.00  0.00    -0.362 NA
ATOM      3  O   UNL d   1     -40.495  15.810  19.104  0.00  0.00    -0.251 OA
ENDROOT
BRANCH   1   4
ATOM      4  C   UNL d   1     -40.588  14.418  18.878  0.00  0.00     0.103 C 
BRANCH   4   5
ATOM      5  C   UNL d   1     -39.998  14.351  18.296  0.00  0.00     0.129 C 
BRANCH   5   6
ATOM      6  O   UNL d   1     -39.948  13.658  17.836  0.00  0.00    -0.305 OA
BRANCH   6   7
ATOM      7  C   UNL d   1     -39.277  13.513  17.374  0.00  0.00     0.100 A 
ATOM      8  C   UNL d   1     -39.154  13.935  16.696  0.00  0.00     0.025 A 
ATOM      9  C   UNL d   1     -38.479  13.795  16.222  0.00  0.00     0.002 A 
ATOM     10  C   UNL d   1     -37.941  13.213  16.466  0.00  0.00     0.000 A 
ATOM     11  C   UNL d   1     -38.064  12.790  17.143  0.00  0.00     0.002 A 
ATOM     12  C   UNL d   1     -38.730  12.933  17.605  0.00  0.00     0.025 A 
ENDBRANCH   6   7
ENDBRANCH   5   6
ENDBRANCH   4   5
ENDBRANCH   1   4
BRANCH   2  13
ATOM     13  C   UNL d   1     -40.690  14.771  21.003  0.00  0.00     0.165 C 
BRANCH  13  14
ATOM     14  C   UNL d   1     -40.038  14.835  21.498  0.00  0.00     0.032 A 
ATOM     15  C   UNL d   1     -39.621  14.158  21.718  0.00  0.00     0.003 A 
ATOM     16  C   UNL d   1     -38.960  14.223  22.220  0.00  0.00     0.000 A 
ATOM     17  C   UNL d   1     -38.723  14.966  22.498  0.00  0.00     0.000 A 
ATOM     18  C   UNL d   1     -39.141  15.635  22.275  0.00  0.00     0.000 A 
ATOM     19  C   UNL d   1     -39.803  15.569  21.773  0.00  0.00     0.003 A 
ENDBRANCH  13  14
ENDBRANCH   2  13
TORSDOF 6
ENDMDL
MODEL 5
REMARK VINA RESULT:      -5.5      1.930      4.999
REMARK  6 active torsions:
REMARK  status: ('A' for Active; 'I' for Inactive)
REMARK       I    between atoms: N_2  and  C_1 
REMARK    1  A    between atoms: C_3  and  C_1 
REMARK    2  A    between atoms: C_5  and  N_2 
REMARK    3  A    between atoms: C_6  and  C_3 
REMARK    4  A    between atoms: C_8  and  C_5 
REMARK    5  A    between atoms: O_7  and  C_6 
REMARK    6  A    between atoms: C_9  and  O_7 
ROOT
ATOM      1  C   UNL d   1     -47.215  12.684  23.303  0.00  0.00     0.330 C 
ATOM      2  N   UNL d   1     -48.024  12.807  23.329  0.00  0.00    -0.362 NA
ATOM      3  O   UNL d   1     -46.731  13.226  22.934  0.00  0.00    -0.251 OA
ENDROOT
BRANCH   1   4
ATOM      4  C   UNL d   1     -46.898  12.018  23.648  0.00  0.00     0.103 C 
BRANCH   4   5
ATOM      5  C   UNL d   1     -46.140  11.765  23.420  0.00  0.00     0.129 C 
BRANCH   5   6
ATOM      6  O   UNL d   1     -45.864  11.017  23.663  0.00  0.00    -0.305 OA
BRANCH   6   7
ATOM      7  C   UNL d   1     -45.081  10.794  23.514  0.00  0.00     0.100 A 
ATOM      8  C   UNL d   1     -44.833  10.046  23.692  0.00  0.00     0.025 A 
ATOM      9  C   UNL d   1     -44.043   9.811  23.544  0.00  0.00     0.002 A 
ATOM     10  C   UNL d   1     -43.524  10.366  23.210  0.00  0.00     0.000 A 
ATOM     11  C   UNL d   1     -43.772  11.113  23.032  0.00  0.00     0.002 A 
ATOM     12  C   UNL d   1     -44.550  11.338  23.180  0.00  0.00     0.025 A 
ENDBRANCH   6   7
ENDBRANCH   5   6
ENDBRANCH   4   5
ENDBRANCH   1   4
BRANCH   2  13
ATOM     13  C   UNL d   1     -48.838  12.916  23.363  0.00  0.00     0.165 C 
BRANCH  13  14
ATOM     14  C   UNL d   1     -49.297  12.920  22.682  0.00  0.00     0.032 A 
ATOM     15  C   UNL d   1     -49.772  12.269  22.504  0.00  0.00     0.003 A 
ATOM     16  C   UNL d   1     -50.237  12.273  21.813  0.00  0.00     0.000 A 
ATOM     17  C   UNL d   1     -50.222  12.928  21.308  0.00  0.00     0.000 A 
ATOM     18  C   UNL d   1     -49.748  13.571  21.491  0.00  0.00     0.000 A 
ATOM     19  C   UNL d   1     -49.283  13.567  22.182  0.00  0.00     0.003 A 
ENDBRANCH  13  14
ENDBRANCH   2  13
TORSDOF 6
ENDMDL
MODEL 6
REMARK VINA RESULT:      -5.4      1.948      2.760
REMARK  6 active torsions:
REMARK  status: ('A' for Active; 'I' for Inactive)
REMARK       I    between atoms: N_2  and  C_1 
REMARK    1  A    between atoms: C_3  and  C_1 
REMARK    2  A    between atoms: C_5  and  N_2 
REMARK    3  A    between atoms: C_6  and  C_3 
REMARK    4  A    between atoms: C_8  and  C_5 
REMARK    5  A    between atoms: O_7  and  C_6 
REMARK    6  A    between atoms: C_9  and  O_7 
ROOT
ATOM      1  C   UNL d   1     -46.196  13.787  22.898  0.00  0.00     0.330 C 
ATOM      2  N   UNL d   1     -45.815  13.307  22.356  0.00  0.00    -0.362 NA
ATOM      3  O   UNL d   1     -46.098  13.657  23.698  0.00  0.00    -0.251 OA
ENDROOT
BRANCH   1   4
ATOM      4  C   UNL d   1     -46.672  14.392  22.636  0.00  0.00     0.103 C 
BRANCH   4   5
ATOM      5  C   UNL d   1     -47.487  14.368  22.801  0.00  0.00     0.129 C 
BRANCH   5   6
ATOM      6  O   UNL d   1     -47.990  14.954  22.486  0.00  0.00    -0.305 OA
BRANCH   6   7
ATOM      7  C   UNL d   1     -48.807  14.908  22.603  0.00  0.00     0.100 A 
ATOM      8  C   UNL d   1     -49.151  15.304  23.217  0.00  0.00     0.025 A 
ATOM      9  C   UNL d   1     -49.978  15.263  23.343  0.00  0.00     0.002 A 
ATOM     10  C   UNL d   1     -50.433  14.805  22.822  0.00  0.00     0.000 A 
ATOM     11  C   UNL d   1     -50.089  14.408  22.208  0.00  0.00     0.002 A 
ATOM     12  C   UNL d   1     -49.276  14.453  22.089  0.00  0.00     0.025 A 
ENDBRANCH   6   7
ENDBRANCH   5   6
ENDBRANCH   4   5
ENDBRANCH   1   4
BRANCH   2  13
ATOM     13  C   UNL d   1     -45.439  12.834  21.797  0.00  0.00     0.165 C 
BRANCH  13  14
ATOM     14  C   UNL d   1     -44.633  12.683  21.841  0.00  0.00     0.032 A 
ATOM     15  C   UNL d   1     -44.357  12.063  22.311  0.00  0.00     0.003 A 
ATOM     16  C   UNL d   1     -43.540  11.909  22.354  0.00  0.00     0.000 A 
ATOM     17  C   UNL d   1     -43.007  12.377  21.927  0.00  0.00     0.000 A 
ATOM     18  C   UNL d   1     -43.289  12.991  21.462  0.00  0.00     0.000 A 
ATOM     19  C   UNL d   1     -44.106  13.144  21.419  0.00  0.00     0.003 A 
ENDBRANCH  13  14
ENDBRANCH   2  13
TORSDOF 6
ENDMDL
MODEL 7
REMARK VINA RESULT:      -5.3      3.957      6.907
REMARK  6 active torsions:
REMARK  status: ('A' for Active; 'I' for Inactive)
REMARK       I    between atoms: N_2  and  C_1 
REMARK    1  A    between atoms: C_3  and  C_1 
REMARK    2  A    between atoms: C_5  and  N_2 
REMARK    3  A    between atoms: C_6  and  C_3 
REMARK    4  A    between atoms: C_8  and  C_5 
REMARK    5  A    between atoms: O_7  and  C_6 
REMARK    6  A    between atoms: C_9  and  O_7 
ROOT
ATOM      1  C   UNL d   1     -43.474  12.725  21.597  0.00  0.00     0.330 C 
ATOM      2  N   UNL d   1     -44.291  12.751  21.563  0.00  0.00    -0.362 NA
ATOM      3  O   UNL d   1     -43.102  12.284  22.174  0.00  0.00    -0.251 OA
ENDROOT
BRANCH   1   4
ATOM      4  C   UNL d   1     -43.035  13.142  21.052  0.00  0.00     0.103 C 
BRANCH   4   5
ATOM      5  C   UNL d   1     -42.308  13.471  21.284  0.00  0.00     0.129 C 
BRANCH   5   6
ATOM      6  O   UNL d   1     -41.794  13.786  20.707  0.00  0.00    -0.305 OA
BRANCH   6   7
ATOM      7  C   UNL d   1     -41.215  14.336  20.921  0.00  0.00     0.100 A 
ATOM      8  C   UNL d   1     -41.374  15.127  20.882  0.00  0.00     0.025 A 
ATOM      9  C   UNL d   1     -40.793  15.690  21.098  0.00  0.00     0.002 A 
ATOM     10  C   UNL d   1     -40.053  15.416  21.351  0.00  0.00     0.000 A 
ATOM     11  C   UNL d   1     -39.894  14.624  21.389  0.00  0.00     0.002 A 
ATOM     12  C   UNL d   1     -40.469  14.076  21.176  0.00  0.00     0.025 A 
ENDBRANCH   6   7
ENDBRANCH   5   6
ENDBRANCH   4   5
ENDBRANCH   1   4
BRANCH   2  13
ATOM     13  C   UNL d   1     -45.111  12.787  21.515  0.00  0.00     0.165 C 
BRANCH  13  14
ATOM     14  C   UNL d   1     -45.567  12.997  22.165  0.00  0.00     0.032 A 
ATOM     15  C   UNL d   1     -45.752  13.790  22.297  0.00  0.00     0.003 A 
ATOM     16  C   UNL d   1     -46.214  14.003  22.956  0.00  0.00     0.000 A 
ATOM     17  C   UNL d   1     -46.487  13.421  23.476  0.00  0.00     0.000 A 
ATOM     18  C   UNL d   1     -46.299  12.635  23.339  0.00  0.00     0.000 A 
ATOM     19  C   UNL d   1     -45.837  12.421  22.680  0.00  0.00     0.003 A 
ENDBRANCH  13  14
ENDBRANCH   2  13
TORSDOF 6
ENDMDL
MODEL 8
REMARK VINA RESULT:      -5.2      3.922      5.592
REMARK  6 active torsions:
REMARK  status: ('A' for Active; 'I' for Inactive)
REMARK       I    between atoms: N_2  and  C_1 
REMARK    1  A    between atoms: C_3  and  C_1 
REMARK    2  A    between atoms: C_5  and  N_2 
REMARK    3  A    between atoms: C_6  and  C_3 
REMARK    4  A    between atoms: C_8  and  C_5 
REMARK    5  A    between atoms: O_7  and  C_6 
REMARK    6  A    between atoms: C_9  and  O_7 
ROOT
ATOM      1  C   UNL d   1     -42.827  12.989  21.396  0.00  0.00     0.330 C 
ATOM      2  N   UNL d   1     -42.290  13.393  20.931  0.00  0.00    -0.362 NA
ATOM      3  O   UNL d   1     -42.571  12.571  22.048  0.00  0.00    -0.251 OA
ENDROOT
BRANCH   1   4
ATOM      4  C   UNL d   1     -43.619  13.007  21.206  0.00  0.00     0.103 C 
BRANCH   4   5
ATOM      5  C   UNL d   1     -44.183  13.013  21.816  0.00  0.00     0.129 C 
BRANCH   5   6
ATOM      6  O   UNL d   1     -44.995  13.000  21.628  0.00  0.00    -0.305 OA
BRANCH   6   7
ATOM      7  C   UNL d   1     -45.561  13.111  22.221  0.00  0.00     0.100 A 
ATOM      8  C   UNL d   1     -45.848  12.477  22.631  0.00  0.00     0.025 A 
ATOM      9  C   UNL d   1     -46.421  12.580  23.232  0.00  0.00     0.002 A 
ATOM     10  C   UNL d   1     -46.685  13.349  23.396  0.00  0.00     0.000 A 
ATOM     11  C   UNL d   1     -46.399  13.984  22.986  0.00  0.00     0.002 A 
ATOM     12  C   UNL d   1     -45.836  13.875  22.396  0.00  0.00     0.025 A 
ENDBRANCH   6   7
ENDBRANCH   5   6
ENDBRANCH   4   5
ENDBRANCH   1   4
BRANCH   2  13
ATOM     13  C   UNL d   1     -41.762  13.805  20.452  0.00  0.00     0.165 C 
BRANCH  13  14
ATOM     14  C   UNL d   1     -41.239  14.353  20.768  0.00  0.00     0.032 A 
ATOM     15  C   UNL d   1     -41.448  15.151  20.793  0.00  0.00     0.003 A 
ATOM     16  C   UNL d   1     -40.917  15.708  21.114  0.00  0.00     0.000 A 
ATOM     17  C   UNL d   1     -40.183  15.460  21.405  0.00  0.00     0.000 A 
ATOM     18  C   UNL d   1     -39.983  14.665  21.377  0.00  0.00     0.000 A 
ATOM     19  C   UNL d   1     -40.514  14.109  21.056  0.00  0.00     0.003 A 
ENDBRANCH  13  14
ENDBRANCH   2  13
TORSDOF 6
ENDMDL
MODEL 9
REMARK VINA RESULT:      -5.1      8.805      9.729
REMARK  6 active torsions:
REMARK  status: ('A' for Active; 'I' for Inactive)
REMARK       I    between atoms: N_2  and  C_1 
REMARK    1  A    between atoms: C_3  and  C_1 
REMARK    2  A    between atoms: C_5  and  N_2 
REMARK    3  A    between atoms: C_6  and  C_3 
REMARK    4  A    between atoms: C_8  and  C_5 
REMARK    5  A    between atoms: O_7  and  C_6 
REMARK    6  A    between atoms: C_9  and  O_7 
ROOT
ATOM      1  C   UNL d   1     -40.350  14.470  20.713  0.00  0.00     0.330 C 
ATOM      2  N   UNL d   1     -39.631  14.556  21.094  0.00  0.00    -0.362 NA
ATOM      3  O   UNL d   1     -41.029  14.778  21.046  0.00  0.00    -0.251 OA
ENDROOT
BRANCH   1   4
ATOM      4  C   UNL d   1     -40.385  14.076  20.002  0.00  0.00     0.103 C 
BRANCH   4   5
ATOM      5  C   UNL d   1     -40.510  14.509  19.304  0.00  0.00     0.129 C 
BRANCH   5   6
ATOM      6  O   UNL d   1     -40.576  14.109  18.575  0.00  0.00    -0.305 OA
BRANCH   6   7
ATOM      7  C   UNL d   1     -40.434  14.510  17.866  0.00  0.00     0.100 A 
ATOM      8  C   UNL d   1     -39.756  14.368  17.450  0.00  0.00     0.025 A 
ATOM      9  C   UNL d   1     -39.604  14.770  16.731  0.00  0.00     0.002 A 
ATOM     10  C   UNL d   1     -40.167  15.314  16.458  0.00  0.00     0.000 A 
ATOM     11  C   UNL d   1     -40.845  15.456  16.874  0.00  0.00     0.002 A 
ATOM     12  C   UNL d   1     -40.988  15.058  17.580  0.00  0.00     0.025 A 
ENDBRANCH   6   7
ENDBRANCH   5   6
ENDBRANCH   4   5
ENDBRANCH   1   4
BRANCH   2  13
ATOM     13  C   UNL d   1     -38.901  14.634  21.464  0.00  0.00     0.165 C 
BRANCH  13  14
ATOM     14  C   UNL d   1     -38.693  14.159  22.101  0.00  0.00     0.032 A 
ATOM     15  C   UNL d   1     -38.899  14.387  22.867  0.00  0.00     0.003 A 
ATOM     16  C   UNL d   1     -38.688  13.906  23.513  0.00  0.00     0.000 A 
ATOM     17  C   UNL d   1     -38.274  13.201  23.386  0.00  0.00     0.000 A 
ATOM     18  C   UNL d   1     -38.073  12.980  22.622  0.00  0.00     0.000 A 
ATOM     19  C   UNL d   1     -38.284  13.462  21.976  0.00  0.00     0.003 A 
ENDBRANCH  13  14
ENDBRANCH   2  13
TORSDOF 6
ENDMDL
