MODEL 1
REMARK VINA RESULT:      70.3      0.000      0.000
REMARK  4 active torsions:
REMARK  status: ('A' for Active; 'I' for Inactive)
REMARK    1  A    between atoms: C_8  and  C_1 
REMARK    2  A    between atoms: C_10  and  C_5 
REMARK    3  A    between atoms: N_9  and  C_10 
REMARK    4  A    between atoms: O_19  and  C_14 
ROOT
ATOM      1  C   UNL d   1     -54.801-101.505 -40.340  0.00  0.00     0.066 A 
ATOM      2  C   UNL d   1     -54.890-102.059 -40.946  0.00  0.00     0.200 A 
ATOM      3  C   UNL d   1     -54.802-101.020 -41.923  0.00  0.00     0.108 A 
ATOM      4  C   UNL d   1     -54.891-101.828 -41.730  0.00  0.00     0.062 A 
ATOM      5  C   UNL d   1     -54.804-100.799 -42.710  0.00  0.00     0.079 A 
ATOM      6  C   UNL d   1     -54.712-100.697 -40.534  0.00  0.00     0.126 A 
ATOM      7  O   UNL d   1     -54.711-100.453 -41.317  0.00  0.00    -0.305 OA
ATOM      8  C   UNL d   1     -54.980-102.381 -42.331  0.00  0.00     0.009 A 
ATOM      9  C   UNL d   1     -54.892-101.343 -43.312  0.00  0.00     0.199 A 
ATOM     10  O   UNL d   1     -54.978-102.853 -40.755  0.00  0.00    -0.286 OA
ATOM     11  C   UNL d   1     -54.981-102.150 -43.119  0.00  0.00     0.042 A 
ATOM     12  O   UNL d   1     -54.894-101.120 -44.090  0.00  0.00    -0.286 OA
ENDROOT
BRANCH   1  13
ATOM     13  C   UNL d   1     -54.800-101.758 -39.492  0.00  0.00     0.027 A 
ATOM     14  C   UNL d   1     -54.763-101.152 -38.853  0.00  0.00     0.094 A 
ATOM     15  C   UNL d   1     -54.762-101.400 -37.985  0.00  0.00     0.024 A 
ATOM     16  C   UNL d   1     -54.798-102.271 -37.788  0.00  0.00     0.002 A 
ATOM     17  C   UNL d   1     -54.835-102.877 -38.426  0.00  0.00     0.000 A 
ATOM     18  C   UNL d   1     -54.837-102.633 -39.284  0.00  0.00     0.002 A 
BRANCH  14  19
ATOM     19  O   UNL d   1     -54.727-100.280 -39.051  0.00  0.00    -0.328 OA
ATOM     20  C   UNL d   1     -55.199 -99.687 -38.585  0.00  0.00     0.181 C 
ENDBRANCH  14  19
ENDBRANCH   1  13
BRANCH   5  21
ATOM     21  C   UNL d   1     -54.715 -99.995 -42.902  0.00  0.00     0.085 C 
BRANCH  21  22
ATOM     22  N   UNL d   1     -55.050 -99.701 -43.595  0.00  0.00    -0.302 N 
ATOM     23  C   UNL d   1     -55.675 -99.175 -43.551  0.00  0.00     0.080 A 
ATOM     24  C   UNL d   1     -56.007 -98.883 -44.239  0.00  0.00     0.019 A 
ATOM     25  C   UNL d   1     -55.721 -99.112 -44.973  0.00  0.00     0.003 A 
ATOM     26  C   UNL d   1     -55.096 -99.639 -45.016  0.00  0.00     0.019 A 
ATOM     27  C   UNL d   1     -56.053 -98.821 -45.657  0.00  0.00     0.000 C 
ATOM     28  C   UNL d   1     -54.761 -99.933 -44.338  0.00  0.00     0.080 A 
ENDBRANCH  21  22
ENDBRANCH   5  21
TORSDOF 4
ENDMDL
