MODEL 1
REMARK VINA RESULT:      -7.3      0.000      0.000
REMARK  3 active torsions:
REMARK  status: ('A' for Active; 'I' for Inactive)
REMARK    1  A    between atoms: S_7  and  C_3 
REMARK       I    between atoms: N_4  and  C_5 
REMARK    2  A    between atoms: C_5  and  C_10 
REMARK    3  A    between atoms: C_10  and  S_7 
ROOT
ATOM      1  N   UNL d   1     -49.034  13.950  23.363  0.00  0.00    -0.236 NA
ATOM      2  N   UNL d   1     -50.590  13.404  23.498  0.00  0.00    -0.242 NA
ATOM      3  C   UNL d   1     -49.176  13.138  23.411  0.00  0.00     0.129 A 
ATOM      4  C   UNL d   1     -49.962  12.863  23.479  0.00  0.00     0.105 A 
ATOM      5  C   UNL d   1     -49.652  14.486  23.382  0.00  0.00     0.100 A 
ATOM      6  C   UNL d   1     -50.437  14.210  23.450  0.00  0.00     0.099 A 
ATOM      7  C   UNL d   1     -50.117  12.064  23.528  0.00  0.00     0.023 C 
ATOM      8  C   UNL d   1     -51.064  14.746  23.469  0.00  0.00     0.021 A 
ATOM      9  C   UNL d   1     -49.508  15.293  23.334  0.00  0.00     0.021 A 
ATOM     10  C   UNL d   1     -50.903  15.565  23.419  0.00  0.00     0.002 A 
ATOM     11  C   UNL d   1     -50.129  15.837  23.352  0.00  0.00     0.002 A 
ENDROOT
BRANCH   3  12
ATOM     12  S   UNL d   1     -48.550  12.614  23.392  0.00  0.00    -0.061 SA
BRANCH  12  13
ATOM     13  C   UNL d   1     -47.800  12.875  23.206  0.00  0.00     0.098 C 
BRANCH  13  14
ATOM     14  C   UNL d   1     -47.150  12.356  23.270  0.00  0.00     0.271 C 
ATOM     15  N   UNL d   1     -46.436  12.559  22.899  0.00  0.00    -0.272 N 
ATOM     16  C   UNL d   1     -45.783  12.039  22.962  0.00  0.00     0.083 A 
ATOM     17  C   UNL d   1     -46.370  13.254  22.479  0.00  0.00     0.083 A 
ATOM     18  C   UNL d   1     -45.076  12.243  22.593  0.00  0.00     0.019 A 
ATOM     19  C   UNL d   1     -45.010  12.938  22.173  0.00  0.00     0.003 A 
ATOM     20  C   UNL d   1     -45.648  13.446  22.111  0.00  0.00     0.019 A 
ATOM     21  C   UNL d   1     -44.264  13.130  21.797  0.00  0.00     0.000 C 
ATOM     22  O   UNL d   1     -47.217  11.658  23.693  0.00  0.00    -0.266 OA
ENDBRANCH  13  14
ENDBRANCH  12  13
ENDBRANCH   3  12
TORSDOF 3
ENDMDL
MODEL 2
REMARK VINA RESULT:      -7.1      1.299      2.211
REMARK  3 active torsions:
REMARK  status: ('A' for Active; 'I' for Inactive)
REMARK    1  A    between atoms: S_7  and  C_3 
REMARK       I    between atoms: N_4  and  C_5 
REMARK    2  A    between atoms: C_5  and  C_10 
REMARK    3  A    between atoms: C_10  and  S_7 
ROOT
ATOM      1  N   UNL d   1     -48.596  12.852  23.060  0.00  0.00    -0.236 NA
ATOM      2  N   UNL d   1     -49.416  14.258  22.757  0.00  0.00    -0.242 NA
ATOM      3  C   UNL d   1     -48.173  13.537  22.874  0.00  0.00     0.129 A 
ATOM      4  C   UNL d   1     -48.587  14.246  22.721  0.00  0.00     0.105 A 
ATOM      5  C   UNL d   1     -49.413  12.862  23.096  0.00  0.00     0.100 A 
ATOM      6  C   UNL d   1     -49.826  13.571  22.943  0.00  0.00     0.099 A 
ATOM      7  C   UNL d   1     -48.183  14.930  22.537  0.00  0.00     0.023 C 
ATOM      8  C   UNL d   1     -50.651  13.585  22.977  0.00  0.00     0.021 A 
ATOM      9  C   UNL d   1     -49.831  12.179  23.281  0.00  0.00     0.021 A 
ATOM     10  C   UNL d   1     -51.064  12.883  23.167  0.00  0.00     0.002 A 
ATOM     11  C   UNL d   1     -50.656  12.184  23.317  0.00  0.00     0.002 A 
ENDROOT
BRANCH   3  12
ATOM     12  S   UNL d   1     -47.357  13.514  22.842  0.00  0.00    -0.061 SA
BRANCH  12  13
ATOM     13  C   UNL d   1     -46.955  12.836  23.048  0.00  0.00     0.098 C 
BRANCH  13  14
ATOM     14  C   UNL d   1     -46.148  12.754  22.856  0.00  0.00     0.271 C 
ATOM     15  N   UNL d   1     -45.752  12.057  23.071  0.00  0.00    -0.272 N 
ATOM     16  C   UNL d   1     -44.941  11.974  22.879  0.00  0.00     0.083 A 
ATOM     17  C   UNL d   1     -46.145  11.461  23.463  0.00  0.00     0.083 A 
ATOM     18  C   UNL d   1     -44.552  11.281  23.093  0.00  0.00     0.019 A 
ATOM     19  C   UNL d   1     -44.945  10.685  23.485  0.00  0.00     0.003 A 
ATOM     20  C   UNL d   1     -45.737  10.766  23.673  0.00  0.00     0.019 A 
ATOM     21  C   UNL d   1     -44.519   9.973  23.698  0.00  0.00     0.000 C 
ATOM     22  O   UNL d   1     -45.753  13.353  22.462  0.00  0.00    -0.266 OA
ENDBRANCH  13  14
ENDBRANCH  12  13
ENDBRANCH   3  12
TORSDOF 3
ENDMDL
MODEL 3
REMARK VINA RESULT:      -6.9      1.440      5.211
REMARK  3 active torsions:
REMARK  status: ('A' for Active; 'I' for Inactive)
REMARK    1  A    between atoms: S_7  and  C_3 
REMARK       I    between atoms: N_4  and  C_5 
REMARK    2  A    between atoms: C_5  and  C_10 
REMARK    3  A    between atoms: C_10  and  S_7 
ROOT
ATOM      1  N   UNL d   1     -45.974  11.780  23.320  0.00  0.00    -0.236 NA
ATOM      2  N   UNL d   1     -44.583  12.279  22.574  0.00  0.00    -0.242 NA
ATOM      3  C   UNL d   1     -45.954  12.517  22.948  0.00  0.00     0.129 A 
ATOM      4  C   UNL d   1     -45.253  12.769  22.572  0.00  0.00     0.105 A 
ATOM      5  C   UNL d   1     -45.316  11.295  23.323  0.00  0.00     0.100 A 
ATOM      6  C   UNL d   1     -44.614  11.547  22.947  0.00  0.00     0.099 A 
ATOM      7  C   UNL d   1     -45.219  13.494  22.202  0.00  0.00     0.023 C 
ATOM      8  C   UNL d   1     -43.947  11.061  22.947  0.00  0.00     0.021 A 
ATOM      9  C   UNL d   1     -45.337  10.562  23.692  0.00  0.00     0.021 A 
ATOM     10  C   UNL d   1     -43.983  10.317  23.327  0.00  0.00     0.002 A 
ATOM     11  C   UNL d   1     -44.675  10.069  23.698  0.00  0.00     0.002 A 
ENDROOT
BRANCH   3  12
ATOM     12  S   UNL d   1     -46.620  12.991  22.953  0.00  0.00    -0.061 SA
BRANCH  12  13
ATOM     13  C   UNL d   1     -47.362  12.661  23.017  0.00  0.00     0.098 C 
BRANCH  13  14
ATOM     14  C   UNL d   1     -48.036  13.150  23.044  0.00  0.00     0.271 C 
ATOM     15  N   UNL d   1     -48.774  12.809  23.208  0.00  0.00    -0.272 N 
ATOM     16  C   UNL d   1     -49.453  13.299  23.236  0.00  0.00     0.083 A 
ATOM     17  C   UNL d   1     -48.841  12.008  23.340  0.00  0.00     0.083 A 
ATOM     18  C   UNL d   1     -50.183  12.958  23.398  0.00  0.00     0.019 A 
ATOM     19  C   UNL d   1     -50.249  12.156  23.530  0.00  0.00     0.003 A 
ATOM     20  C   UNL d   1     -49.587  11.677  23.504  0.00  0.00     0.019 A 
ATOM     21  C   UNL d   1     -51.021  11.823  23.698  0.00  0.00     0.000 C 
ATOM     22  O   UNL d   1     -47.969  13.956  22.911  0.00  0.00    -0.266 OA
ENDBRANCH  13  14
ENDBRANCH  12  13
ENDBRANCH   3  12
TORSDOF 3
ENDMDL
MODEL 4
REMARK VINA RESULT:      -6.0      8.713     10.719
REMARK  3 active torsions:
REMARK  status: ('A' for Active; 'I' for Inactive)
REMARK    1  A    between atoms: S_7  and  C_3 
REMARK       I    between atoms: N_4  and  C_5 
REMARK    2  A    between atoms: C_5  and  C_10 
REMARK    3  A    between atoms: C_10  and  S_7 
ROOT
ATOM      1  N   UNL d   1     -39.329  14.143  17.799  0.00  0.00    -0.236 NA
ATOM      2  N   UNL d   1     -39.307  14.966  16.363  0.00  0.00    -0.242 NA
ATOM      3  C   UNL d   1     -39.783  14.828  17.716  0.00  0.00     0.129 A 
ATOM      4  C   UNL d   1     -39.772  15.243  16.992  0.00  0.00     0.105 A 
ATOM      5  C   UNL d   1     -38.871  13.868  17.180  0.00  0.00     0.100 A 
ATOM      6  C   UNL d   1     -38.859  14.283  16.456  0.00  0.00     0.099 A 
ATOM      7  C   UNL d   1     -40.214  15.921  16.896  0.00  0.00     0.023 C 
ATOM      8  C   UNL d   1     -38.398  14.009  15.829  0.00  0.00     0.021 A 
ATOM      9  C   UNL d   1     -38.420  13.186  17.265  0.00  0.00     0.021 A 
ATOM     10  C   UNL d   1     -37.944  13.314  15.929  0.00  0.00     0.002 A 
ATOM     11  C   UNL d   1     -37.956  12.905  16.643  0.00  0.00     0.002 A 
ENDROOT
BRANCH   3  12
ATOM     12  S   UNL d   1     -40.237  15.092  18.342  0.00  0.00    -0.061 SA
BRANCH  12  13
ATOM     13  C   UNL d   1     -39.949  15.058  19.104  0.00  0.00     0.098 C 
BRANCH  13  14
ATOM     14  C   UNL d   1     -40.425  15.306  19.742  0.00  0.00     0.271 C 
ATOM     15  N   UNL d   1     -40.069  15.456  20.475  0.00  0.00    -0.272 N 
ATOM     16  C   UNL d   1     -40.545  15.705  21.117  0.00  0.00     0.083 A 
ATOM     17  C   UNL d   1     -39.265  15.364  20.572  0.00  0.00     0.083 A 
ATOM     18  C   UNL d   1     -40.188  15.853  21.843  0.00  0.00     0.019 A 
ATOM     19  C   UNL d   1     -39.384  15.761  21.940  0.00  0.00     0.003 A 
ATOM     20  C   UNL d   1     -38.918  15.518  21.313  0.00  0.00     0.019 A 
ATOM     21  C   UNL d   1     -39.034  15.922  22.705  0.00  0.00     0.000 C 
ATOM     22  O   UNL d   1     -41.233  15.398  19.644  0.00  0.00    -0.266 OA
ENDBRANCH  13  14
ENDBRANCH  12  13
ENDBRANCH   3  12
TORSDOF 3
ENDMDL
MODEL 5
REMARK VINA RESULT:      -5.9      8.507     10.413
REMARK  3 active torsions:
REMARK  status: ('A' for Active; 'I' for Inactive)
REMARK    1  A    between atoms: S_7  and  C_3 
REMARK       I    between atoms: N_4  and  C_5 
REMARK    2  A    between atoms: C_5  and  C_10 
REMARK    3  A    between atoms: C_10  and  S_7 
ROOT
ATOM      1  N   UNL d   1     -38.941  14.179  20.287  0.00  0.00    -0.236 NA
ATOM      2  N   UNL d   1     -40.077  14.379  21.474  0.00  0.00    -0.242 NA
ATOM      3  C   UNL d   1     -39.642  14.580  20.115  0.00  0.00     0.129 A 
ATOM      4  C   UNL d   1     -40.215  14.681  20.713  0.00  0.00     0.105 A 
ATOM      5  C   UNL d   1     -38.803  13.881  21.036  0.00  0.00     0.100 A 
ATOM      6  C   UNL d   1     -39.376  13.981  21.635  0.00  0.00     0.099 A 
ATOM      7  C   UNL d   1     -40.912  15.074  20.558  0.00  0.00     0.023 C 
ATOM      8  C   UNL d   1     -39.241  13.682  22.392  0.00  0.00     0.021 A 
ATOM      9  C   UNL d   1     -38.104  13.482  21.205  0.00  0.00     0.021 A 
ATOM     10  C   UNL d   1     -38.526  13.279  22.550  0.00  0.00     0.002 A 
ATOM     11  C   UNL d   1     -37.961  13.179  21.960  0.00  0.00     0.002 A 
ENDROOT
BRANCH   3  12
ATOM     12  S   UNL d   1     -39.767  14.873  19.363  0.00  0.00    -0.061 SA
BRANCH  12  13
ATOM     13  C   UNL d   1     -39.370  14.557  18.725  0.00  0.00     0.098 C 
BRANCH  13  14
ATOM     14  C   UNL d   1     -39.396  14.940  17.985  0.00  0.00     0.271 C 
ATOM     15  N   UNL d   1     -39.030  14.581  17.333  0.00  0.00    -0.272 N 
ATOM     16  C   UNL d   1     -39.055  14.964  16.589  0.00  0.00     0.083 A 
ATOM     17  C   UNL d   1     -38.651  13.864  17.413  0.00  0.00     0.083 A 
ATOM     18  C   UNL d   1     -38.691  14.605  15.945  0.00  0.00     0.019 A 
ATOM     19  C   UNL d   1     -38.312  13.888  16.025  0.00  0.00     0.003 A 
ATOM     20  C   UNL d   1     -38.287  13.513  16.752  0.00  0.00     0.019 A 
ATOM     21  C   UNL d   1     -37.940  13.533  15.340  0.00  0.00     0.000 C 
ATOM     22  O   UNL d   1     -39.778  15.660  17.904  0.00  0.00    -0.266 OA
ENDBRANCH  13  14
ENDBRANCH  12  13
ENDBRANCH   3  12
TORSDOF 3
ENDMDL
MODEL 6
REMARK VINA RESULT:      -5.3      9.608     10.314
REMARK  3 active torsions:
REMARK  status: ('A' for Active; 'I' for Inactive)
REMARK    1  A    between atoms: S_7  and  C_3 
REMARK       I    between atoms: N_4  and  C_5 
REMARK    2  A    between atoms: C_5  and  C_10 
REMARK    3  A    between atoms: C_10  and  S_7 
ROOT
ATOM      1  N   UNL d   1     -38.929  14.940  20.572  0.00  0.00    -0.236 NA
ATOM      2  N   UNL d   1     -38.244  13.670  21.383  0.00  0.00    -0.242 NA
ATOM      3  C   UNL d   1     -38.607  14.312  20.145  0.00  0.00     0.129 A 
ATOM      4  C   UNL d   1     -38.261  13.671  20.553  0.00  0.00     0.105 A 
ATOM      5  C   UNL d   1     -38.913  14.942  21.390  0.00  0.00     0.100 A 
ATOM      6  C   UNL d   1     -38.567  14.301  21.799  0.00  0.00     0.099 A 
ATOM      7  C   UNL d   1     -37.940  13.044  20.144  0.00  0.00     0.023 C 
ATOM      8  C   UNL d   1     -38.548  14.298  22.624  0.00  0.00     0.021 A 
ATOM      9  C   UNL d   1     -39.233  15.568  21.814  0.00  0.00     0.021 A 
ATOM     10  C   UNL d   1     -38.878  14.942  23.042  0.00  0.00     0.002 A 
ATOM     11  C   UNL d   1     -39.219  15.574  22.639  0.00  0.00     0.002 A 
ENDROOT
BRANCH   3  12
ATOM     12  S   UNL d   1     -38.630  14.323  19.328  0.00  0.00    -0.061 SA
BRANCH  12  13
ATOM     13  C   UNL d   1     -39.179  14.781  18.937  0.00  0.00     0.098 C 
BRANCH  13  14
ATOM     14  C   UNL d   1     -39.182  14.809  18.104  0.00  0.00     0.271 C 
ATOM     15  N   UNL d   1     -39.858  15.088  17.713  0.00  0.00    -0.272 N 
ATOM     16  C   UNL d   1     -39.862  15.118  16.876  0.00  0.00     0.083 A 
ATOM     17  C   UNL d   1     -40.511  15.331  18.136  0.00  0.00     0.083 A 
ATOM     18  C   UNL d   1     -40.535  15.395  16.492  0.00  0.00     0.019 A 
ATOM     19  C   UNL d   1     -41.188  15.637  16.915  0.00  0.00     0.003 A 
ATOM     20  C   UNL d   1     -41.184  15.609  17.732  0.00  0.00     0.019 A 
ATOM     21  C   UNL d   1     -41.877  15.922  16.493  0.00  0.00     0.000 C 
ATOM     22  O   UNL d   1     -38.525  14.565  17.678  0.00  0.00    -0.266 OA
ENDBRANCH  13  14
ENDBRANCH  12  13
ENDBRANCH   3  12
TORSDOF 3
ENDMDL
MODEL 7
REMARK VINA RESULT:      -4.3      9.478     10.008
REMARK  3 active torsions:
REMARK  status: ('A' for Active; 'I' for Inactive)
REMARK    1  A    between atoms: S_7  and  C_3 
REMARK       I    between atoms: N_4  and  C_5 
REMARK    2  A    between atoms: C_5  and  C_10 
REMARK    3  A    between atoms: C_10  and  S_7 
ROOT
ATOM      1  N   UNL d   1     -39.974  14.810  18.725  0.00  0.00    -0.236 NA
ATOM      2  N   UNL d   1     -39.528  14.216  17.247  0.00  0.00    -0.242 NA
ATOM      3  C   UNL d   1     -39.377  14.242  18.680  0.00  0.00     0.129 A 
ATOM      4  C   UNL d   1     -39.151  13.943  17.934  0.00  0.00     0.105 A 
ATOM      5  C   UNL d   1     -40.347  15.081  18.050  0.00  0.00     0.100 A 
ATOM      6  C   UNL d   1     -40.121  14.781  17.304  0.00  0.00     0.099 A 
ATOM      7  C   UNL d   1     -38.563  13.382  17.873  0.00  0.00     0.023 C 
ATOM      8  C   UNL d   1     -40.495  15.052  16.619  0.00  0.00     0.021 A 
ATOM      9  C   UNL d   1     -40.941  15.646  18.097  0.00  0.00     0.021 A 
ATOM     10  C   UNL d   1     -41.098  15.627  16.682  0.00  0.00     0.002 A 
ATOM     11  C   UNL d   1     -41.320  15.922  17.418  0.00  0.00     0.002 A 
ENDROOT
BRANCH   3  12
ATOM     12  S   UNL d   1     -39.013  13.980  19.363  0.00  0.00    -0.061 SA
BRANCH  12  13
ATOM     13  C   UNL d   1     -39.114  14.382  20.064  0.00  0.00     0.098 C 
BRANCH  13  14
ATOM     14  C   UNL d   1     -38.759  14.098  20.763  0.00  0.00     0.271 C 
ATOM     15  N   UNL d   1     -38.798  14.560  21.451  0.00  0.00    -0.272 N 
ATOM     16  C   UNL d   1     -38.442  14.277  22.154  0.00  0.00     0.083 A 
ATOM     17  C   UNL d   1     -39.178  15.281  21.445  0.00  0.00     0.083 A 
ATOM     18  C   UNL d   1     -38.483  14.738  22.833  0.00  0.00     0.019 A 
ATOM     19  C   UNL d   1     -38.863  15.459  22.827  0.00  0.00     0.003 A 
ATOM     20  C   UNL d   1     -39.212  15.737  22.141  0.00  0.00     0.019 A 
ATOM     21  C   UNL d   1     -38.894  15.922  23.548  0.00  0.00     0.000 C 
ATOM     22  O   UNL d   1     -38.377  13.374  20.769  0.00  0.00    -0.266 OA
ENDBRANCH  13  14
ENDBRANCH  12  13
ENDBRANCH   3  12
TORSDOF 3
ENDMDL
