MODEL 1
REMARK VINA RESULT:     110.4      0.000      0.000
REMARK  8 active torsions:
REMARK  status: ('A' for Active; 'I' for Inactive)
REMARK    1  A    between atoms: N_7  and  N_1 
REMARK    2  A    between atoms: S_9  and  C_2 
REMARK       I    between atoms: C_8  and  N_7 
REMARK    3  A    between atoms: C_21  and  C_8 
REMARK    4  A    between atoms: C_20  and  S_9 
REMARK    5  A    between atoms: C_10  and  C_20 
REMARK       I    between atoms: N_14  and  C_10 
REMARK    6  A    between atoms: C_12  and  C_22 
REMARK    7  A    between atoms: C_22  and  N_14 
REMARK    8  A    between atoms: C_24  and  C_21 
ROOT
ATOM      1  N   UNL d   1      61.035  47.078  50.456  0.00  0.00    -0.168 N 
ATOM      2  C   UNL d   1      60.340  46.649  50.497  0.00  0.00     0.199 A 
ATOM      3  C   UNL d   1      61.694  46.770  50.041  0.00  0.00     0.283 A 
ATOM      4  N   UNL d   1      60.281  45.897  50.124  0.00  0.00    -0.221 NA
ATOM      5  C   UNL d   1      61.629  46.017  49.670  0.00  0.00     0.076 A 
ATOM      6  C   UNL d   1      60.924  45.590  49.716  0.00  0.00     0.088 A 
ATOM      7  O   UNL d   1      62.396  47.204  50.000  0.00  0.00    -0.265 OA
ATOM      8  C   UNL d   1      62.284  45.717  49.261  0.00  0.00     0.006 A 
ATOM      9  C   UNL d   1      60.882  44.850  49.344  0.00  0.00     0.019 A 
ATOM     10  C   UNL d   1      62.224  44.979  48.897  0.00  0.00     0.000 A 
ATOM     11  C   UNL d   1      61.523  44.546  48.938  0.00  0.00     0.002 A 
ENDROOT
BRANCH   2  12
ATOM     12  S   UNL d   1      59.701  46.942  50.896  0.00  0.00    -0.043 SA
BRANCH  12  13
ATOM     13  C   UNL d   1      59.023  46.485  50.988  0.00  0.00     0.101 C 
BRANCH  13  14
ATOM     14  C   UNL d   1      58.322  46.706  50.614  0.00  0.00     0.286 C 
ATOM     15  N   UNL d   1      58.025  47.466  50.714  0.00  0.00    -0.204 NA
ATOM     16  O   UNL d   1      57.915  46.163  50.138  0.00  0.00    -0.265 OA
BRANCH  15  17
ATOM     17  C   UNL d   1      57.322  47.681  50.336  0.00  0.00     0.127 C 
BRANCH  17  18
ATOM     18  C   UNL d   1      57.005  48.438  50.473  0.00  0.00     0.119 A 
ATOM     19  O   UNL d   1      56.980  49.056  49.936  0.00  0.00    -0.304 OA
ATOM     20  C   UNL d   1      56.619  49.701  50.304  0.00  0.00     0.123 A 
ATOM     21  C   UNL d   1      56.420  49.479  51.076  0.00  0.00     0.029 A 
ATOM     22  C   UNL d   1      56.661  48.692  51.181  0.00  0.00     0.028 A 
ENDBRANCH  17  18
ENDBRANCH  15  17
ENDBRANCH  13  14
ENDBRANCH  12  13
ENDBRANCH   2  12
BRANCH   1  23
ATOM     23  N   UNL d   1      61.095  47.803  50.813  0.00  0.00    -0.119 NA
ATOM     24  C   UNL d   1      61.123  48.492  50.352  0.00  0.00     0.296 C 
ATOM     25  O   UNL d   1      61.091  48.434  49.531  0.00  0.00    -0.264 OA
BRANCH  24  26
ATOM     26  C   UNL d   1      61.184  49.230  50.716  0.00  0.00     0.064 C 
BRANCH  26  27
ATOM     27  C   UNL d   1      60.751  49.385  51.393  0.00  0.00     0.005 A 
ATOM     28  C   UNL d   1      59.947  49.521  51.328  0.00  0.00     0.000 A 
ATOM     29  C   UNL d   1      59.510  49.678  52.011  0.00  0.00     0.000 A 
ATOM     30  C   UNL d   1      59.880  49.696  52.742  0.00  0.00     0.000 A 
ATOM     31  C   UNL d   1      60.689  49.557  52.790  0.00  0.00     0.000 A 
ATOM     32  C   UNL d   1      61.117  49.403  52.121  0.00  0.00     0.000 A 
ENDBRANCH  26  27
ENDBRANCH  24  26
ENDBRANCH   1  23
TORSDOF 8
ENDMDL
MODEL 2
REMARK VINA RESULT:     112.6      2.401      4.411
REMARK  8 active torsions:
REMARK  status: ('A' for Active; 'I' for Inactive)
REMARK    1  A    between atoms: N_7  and  N_1 
REMARK    2  A    between atoms: S_9  and  C_2 
REMARK       I    between atoms: C_8  and  N_7 
REMARK    3  A    between atoms: C_21  and  C_8 
REMARK    4  A    between atoms: C_20  and  S_9 
REMARK    5  A    between atoms: C_10  and  C_20 
REMARK       I    between atoms: N_14  and  C_10 
REMARK    6  A    between atoms: C_12  and  C_22 
REMARK    7  A    between atoms: C_22  and  N_14 
REMARK    8  A    between atoms: C_24  and  C_21 
ROOT
ATOM      1  N   UNL d   1      58.600  48.464  51.359  0.00  0.00    -0.168 N 
ATOM      2  C   UNL d   1      58.434  49.192  51.694  0.00  0.00     0.199 A 
ATOM      3  C   UNL d   1      58.080  48.136  50.790  0.00  0.00     0.283 A 
ATOM      4  N   UNL d   1      57.742  49.615  51.472  0.00  0.00    -0.221 NA
ATOM      5  C   UNL d   1      57.389  48.565  50.571  0.00  0.00     0.076 A 
ATOM      6  C   UNL d   1      57.229  49.299  50.915  0.00  0.00     0.088 A 
ATOM      7  O   UNL d   1      58.248  47.402  50.452  0.00  0.00    -0.265 OA
ATOM      8  C   UNL d   1      56.879  48.237  50.008  0.00  0.00     0.006 A 
ATOM      9  C   UNL d   1      56.543  49.704  50.685  0.00  0.00     0.019 A 
ATOM     10  C   UNL d   1      56.201  48.653  49.791  0.00  0.00     0.000 A 
ATOM     11  C   UNL d   1      56.033  49.388  50.130  0.00  0.00     0.002 A 
ENDROOT
BRANCH   2  12
ATOM     12  S   UNL d   1      58.932  49.512  52.243  0.00  0.00    -0.043 SA
BRANCH  12  13
ATOM     13  C   UNL d   1      58.698  49.578  53.030  0.00  0.00     0.101 C 
BRANCH  13  14
ATOM     14  C   UNL d   1      57.898  49.552  53.226  0.00  0.00     0.286 C 
ATOM     15  N   UNL d   1      57.667  49.550  54.015  0.00  0.00    -0.204 NA
ATOM     16  O   UNL d   1      57.324  49.526  52.628  0.00  0.00    -0.265 OA
BRANCH  15  17
ATOM     17  C   UNL d   1      56.864  49.523  54.205  0.00  0.00     0.127 C 
BRANCH  17  18
ATOM     18  C   UNL d   1      56.633  49.225  54.947  0.00  0.00     0.119 A 
ATOM     19  O   UNL d   1      56.441  48.447  55.117  0.00  0.00    -0.304 OA
ATOM     20  C   UNL d   1      56.247  48.400  55.918  0.00  0.00     0.123 A 
ATOM     21  C   UNL d   1      56.320  49.158  56.245  0.00  0.00     0.029 A 
ATOM     22  C   UNL d   1      56.561  49.671  55.640  0.00  0.00     0.028 A 
ENDBRANCH  17  18
ENDBRANCH  15  17
ENDBRANCH  13  14
ENDBRANCH  12  13
ENDBRANCH   2  12
BRANCH   1  23
ATOM     23  N   UNL d   1      59.266  48.054  51.571  0.00  0.00    -0.119 NA
ATOM     24  C   UNL d   1      60.015  48.349  51.373  0.00  0.00     0.296 C 
ATOM     25  O   UNL d   1      60.078  49.060  50.960  0.00  0.00    -0.264 OA
BRANCH  24  26
ATOM     26  C   UNL d   1      60.693  47.932  51.589  0.00  0.00     0.064 C 
BRANCH  26  27
ATOM     27  C   UNL d   1      61.032  47.406  51.060  0.00  0.00     0.005 A 
ATOM     28  C   UNL d   1      61.658  47.657  50.597  0.00  0.00     0.000 A 
ATOM     29  C   UNL d   1      62.000  47.127  50.063  0.00  0.00     0.000 A 
ATOM     30  C   UNL d   1      61.713  46.362  50.002  0.00  0.00     0.000 A 
ATOM     31  C   UNL d   1      61.083  46.126  50.475  0.00  0.00     0.000 A 
ATOM     32  C   UNL d   1      60.748  46.645  50.998  0.00  0.00     0.000 A 
ENDBRANCH  26  27
ENDBRANCH  24  26
ENDBRANCH   1  23
TORSDOF 8
ENDMDL
