MODEL 1
REMARK VINA RESULT:      41.1      0.000      0.000
REMARK  7 active torsions:
REMARK  status: ('A' for Active; 'I' for Inactive)
REMARK    1  A    between atoms: C_13  and  N_2 
REMARK    2  A    between atoms: C_7  and  C_4 
REMARK    3  A    between atoms: O_19  and  C_7 
REMARK    4  A    between atoms: C_9  and  C_18 
REMARK    5  A    between atoms: C_20  and  C_13 
REMARK    6  A    between atoms: O_16  and  C_15 
REMARK    7  A    between atoms: C_18  and  O_16 
ROOT
ATOM      1  C   UNL d   1      13.462  13.918  -4.895  0.00  0.00     0.265 A 
ATOM      2  N   UNL d   1      13.686  14.574  -4.448  0.00  0.00    -0.272 N 
ATOM      3  C   UNL d   1      13.280  13.210  -4.522  0.00  0.00     0.059 A 
ATOM      4  C   UNL d   1      13.320  13.153  -3.699  0.00  0.00     0.029 A 
ATOM      5  C   UNL d   1      13.543  13.805  -3.251  0.00  0.00     0.021 A 
ATOM      6  C   UNL d   1      13.726  14.517  -3.626  0.00  0.00     0.083 A 
ATOM      7  O   UNL d   1      13.422  13.974  -5.717  0.00  0.00    -0.267 OA
ATOM      8  C   UNL d   1      13.137  12.441  -3.325  0.00  0.00     0.100 A 
ATOM      9  C   UNL d   1      13.056  12.554  -4.969  0.00  0.00     0.005 A 
ATOM     10  C   UNL d   1      12.873  11.841  -4.595  0.00  0.00     0.002 A 
ATOM     11  C   UNL d   1      12.913  11.785  -3.773  0.00  0.00     0.025 A 
ENDROOT
BRANCH   8  12
ATOM     12  O   UNL d   1      13.177  12.384  -2.503  0.00  0.00    -0.303 OA
BRANCH  12  13
ATOM     13  C   UNL d   1      13.765  11.926  -2.150  0.00  0.00     0.147 C 
BRANCH  13  14
ATOM     14  C   UNL d   1      14.163  12.207  -1.484  0.00  0.00     0.125 A 
ATOM     15  O   UNL d   1      14.618  12.892  -1.358  0.00  0.00    -0.300 OA
ATOM     16  C   UNL d   1      14.877  12.873  -0.573  0.00  0.00     0.163 A 
ATOM     17  C   UNL d   1      14.592  12.196  -0.219  0.00  0.00     0.032 A 
ATOM     18  C   UNL d   1      14.148  11.780  -0.783  0.00  0.00     0.029 A 
BRANCH  16  19
ATOM     19  C   UNL d   1      15.353  13.452  -0.200  0.00  0.00     0.319 C 
ATOM     20  O   UNL d   1      16.133  13.286  -0.017  0.00  0.00    -0.257 OA
BRANCH  19  21
ATOM     21  O   UNL d   1      15.030  14.202  -0.014  0.00  0.00    -0.294 OA
ATOM     22  C   UNL d   1      15.290  14.878  -0.412  0.00  0.00     0.185 C 
ENDBRANCH  19  21
ENDBRANCH  16  19
ENDBRANCH  13  14
ENDBRANCH  12  13
ENDBRANCH   8  12
BRANCH   2  23
ATOM     23  C   UNL d   1      13.871  15.292  -4.830  0.00  0.00     0.083 C 
BRANCH  23  24
ATOM     24  C   UNL d   1      14.354  15.849  -4.460  0.00  0.00     0.018 A 
ATOM     25  C   UNL d   1      14.960  16.210  -4.884  0.00  0.00     0.002 A 
ATOM     26  C   UNL d   1      15.443  16.767  -4.513  0.00  0.00     0.000 A 
ATOM     27  C   UNL d   1      15.317  16.960  -3.720  0.00  0.00     0.000 A 
ATOM     28  C   UNL d   1      14.711  16.596  -3.303  0.00  0.00     0.000 A 
ATOM     29  C   UNL d   1      14.228  16.039  -3.673  0.00  0.00     0.002 A 
ENDBRANCH  23  24
ENDBRANCH   2  23
TORSDOF 7
ENDMDL
