MODEL 1
REMARK VINA RESULT:      -4.2      0.000      0.000
REMARK  7 active torsions:
REMARK  status: ('A' for Active; 'I' for Inactive)
REMARK    1  A    between atoms: C_7  and  C_1 
REMARK    2  A    between atoms: C_9  and  N_2 
REMARK    3  A    between atoms: C_15  and  C_7 
REMARK    4  A    between atoms: C_8  and  C_9 
REMARK       I    between atoms: N_14  and  C_8 
REMARK    5  A    between atoms: C_20  and  N_14 
REMARK    6  A    between atoms: C_33  and  C_27 
REMARK    7  A    between atoms: C_34  and  C_32 
ROOT
ATOM      1  C   UNL d   1     -40.377  15.299  18.694  0.00  0.00     0.095 A 
ATOM      2  N   UNL d   1     -38.958  15.429  18.844  0.00  0.00    -0.300 N 
ATOM      3  C   UNL d   1     -40.253  15.057  17.885  0.00  0.00     0.202 A 
ATOM      4  C   UNL d   1     -39.735  15.483  19.169  0.00  0.00     0.087 A 
ATOM      5  C   UNL d   1     -39.477  15.012  17.589  0.00  0.00     0.055 A 
ATOM      6  C   UNL d   1     -38.828  15.194  18.055  0.00  0.00     0.067 A 
ATOM      7  C   UNL d   1     -38.065  15.141  17.734  0.00  0.00     0.018 A 
ATOM      8  C   UNL d   1     -39.340  14.775  16.790  0.00  0.00     0.005 A 
ATOM      9  O   UNL d   1     -40.888  14.875  17.416  0.00  0.00    -0.286 OA
ATOM     10  C   UNL d   1     -38.578  14.726  16.485  0.00  0.00     0.000 A 
ATOM     11  C   UNL d   1     -37.940  14.909  16.957  0.00  0.00     0.002 A 
ENDROOT
BRANCH   2  12
ATOM     12  C   UNL d   1     -38.320  15.612  19.316  0.00  0.00     0.144 C 
BRANCH  12  13
ATOM     13  C   UNL d   1     -38.331  15.421  20.118  0.00  0.00     0.297 C 
ATOM     14  N   UNL d   1     -37.970  14.734  20.380  0.00  0.00    -0.207 NA
ATOM     15  O   UNL d   1     -38.706  15.922  20.655  0.00  0.00    -0.264 OA
BRANCH  14  16
ATOM     16  C   UNL d   1     -37.982  14.543  21.183  0.00  0.00     0.087 A 
ATOM     17  C   UNL d   1     -38.035  13.762  21.408  0.00  0.00     0.045 A 
ATOM     18  C   UNL d   1     -38.046  13.567  22.207  0.00  0.00     0.121 A 
ATOM     19  O   UNL d   1     -38.096  12.826  22.590  0.00  0.00    -0.299 OA
ATOM     20  C   UNL d   1     -38.004  14.166  22.776  0.00  0.00     0.119 A 
ATOM     21  C   UNL d   1     -38.085  12.965  23.413  0.00  0.00     0.304 A 
ATOM     22  O   UNL d   1     -38.027  13.797  23.530  0.00  0.00    -0.300 OA
ATOM     23  C   UNL d   1     -37.951  14.947  22.551  0.00  0.00     0.028 A 
ATOM     24  C   UNL d   1     -37.940  15.138  21.749  0.00  0.00     0.021 A 
ENDBRANCH  14  16
ENDBRANCH  12  13
ENDBRANCH   2  12
BRANCH   1  25
ATOM     25  C   UNL d   1     -41.139  15.347  19.000  0.00  0.00     0.200 C 
ATOM     26  O   UNL d   1     -41.671  15.881  18.682  0.00  0.00    -0.286 OA
BRANCH  25  27
ATOM     27  C   UNL d   1     -41.370  14.862  19.623  0.00  0.00     0.039 A 
ATOM     28  C   UNL d   1     -41.489  15.176  20.387  0.00  0.00     0.003 A 
ATOM     29  C   UNL d   1     -41.722  14.689  21.022  0.00  0.00     0.000 A 
ATOM     30  C   UNL d   1     -41.836  13.888  20.894  0.00  0.00     0.000 A 
ATOM     31  C   UNL d   1     -41.712  13.585  20.120  0.00  0.00     0.000 A 
ATOM     32  C   UNL d   1     -41.480  14.067  19.484  0.00  0.00     0.003 A 
BRANCH  30  33
ATOM     33  C   UNL d   1     -42.069  13.402  21.530  0.00  0.00     0.000 C 
ATOM     34  C   UNL d   1     -42.711  12.911  21.428  0.00  0.00     0.000 C 
ENDBRANCH  30  33
ENDBRANCH  25  27
ENDBRANCH   1  25
BRANCH  10  35
ATOM     35  C   UNL d   1     -38.466  14.491  15.698  0.00  0.00     0.000 C 
ATOM     36  C   UNL d   1     -38.081  13.769  15.531  0.00  0.00     0.000 C 
ENDBRANCH  10  35
TORSDOF 7
ENDMDL
MODEL 2
REMARK VINA RESULT:      -3.4      1.609      3.722
REMARK  7 active torsions:
REMARK  status: ('A' for Active; 'I' for Inactive)
REMARK    1  A    between atoms: C_7  and  C_1 
REMARK    2  A    between atoms: C_9  and  N_2 
REMARK    3  A    between atoms: C_15  and  C_7 
REMARK    4  A    between atoms: C_8  and  C_9 
REMARK       I    between atoms: N_14  and  C_8 
REMARK    5  A    between atoms: C_20  and  N_14 
REMARK    6  A    between atoms: C_33  and  C_27 
REMARK    7  A    between atoms: C_34  and  C_32 
ROOT
ATOM      1  C   UNL d   1     -39.024  15.201  19.983  0.00  0.00     0.095 A 
ATOM      2  N   UNL d   1     -40.359  15.073  19.477  0.00  0.00    -0.300 N 
ATOM      3  C   UNL d   1     -38.735  15.177  19.181  0.00  0.00     0.202 A 
ATOM      4  C   UNL d   1     -39.828  15.149  20.130  0.00  0.00     0.087 A 
ATOM      5  C   UNL d   1     -39.278  15.102  18.556  0.00  0.00     0.055 A 
ATOM      6  C   UNL d   1     -40.084  15.049  18.691  0.00  0.00     0.067 A 
ATOM      7  C   UNL d   1     -40.603  14.974  18.048  0.00  0.00     0.018 A 
ATOM      8  C   UNL d   1     -39.005  15.077  17.757  0.00  0.00     0.005 A 
ATOM      9  O   UNL d   1     -37.940  15.229  19.037  0.00  0.00    -0.286 OA
ATOM     10  C   UNL d   1     -39.531  15.003  17.129  0.00  0.00     0.000 A 
ATOM     11  C   UNL d   1     -40.331  14.951  17.274  0.00  0.00     0.002 A 
ENDROOT
BRANCH   2  12
ATOM     12  C   UNL d   1     -41.158  15.021  19.622  0.00  0.00     0.144 C 
BRANCH  12  13
ATOM     13  C   UNL d   1     -41.465  14.364  20.014  0.00  0.00     0.297 C 
ATOM     14  N   UNL d   1     -41.981  14.465  20.643  0.00  0.00    -0.207 NA
ATOM     15  O   UNL d   1     -41.252  13.604  19.773  0.00  0.00    -0.264 OA
BRANCH  14  16
ATOM     16  C   UNL d   1     -42.288  13.807  21.035  0.00  0.00     0.087 A 
ATOM     17  C   UNL d   1     -43.094  13.731  21.119  0.00  0.00     0.045 A 
ATOM     18  C   UNL d   1     -43.404  13.076  21.510  0.00  0.00     0.121 A 
ATOM     19  O   UNL d   1     -44.194  12.860  21.673  0.00  0.00    -0.299 OA
ATOM     20  C   UNL d   1     -42.894  12.501  21.814  0.00  0.00     0.119 A 
ATOM     21  C   UNL d   1     -44.176  12.135  22.088  0.00  0.00     0.304 A 
ATOM     22  O   UNL d   1     -43.370  11.911  22.175  0.00  0.00    -0.300 OA
ATOM     23  C   UNL d   1     -42.087  12.577  21.730  0.00  0.00     0.028 A 
ATOM     24  C   UNL d   1     -41.780  13.234  21.338  0.00  0.00     0.021 A 
ENDBRANCH  14  16
ENDBRANCH  12  13
ENDBRANCH   2  12
BRANCH   1  25
ATOM     25  C   UNL d   1     -38.498  15.275  20.612  0.00  0.00     0.200 C 
ATOM     26  O   UNL d   1     -37.997  15.921  20.648  0.00  0.00    -0.286 OA
BRANCH  25  27
ATOM     27  C   UNL d   1     -38.474  14.705  21.204  0.00  0.00     0.039 A 
ATOM     28  C   UNL d   1     -38.131  13.957  21.063  0.00  0.00     0.003 A 
ATOM     29  C   UNL d   1     -38.103  13.376  21.659  0.00  0.00     0.000 A 
ATOM     30  C   UNL d   1     -38.418  13.540  22.397  0.00  0.00     0.000 A 
ATOM     31  C   UNL d   1     -38.761  14.297  22.526  0.00  0.00     0.000 A 
ATOM     32  C   UNL d   1     -38.790  14.880  21.934  0.00  0.00     0.003 A 
BRANCH  30  33
ATOM     33  C   UNL d   1     -38.390  12.958  22.993  0.00  0.00     0.000 C 
ATOM     34  C   UNL d   1     -38.023  13.140  23.697  0.00  0.00     0.000 C 
ENDBRANCH  30  33
ENDBRANCH  25  27
ENDBRANCH   1  25
BRANCH  10  35
ATOM     35  C   UNL d   1     -39.242  14.981  16.352  0.00  0.00     0.000 C 
ATOM     36  C   UNL d   1     -38.844  14.300  16.076  0.00  0.00     0.000 C 
ENDBRANCH  10  35
TORSDOF 7
ENDMDL
MODEL 3
REMARK VINA RESULT:      -2.4      1.667      4.768
REMARK  7 active torsions:
REMARK  status: ('A' for Active; 'I' for Inactive)
REMARK    1  A    between atoms: C_7  and  C_1 
REMARK    2  A    between atoms: C_9  and  N_2 
REMARK    3  A    between atoms: C_15  and  C_7 
REMARK    4  A    between atoms: C_8  and  C_9 
REMARK       I    between atoms: N_14  and  C_8 
REMARK    5  A    between atoms: C_20  and  N_14 
REMARK    6  A    between atoms: C_33  and  C_27 
REMARK    7  A    between atoms: C_34  and  C_32 
ROOT
ATOM      1  C   UNL d   1     -40.219  14.236  19.787  0.00  0.00     0.095 A 
ATOM      2  N   UNL d   1     -38.809  14.487  19.764  0.00  0.00    -0.300 N 
ATOM      3  C   UNL d   1     -40.198  14.282  20.638  0.00  0.00     0.202 A 
ATOM      4  C   UNL d   1     -39.531  14.337  19.354  0.00  0.00     0.087 A 
ATOM      5  C   UNL d   1     -39.473  14.431  21.018  0.00  0.00     0.055 A 
ATOM      6  C   UNL d   1     -38.779  14.534  20.595  0.00  0.00     0.067 A 
ATOM      7  C   UNL d   1     -38.070  14.682  21.000  0.00  0.00     0.018 A 
ATOM      8  C   UNL d   1     -39.437  14.480  21.860  0.00  0.00     0.005 A 
ATOM      9  O   UNL d   1     -40.878  14.182  21.066  0.00  0.00    -0.286 OA
ATOM     10  C   UNL d   1     -38.727  14.627  22.249  0.00  0.00     0.000 A 
ATOM     11  C   UNL d   1     -38.043  14.728  21.819  0.00  0.00     0.002 A 
ENDROOT
BRANCH   2  12
ATOM     12  C   UNL d   1     -38.125  14.588  19.334  0.00  0.00     0.144 C 
BRANCH  12  13
ATOM     13  C   UNL d   1     -38.092  14.342  18.547  0.00  0.00     0.297 C 
ATOM     14  N   UNL d   1     -38.086  14.896  17.944  0.00  0.00    -0.207 NA
ATOM     15  O   UNL d   1     -38.064  13.537  18.369  0.00  0.00    -0.264 OA
BRANCH  14  16
ATOM     16  C   UNL d   1     -38.053  14.649  17.157  0.00  0.00     0.087 A 
ATOM     17  C   UNL d   1     -38.030  15.206  16.564  0.00  0.00     0.045 A 
ATOM     18  C   UNL d   1     -37.997  14.964  15.778  0.00  0.00     0.121 A 
ATOM     19  O   UNL d   1     -37.969  15.406  15.069  0.00  0.00    -0.299 OA
ATOM     20  C   UNL d   1     -37.988  14.157  15.597  0.00  0.00     0.119 A 
ATOM     21  C   UNL d   1     -37.941  14.864  14.435  0.00  0.00     0.304 A 
ATOM     22  O   UNL d   1     -37.953  14.089  14.761  0.00  0.00    -0.300 OA
ATOM     23  C   UNL d   1     -38.011  13.600  16.191  0.00  0.00     0.028 A 
ATOM     24  C   UNL d   1     -38.044  13.846  16.977  0.00  0.00     0.021 A 
ENDBRANCH  14  16
ENDBRANCH  12  13
ENDBRANCH   2  12
BRANCH   1  25
ATOM     25  C   UNL d   1     -40.929  14.089  19.398  0.00  0.00     0.200 C 
ATOM     26  O   UNL d   1     -41.422  13.492  19.663  0.00  0.00    -0.286 OA
BRANCH  25  27
ATOM     27  C   UNL d   1     -41.147  14.539  18.744  0.00  0.00     0.039 A 
ATOM     28  C   UNL d   1     -41.218  15.368  18.800  0.00  0.00     0.003 A 
ATOM     29  C   UNL d   1     -41.437  15.829  18.141  0.00  0.00     0.000 A 
ATOM     30  C   UNL d   1     -41.586  15.461  17.425  0.00  0.00     0.000 A 
ATOM     31  C   UNL d   1     -41.511  14.625  17.382  0.00  0.00     0.000 A 
ATOM     32  C   UNL d   1     -41.292  14.162  18.036  0.00  0.00     0.003 A 
BRANCH  30  33
ATOM     33  C   UNL d   1     -41.806  15.922  16.766  0.00  0.00     0.000 C 
ATOM     34  C   UNL d   1     -42.438  15.677  16.314  0.00  0.00     0.000 C 
ENDBRANCH  30  33
ENDBRANCH  25  27
ENDBRANCH   1  25
BRANCH  10  35
ATOM     35  C   UNL d   1     -38.714  14.671  23.077  0.00  0.00     0.000 C 
ATOM     36  C   UNL d   1     -38.090  14.314  23.502  0.00  0.00     0.000 C 
ENDBRANCH  10  35
TORSDOF 7
ENDMDL
