MODEL 1
REMARK VINA RESULT:      -3.4      0.000      0.000
REMARK  3 active torsions:
REMARK  status: ('A' for Active; 'I' for Inactive)
REMARK    1  A    between atoms: N_7  and  N_1 
REMARK    2  A    between atoms: N_2  and  N_8 
REMARK       I    between atoms: C_3  and  N_7 
REMARK    3  A    between atoms: C_4  and  C_3 
REMARK       I    between atoms: N_8  and  C_4 
ROOT
ATOM      1  C   UNL d   1      59.113  -9.059  35.839  0.00  0.00     0.355 C 
ATOM      2  N   UNL d   1      59.296  -8.441  36.326  0.00  0.00    -0.115 NA
ATOM      3  O   UNL d   1      58.725  -9.710  36.133  0.00  0.00    -0.258 OA
ENDROOT
BRANCH   1   4
ATOM      4  C   UNL d   1      59.321  -9.026  35.042  0.00  0.00     0.355 C 
ATOM      5  N   UNL d   1      59.298  -9.723  34.605  0.00  0.00    -0.115 NA
ATOM      6  O   UNL d   1      59.474  -8.537  34.813  0.00  0.00    -0.258 OA
BRANCH   5   7
ATOM      7  N   UNL d   1      59.504  -9.726  33.789  0.00  0.00    -0.175 N 
ATOM      8  C   UNL d   1      58.930  -9.721  33.247  0.00  0.00     0.170 A 
ATOM      9  S   UNL d   1      59.330  -9.726  32.470  0.00  0.00    -0.051 SA
ATOM     10  S   UNL d   1      58.099  -9.713  33.427  0.00  0.00    -0.050 SA
ATOM     11  C   UNL d   1      60.147  -9.734  32.636  0.00  0.00     0.100 A 
ATOM     12  C   UNL d   1      60.235  -9.734  33.460  0.00  0.00     0.288 A 
ATOM     13  O   UNL d   1      60.962  -9.740  33.884  0.00  0.00    -0.265 OA
ENDBRANCH   5   7
ENDBRANCH   1   4
BRANCH   2  14
ATOM     14  N   UNL d   1      59.700  -7.731  36.081  0.00  0.00    -0.175 N 
ATOM     15  C   UNL d   1      60.498  -7.566  36.077  0.00  0.00     0.170 A 
ATOM     16  S   UNL d   1      60.559  -6.813  35.790  0.00  0.00    -0.051 SA
ATOM     17  S   UNL d   1      61.124  -8.083  36.326  0.00  0.00    -0.050 SA
ATOM     18  C   UNL d   1      59.854  -6.505  35.616  0.00  0.00     0.100 A 
ATOM     19  C   UNL d   1      59.291  -7.048  35.785  0.00  0.00     0.288 A 
ATOM     20  O   UNL d   1      58.817  -7.026  35.740  0.00  0.00    -0.265 OA
ENDBRANCH   2  14
TORSDOF 3
ENDMDL
MODEL 2
REMARK VINA RESULT:      -2.2      8.943     10.140
REMARK  3 active torsions:
REMARK  status: ('A' for Active; 'I' for Inactive)
REMARK    1  A    between atoms: N_7  and  N_1 
REMARK    2  A    between atoms: N_2  and  N_8 
REMARK       I    between atoms: C_3  and  N_7 
REMARK    3  A    between atoms: C_4  and  C_3 
REMARK       I    between atoms: N_8  and  C_4 
ROOT
ATOM      1  C   UNL d   1      58.456  -0.194  28.875  0.00  0.00     0.355 C 
ATOM      2  N   UNL d   1      58.704  -0.839  28.456  0.00  0.00    -0.115 NA
ATOM      3  O   UNL d   1      58.060   0.409  28.502  0.00  0.00    -0.258 OA
ENDROOT
BRANCH   1   4
ATOM      4  C   UNL d   1      58.606  -0.153  29.685  0.00  0.00     0.355 C 
ATOM      5  N   UNL d   1      58.281   0.474  30.109  0.00  0.00    -0.115 NA
ATOM      6  O   UNL d   1      58.923  -0.544  29.931  0.00  0.00    -0.258 OA
BRANCH   5   7
ATOM      7  N   UNL d   1      58.414   0.548  30.937  0.00  0.00    -0.175 N 
ATOM      8  C   UNL d   1      57.795   0.542  31.427  0.00  0.00     0.170 A 
ATOM      9  S   UNL d   1      58.125   0.628  32.233  0.00  0.00    -0.051 SA
ATOM     10  S   UNL d   1      56.986   0.464  31.181  0.00  0.00    -0.050 SA
ATOM     11  C   UNL d   1      58.951   0.680  32.135  0.00  0.00     0.100 A 
ATOM     12  C   UNL d   1      59.111   0.629  31.324  0.00  0.00     0.288 A 
ATOM     13  O   UNL d   1      59.871   0.655  30.962  0.00  0.00    -0.265 OA
ENDBRANCH   5   7
ENDBRANCH   1   4
BRANCH   2  14
ATOM     14  N   UNL d   1      59.123  -1.504  28.787  0.00  0.00    -0.175 N 
ATOM     15  C   UNL d   1      59.923  -1.652  28.806  0.00  0.00     0.170 A 
ATOM     16  S   UNL d   1      60.001  -2.361  29.187  0.00  0.00    -0.051 SA
ATOM     17  S   UNL d   1      60.538  -1.159  28.489  0.00  0.00    -0.050 SA
ATOM     18  C   UNL d   1      59.303  -2.657  29.403  0.00  0.00     0.100 A 
ATOM     19  C   UNL d   1      58.728  -2.151  29.171  0.00  0.00     0.288 A 
ATOM     20  O   UNL d   1      58.255  -2.175  29.220  0.00  0.00    -0.265 OA
ENDBRANCH   2  14
TORSDOF 3
ENDMDL
MODEL 3
REMARK VINA RESULT:      -2.2      8.784      9.559
REMARK  3 active torsions:
REMARK  status: ('A' for Active; 'I' for Inactive)
REMARK    1  A    between atoms: N_7  and  N_1 
REMARK    2  A    between atoms: N_2  and  N_8 
REMARK       I    between atoms: C_3  and  N_7 
REMARK    3  A    between atoms: C_4  and  C_3 
REMARK       I    between atoms: N_8  and  C_4 
ROOT
ATOM      1  C   UNL d   1      58.506   0.159  29.216  0.00  0.00     0.355 C 
ATOM      2  N   UNL d   1      58.212   0.638  29.797  0.00  0.00    -0.115 NA
ATOM      3  O   UNL d   1      58.576   0.435  28.455  0.00  0.00    -0.258 OA
ENDROOT
BRANCH   1   4
ATOM      4  C   UNL d   1      58.736  -0.611  29.401  0.00  0.00     0.355 C 
ATOM      5  N   UNL d   1      58.987  -1.099  28.787  0.00  0.00    -0.115 NA
ATOM      6  O   UNL d   1      58.718  -0.789  29.932  0.00  0.00    -0.258 OA
BRANCH   5   7
ATOM      7  N   UNL d   1      59.229  -1.891  28.938  0.00  0.00    -0.175 N 
ATOM      8  C   UNL d   1      59.998  -2.070  28.910  0.00  0.00     0.170 A 
ATOM      9  S   UNL d   1      60.054  -2.924  29.091  0.00  0.00    -0.051 SA
ATOM     10  S   UNL d   1      60.615  -1.513  28.735  0.00  0.00    -0.050 SA
ATOM     11  C   UNL d   1      59.271  -3.180  29.215  0.00  0.00     0.100 A 
ATOM     12  C   UNL d   1      58.773  -2.526  29.116  0.00  0.00     0.288 A 
ATOM     13  O   UNL d   1      57.935  -2.520  29.188  0.00  0.00    -0.265 OA
ENDBRANCH   5   7
ENDBRANCH   1   4
BRANCH   2  14
ATOM     14  N   UNL d   1      58.113   0.410  30.613  0.00  0.00    -0.175 N 
ATOM     15  C   UNL d   1      58.654   0.426  31.222  0.00  0.00     0.170 A 
ATOM     16  S   UNL d   1      58.255   0.148  31.869  0.00  0.00    -0.051 SA
ATOM     17  S   UNL d   1      59.462   0.682  31.177  0.00  0.00    -0.050 SA
ATOM     18  C   UNL d   1      57.508  -0.037  31.698  0.00  0.00     0.100 A 
ATOM     19  C   UNL d   1      57.380   0.112  30.922  0.00  0.00     0.288 A 
ATOM     20  O   UNL d   1      56.988   0.058  30.657  0.00  0.00    -0.265 OA
ENDBRANCH   2  14
TORSDOF 3
ENDMDL
MODEL 4
REMARK VINA RESULT:      -1.6      8.776      9.923
REMARK  3 active torsions:
REMARK  status: ('A' for Active; 'I' for Inactive)
REMARK    1  A    between atoms: N_7  and  N_1 
REMARK    2  A    between atoms: N_2  and  N_8 
REMARK       I    between atoms: C_3  and  N_7 
REMARK    3  A    between atoms: C_4  and  C_3 
REMARK       I    between atoms: N_8  and  C_4 
ROOT
ATOM      1  C   UNL d   1      57.948   0.291  29.590  0.00  0.00     0.355 C 
ATOM      2  N   UNL d   1      58.686   0.331  29.263  0.00  0.00    -0.115 NA
ATOM      3  O   UNL d   1      57.325   0.681  29.245  0.00  0.00    -0.258 OA
ENDROOT
BRANCH   1   4
ATOM      4  C   UNL d   1      57.832  -0.150  30.278  0.00  0.00     0.355 C 
ATOM      5  N   UNL d   1      57.091  -0.121  30.636  0.00  0.00    -0.115 NA
ATOM      6  O   UNL d   1      58.251  -0.457  30.488  0.00  0.00    -0.258 OA
BRANCH   5   7
ATOM      7  N   UNL d   1      56.936  -0.558  31.338  0.00  0.00    -0.175 N 
ATOM      8  C   UNL d   1      56.766  -0.168  32.004  0.00  0.00     0.170 A 
ATOM      9  S   UNL d   1      56.638  -0.779  32.616  0.00  0.00    -0.051 SA
ATOM     10  S   UNL d   1      56.727   0.678  32.069  0.00  0.00    -0.050 SA
ATOM     11  C   UNL d   1      56.749  -1.511  32.233  0.00  0.00     0.100 A 
ATOM     12  C   UNL d   1      56.933  -1.354  31.441  0.00  0.00     0.288 A 
ATOM     13  O   UNL d   1      57.092  -1.923  30.842  0.00  0.00    -0.265 OA
ENDBRANCH   5   7
ENDBRANCH   1   4
BRANCH   2  14
ATOM     14  N   UNL d   1      59.380  -0.054  29.575  0.00  0.00    -0.175 N 
ATOM     15  C   UNL d   1      59.725  -0.757  29.351  0.00  0.00     0.170 A 
ATOM     16  S   UNL d   1      60.365  -0.846  29.838  0.00  0.00    -0.051 SA
ATOM     17  S   UNL d   1      59.461  -1.278  28.734  0.00  0.00    -0.050 SA
ATOM     18  C   UNL d   1      60.435  -0.246  30.345  0.00  0.00     0.100 A 
ATOM     19  C   UNL d   1      59.838   0.270  30.213  0.00  0.00     0.288 A 
ATOM     20  O   UNL d   1      59.731   0.682  30.427  0.00  0.00    -0.265 OA
ENDBRANCH   2  14
TORSDOF 3
ENDMDL
