MODEL 1
REMARK VINA RESULT:      -2.2      0.000      0.000
REMARK  3 active torsions:
REMARK  status: ('A' for Active; 'I' for Inactive)
REMARK    1  A    between atoms: C_9  and  C_1 
REMARK       I    between atoms: N_12  and  C_9 
REMARK    2  A    between atoms: C_16  and  N_12 
REMARK    3  A    between atoms: C_17  and  C_16 
ROOT
ATOM      1  C   UNL d   1      57.710   0.018  30.531  0.00  0.00     0.108 A 
ATOM      2  C   UNL d   1      58.521  -0.889  30.002  0.00  0.00     0.044 A 
ATOM      3  C   UNL d   1      58.876  -0.115  29.892  0.00  0.00     0.112 A 
ATOM      4  S   UNL d   1      58.366   0.448  30.225  0.00  0.00    -0.061 SA
ATOM      5  C   UNL d   1      57.801  -0.782  30.399  0.00  0.00     0.116 A 
ATOM      6  N   UNL d   1      59.591  -0.051  29.516  0.00  0.00    -0.239 NA
ATOM      7  C   UNL d   1      59.631  -1.470  29.347  0.00  0.00     0.057 A 
ATOM      8  C   UNL d   1      58.904  -1.548  29.728  0.00  0.00     0.008 A 
ATOM      9  C   UNL d   1      59.971  -0.730  29.242  0.00  0.00     0.085 A 
ATOM     10  C   UNL d   1      60.015  -2.152  29.069  0.00  0.00     0.197 A 
ATOM     11  N   UNL d   1      57.249  -1.380  30.632  0.00  0.00    -0.147 N 
ATOM     12  O   UNL d   1      59.670  -2.904  29.176  0.00  0.00    -0.286 OA
ATOM     13  C   UNL d   1      60.703  -0.655  28.858  0.00  0.00     0.019 A 
ATOM     14  C   UNL d   1      60.735  -2.091  28.690  0.00  0.00     0.042 A 
ATOM     15  C   UNL d   1      61.091  -1.318  28.581  0.00  0.00     0.005 A 
ENDROOT
BRANCH   1  16
ATOM     16  C   UNL d   1      57.053   0.353  30.918  0.00  0.00     0.287 C 
ATOM     17  N   UNL d   1      57.046   0.348  31.740  0.00  0.00    -0.206 NA
ATOM     18  O   UNL d   1      56.425   0.682  30.506  0.00  0.00    -0.265 OA
BRANCH  17  19
ATOM     19  C   UNL d   1      56.397   0.679  32.144  0.00  0.00     0.102 C 
BRANCH  19  20
ATOM     20  C   UNL d   1      56.283   0.524  32.943  0.00  0.00     0.019 A 
ATOM     21  C   UNL d   1      56.888   0.673  33.482  0.00  0.00     0.002 A 
ATOM     22  C   UNL d   1      56.770   0.515  34.283  0.00  0.00     0.000 A 
ATOM     23  C   UNL d   1      56.059   0.214  34.547  0.00  0.00     0.000 A 
ATOM     24  C   UNL d   1      55.451   0.063  34.014  0.00  0.00     0.000 A 
ATOM     25  C   UNL d   1      55.562   0.218  33.210  0.00  0.00     0.002 A 
ENDBRANCH  19  20
ENDBRANCH  17  19
ENDBRANCH   1  16
TORSDOF 3
ENDMDL
MODEL 2
REMARK VINA RESULT:      -0.8      1.740      2.443
REMARK  3 active torsions:
REMARK  status: ('A' for Active; 'I' for Inactive)
REMARK    1  A    between atoms: C_9  and  C_1 
REMARK       I    between atoms: N_12  and  C_9 
REMARK    2  A    between atoms: C_16  and  N_12 
REMARK    3  A    between atoms: C_17  and  C_16 
ROOT
ATOM      1  C   UNL d   1      57.435   0.315  32.518  0.00  0.00     0.108 A 
ATOM      2  C   UNL d   1      58.310   0.354  31.522  0.00  0.00     0.044 A 
ATOM      3  C   UNL d   1      57.546   0.133  31.199  0.00  0.00     0.112 A 
ATOM      4  S   UNL d   1      57.003   0.110  31.826  0.00  0.00    -0.061 SA
ATOM      5  C   UNL d   1      58.218   0.461  32.339  0.00  0.00     0.116 A 
ATOM      6  N   UNL d   1      57.472  -0.009  30.404  0.00  0.00    -0.239 NA
ATOM      7  C   UNL d   1      58.861   0.272  30.222  0.00  0.00     0.057 A 
ATOM      8  C   UNL d   1      58.950   0.419  31.029  0.00  0.00     0.008 A 
ATOM      9  C   UNL d   1      58.131   0.061  29.913  0.00  0.00     0.085 A 
ATOM     10  C   UNL d   1      59.523   0.342  29.726  0.00  0.00     0.197 A 
ATOM     11  N   UNL d   1      58.812   0.682  32.899  0.00  0.00    -0.147 N 
ATOM     12  O   UNL d   1      60.265   0.557  30.039  0.00  0.00    -0.286 OA
ATOM     13  C   UNL d   1      58.045  -0.086  29.101  0.00  0.00     0.019 A 
ATOM     14  C   UNL d   1      59.452   0.200  28.925  0.00  0.00     0.042 A 
ATOM     15  C   UNL d   1      58.688  -0.021  28.602  0.00  0.00     0.005 A 
ENDROOT
BRANCH   1  16
ATOM     16  C   UNL d   1      57.117   0.365  33.286  0.00  0.00     0.287 C 
ATOM     17  N   UNL d   1      56.303   0.294  33.372  0.00  0.00    -0.206 NA
ATOM     18  O   UNL d   1      57.589   0.481  33.947  0.00  0.00    -0.265 OA
BRANCH  17  19
ATOM     19  C   UNL d   1      55.967   0.341  34.133  0.00  0.00     0.102 C 
BRANCH  19  20
ATOM     20  C   UNL d   1      55.157   0.444  34.223  0.00  0.00     0.019 A 
ATOM     21  C   UNL d   1      54.838   0.578  34.971  0.00  0.00     0.002 A 
ATOM     22  C   UNL d   1      54.024   0.680  35.056  0.00  0.00     0.000 A 
ATOM     23  C   UNL d   1      53.531   0.649  34.406  0.00  0.00     0.000 A 
ATOM     24  C   UNL d   1      53.842   0.515  33.658  0.00  0.00     0.000 A 
ATOM     25  C   UNL d   1      54.657   0.412  33.564  0.00  0.00     0.002 A 
ENDBRANCH  19  20
ENDBRANCH  17  19
ENDBRANCH   1  16
TORSDOF 3
ENDMDL
