MODEL 1
REMARK VINA RESULT:      -4.6      0.000      0.000
REMARK  5 active torsions:
REMARK  status: ('A' for Active; 'I' for Inactive)
REMARK    1  A    between atoms: N_4  and  S_1 
REMARK    2  A    between atoms: C_10  and  S_1 
REMARK    3  A    between atoms: C_2  and  N_9 
REMARK    4  A    between atoms: C_13  and  C_3 
REMARK    5  A    between atoms: C_11  and  C_8 
REMARK       I    between atoms: N_9  and  C_11 
REMARK       I    between atoms: C_15  and  N_12 
ROOT
ATOM      1  N   UNL d   1     -47.928  14.319  23.096  0.00  0.00    -0.200 NA
ATOM      2  C   UNL d   1     -48.709  14.163  23.320  0.00  0.00     0.296 C 
ATOM      3  O   UNL d   1     -48.920  13.401  23.559  0.00  0.00    -0.264 OA
ENDROOT
BRANCH   1   4
ATOM      4  C   UNL d   1     -47.361  13.719  23.111  0.00  0.00     0.119 A 
ATOM      5  C   UNL d   1     -46.568  13.787  22.918  0.00  0.00     0.084 A 
ATOM      6  C   UNL d   1     -46.207  13.046  23.012  0.00  0.00     0.016 A 
ATOM      7  C   UNL d   1     -45.434  12.788  22.900  0.00  0.00     0.020 A 
ATOM      8  C   UNL d   1     -46.787  12.521  23.266  0.00  0.00     0.049 A 
ATOM      9  C   UNL d   1     -45.242  12.007  23.041  0.00  0.00     0.083 A 
ATOM     10  N   UNL d   1     -45.826  11.470  23.299  0.00  0.00    -0.272 N 
ATOM     11  C   UNL d   1     -46.597  11.732  23.410  0.00  0.00     0.089 A 
ATOM     12  C   UNL d   1     -45.625  10.671  23.443  0.00  0.00     0.265 C 
ATOM     13  O   UNL d   1     -46.206  10.145  23.698  0.00  0.00    -0.267 OA
ATOM     14  C   UNL d   1     -44.847  10.415  23.329  0.00  0.00     0.066 C 
ATOM     15  S   UNL d   1     -47.500  12.929  23.329  0.00  0.00    -0.066 SA
BRANCH   5  16
ATOM     16  C   UNL d   1     -46.185  14.479  22.668  0.00  0.00     0.299 C 
ATOM     17  O   UNL d   1     -45.798  14.953  23.211  0.00  0.00    -0.264 OA
ATOM     18  N   UNL d   1     -46.202  14.677  21.876  0.00  0.00    -0.102 N 
ENDBRANCH   5  16
ENDBRANCH   1   4
BRANCH   2  19
ATOM     19  C   UNL d   1     -49.269  14.758  23.304  0.00  0.00     0.133 A 
ATOM     20  N   UNL d   1     -49.990  14.739  22.888  0.00  0.00    -0.226 N 
ATOM     21  C   UNL d   1     -50.382  15.462  23.031  0.00  0.00     0.092 A 
ATOM     22  C   UNL d   1     -49.906  15.913  23.526  0.00  0.00     0.021 A 
ATOM     23  C   UNL d   1     -49.221  15.484  23.696  0.00  0.00     0.025 A 
BRANCH  20  24
ATOM     24  S   UNL d   1     -50.268  14.117  22.418  0.00  0.00     0.277 S 
ATOM     25  O   UNL d   1     -49.916  14.483  21.772  0.00  0.00    -0.199 OA
ATOM     26  O   UNL d   1     -50.621  13.751  23.074  0.00  0.00    -0.199 OA
BRANCH  24  27
ATOM     27  C   UNL d   1     -50.527  13.516  21.920  0.00  0.00     0.133 A 
ATOM     28  S   UNL d   1     -50.472  13.507  21.098  0.00  0.00    -0.074 SA
ATOM     29  C   UNL d   1     -50.801  12.798  20.825  0.00  0.00     0.036 A 
ATOM     30  C   UNL d   1     -51.060  12.371  21.485  0.00  0.00     0.008 A 
ATOM     31  C   UNL d   1     -50.891  12.814  22.161  0.00  0.00     0.020 A 
ENDBRANCH  24  27
ENDBRANCH  20  24
ENDBRANCH   2  19
TORSDOF 5
ENDMDL
MODEL 2
REMARK VINA RESULT:      -3.5      7.342      9.601
REMARK  5 active torsions:
REMARK  status: ('A' for Active; 'I' for Inactive)
REMARK    1  A    between atoms: N_4  and  S_1 
REMARK    2  A    between atoms: C_10  and  S_1 
REMARK    3  A    between atoms: C_2  and  N_9 
REMARK    4  A    between atoms: C_13  and  C_3 
REMARK    5  A    between atoms: C_11  and  C_8 
REMARK       I    between atoms: N_9  and  C_11 
REMARK       I    between atoms: C_15  and  N_12 
ROOT
ATOM      1  N   UNL d   1     -40.216  15.017  18.864  0.00  0.00    -0.200 NA
ATOM      2  C   UNL d   1     -40.211  14.704  18.098  0.00  0.00     0.296 C 
ATOM      3  O   UNL d   1     -40.671  14.040  17.926  0.00  0.00    -0.264 OA
ENDROOT
BRANCH   1   4
ATOM      4  C   UNL d   1     -40.675  14.669  19.455  0.00  0.00     0.119 A 
ATOM      5  C   UNL d   1     -40.562  14.727  20.264  0.00  0.00     0.084 A 
ATOM      6  C   UNL d   1     -41.154  14.290  20.648  0.00  0.00     0.016 A 
ATOM      7  C   UNL d   1     -41.314  14.152  21.443  0.00  0.00     0.020 A 
ATOM      8  C   UNL d   1     -41.633  13.962  20.064  0.00  0.00     0.049 A 
ATOM      9  C   UNL d   1     -41.951  13.687  21.654  0.00  0.00     0.083 A 
ATOM     10  N   UNL d   1     -42.441  13.352  21.067  0.00  0.00    -0.272 N 
ATOM     11  C   UNL d   1     -42.277  13.493  20.274  0.00  0.00     0.089 A 
ATOM     12  C   UNL d   1     -43.092  12.877  21.288  0.00  0.00     0.265 C 
ATOM     13  O   UNL d   1     -43.573  12.548  20.704  0.00  0.00    -0.267 OA
ATOM     14  C   UNL d   1     -43.251  12.740  22.087  0.00  0.00     0.066 C 
ATOM     15  S   UNL d   1     -41.344  14.191  19.328  0.00  0.00    -0.066 SA
BRANCH   5  16
ATOM     16  C   UNL d   1     -39.958  15.151  20.642  0.00  0.00     0.299 C 
ATOM     17  O   UNL d   1     -39.220  14.811  20.748  0.00  0.00    -0.264 OA
ATOM     18  N   UNL d   1     -40.111  15.909  20.904  0.00  0.00    -0.102 N 
ENDBRANCH   5  16
ENDBRANCH   1   4
BRANCH   2  19
ATOM     19  C   UNL d   1     -39.755  15.050  17.515  0.00  0.00     0.133 A 
ATOM     20  N   UNL d   1     -39.093  14.706  17.146  0.00  0.00    -0.226 N 
ATOM     21  C   UNL d   1     -38.802  15.256  16.588  0.00  0.00     0.092 A 
ATOM     22  C   UNL d   1     -39.281  15.922  16.618  0.00  0.00     0.021 A 
ATOM     23  C   UNL d   1     -39.869  15.800  17.186  0.00  0.00     0.025 A 
BRANCH  20  24
ATOM     24  S   UNL d   1     -38.778  13.956  17.303  0.00  0.00     0.277 S 
ATOM     25  O   UNL d   1     -39.363  13.639  16.821  0.00  0.00    -0.199 OA
ATOM     26  O   UNL d   1     -38.189  14.282  17.789  0.00  0.00    -0.199 OA
BRANCH  24  27
ATOM     27  C   UNL d   1     -38.494  13.197  17.436  0.00  0.00     0.133 A 
ATOM     28  S   UNL d   1     -38.510  12.570  16.901  0.00  0.00    -0.074 SA
ATOM     29  C   UNL d   1     -38.167  11.910  17.265  0.00  0.00     0.036 A 
ATOM     30  C   UNL d   1     -37.940  12.135  18.029  0.00  0.00     0.008 A 
ATOM     31  C   UNL d   1     -38.141  12.928  18.134  0.00  0.00     0.020 A 
ENDBRANCH  24  27
ENDBRANCH  20  24
ENDBRANCH   2  19
TORSDOF 5
ENDMDL
MODEL 3
REMARK VINA RESULT:      -3.3      0.997      1.262
REMARK  5 active torsions:
REMARK  status: ('A' for Active; 'I' for Inactive)
REMARK    1  A    between atoms: N_4  and  S_1 
REMARK    2  A    between atoms: C_10  and  S_1 
REMARK    3  A    between atoms: C_2  and  N_9 
REMARK    4  A    between atoms: C_13  and  C_3 
REMARK    5  A    between atoms: C_11  and  C_8 
REMARK       I    between atoms: N_9  and  C_11 
REMARK       I    between atoms: C_15  and  N_12 
ROOT
ATOM      1  N   UNL d   1     -47.163  13.807  22.477  0.00  0.00    -0.200 NA
ATOM      2  C   UNL d   1     -47.805  13.912  22.990  0.00  0.00     0.296 C 
ATOM      3  O   UNL d   1     -47.882  13.422  23.650  0.00  0.00    -0.264 OA
ENDROOT
BRANCH   1   4
ATOM      4  C   UNL d   1     -46.604  13.218  22.622  0.00  0.00     0.119 A 
ATOM      5  C   UNL d   1     -45.793  13.276  22.524  0.00  0.00     0.084 A 
ATOM      6  C   UNL d   1     -45.446  12.553  22.735  0.00  0.00     0.016 A 
ATOM      7  C   UNL d   1     -44.666  12.294  22.748  0.00  0.00     0.020 A 
ATOM      8  C   UNL d   1     -46.055  12.048  22.965  0.00  0.00     0.049 A 
ATOM      9  C   UNL d   1     -44.493  11.533  22.989  0.00  0.00     0.083 A 
ATOM     10  N   UNL d   1     -45.106  11.016  23.222  0.00  0.00    -0.272 N 
ATOM     11  C   UNL d   1     -45.884  11.279  23.208  0.00  0.00     0.089 A 
ATOM     12  C   UNL d   1     -44.925  10.238  23.468  0.00  0.00     0.265 C 
ATOM     13  O   UNL d   1     -45.534   9.732  23.698  0.00  0.00    -0.267 OA
ATOM     14  C   UNL d   1     -44.140   9.981  23.479  0.00  0.00     0.066 C 
ATOM     15  S   UNL d   1     -46.770  12.451  22.897  0.00  0.00    -0.066 SA
BRANCH   5  16
ATOM     16  C   UNL d   1     -45.381  13.945  22.258  0.00  0.00     0.299 C 
ATOM     17  O   UNL d   1     -45.307  14.602  22.742  0.00  0.00    -0.264 OA
ATOM     18  N   UNL d   1     -45.053  13.937  21.511  0.00  0.00    -0.102 N 
ENDBRANCH   5  16
ENDBRANCH   1   4
BRANCH   2  19
ATOM     19  C   UNL d   1     -48.358  14.495  22.844  0.00  0.00     0.133 A 
ATOM     20  N   UNL d   1     -49.177  14.379  22.755  0.00  0.00    -0.226 N 
ATOM     21  C   UNL d   1     -49.523  15.126  22.615  0.00  0.00     0.092 A 
ATOM     22  C   UNL d   1     -48.923  15.686  22.619  0.00  0.00     0.021 A 
ATOM     23  C   UNL d   1     -48.204  15.303  22.760  0.00  0.00     0.025 A 
BRANCH  20  24
ATOM     24  S   UNL d   1     -49.577  13.655  22.798  0.00  0.00     0.277 S 
ATOM     25  O   UNL d   1     -49.714  13.807  23.594  0.00  0.00    -0.199 OA
ATOM     26  O   UNL d   1     -49.436  13.506  21.994  0.00  0.00    -0.199 OA
BRANCH  24  27
ATOM     27  C   UNL d   1     -49.981  12.944  22.879  0.00  0.00     0.133 A 
ATOM     28  S   UNL d   1     -50.319  12.650  23.571  0.00  0.00    -0.074 SA
ATOM     29  C   UNL d   1     -50.667  11.920  23.399  0.00  0.00     0.036 A 
ATOM     30  C   UNL d   1     -50.542  11.764  22.595  0.00  0.00     0.008 A 
ATOM     31  C   UNL d   1     -50.119  12.396  22.274  0.00  0.00     0.020 A 
ENDBRANCH  24  27
ENDBRANCH  20  24
ENDBRANCH   2  19
TORSDOF 5
ENDMDL
MODEL 4
REMARK VINA RESULT:      -3.3      8.447     10.669
REMARK  5 active torsions:
REMARK  status: ('A' for Active; 'I' for Inactive)
REMARK    1  A    between atoms: N_4  and  S_1 
REMARK    2  A    between atoms: C_10  and  S_1 
REMARK    3  A    between atoms: C_2  and  N_9 
REMARK    4  A    between atoms: C_13  and  C_3 
REMARK    5  A    between atoms: C_11  and  C_8 
REMARK       I    between atoms: N_9  and  C_11 
REMARK       I    between atoms: C_15  and  N_12 
ROOT
ATOM      1  N   UNL d   1     -38.351  13.442  19.430  0.00  0.00    -0.200 NA
ATOM      2  C   UNL d   1     -38.427  14.061  19.975  0.00  0.00     0.296 C 
ATOM      3  O   UNL d   1     -38.437  14.841  19.706  0.00  0.00    -0.264 OA
ENDROOT
BRANCH   1   4
ATOM      4  C   UNL d   1     -38.286  13.602  18.623  0.00  0.00     0.119 A 
ATOM      5  C   UNL d   1     -38.265  13.054  18.014  0.00  0.00     0.084 A 
ATOM      6  C   UNL d   1     -38.195  13.459  17.294  0.00  0.00     0.016 A 
ATOM      7  C   UNL d   1     -38.149  13.201  16.515  0.00  0.00     0.020 A 
ATOM      8  C   UNL d   1     -38.173  14.264  17.467  0.00  0.00     0.049 A 
ATOM      9  C   UNL d   1     -38.082  13.745  15.909  0.00  0.00     0.083 A 
ATOM     10  N   UNL d   1     -38.060  14.563  16.079  0.00  0.00    -0.272 N 
ATOM     11  C   UNL d   1     -38.106  14.816  16.859  0.00  0.00     0.089 A 
ATOM     12  C   UNL d   1     -37.991  15.116  15.456  0.00  0.00     0.265 C 
ATOM     13  O   UNL d   1     -37.969  15.922  15.628  0.00  0.00    -0.267 OA
ATOM     14  C   UNL d   1     -37.945  14.854  14.674  0.00  0.00     0.066 C 
ATOM     15  S   UNL d   1     -38.229  14.358  18.283  0.00  0.00    -0.066 SA
BRANCH   5  16
ATOM     16  C   UNL d   1     -38.306  12.230  18.099  0.00  0.00     0.299 C 
ATOM     17  O   UNL d   1     -38.624  11.770  17.500  0.00  0.00    -0.264 OA
ATOM     18  N   UNL d   1     -38.025  11.888  18.785  0.00  0.00    -0.102 N 
ENDBRANCH   5  16
ENDBRANCH   1   4
BRANCH   2  19
ATOM     19  C   UNL d   1     -38.492  13.901  20.774  0.00  0.00     0.133 A 
ATOM     20  N   UNL d   1     -39.128  14.119  21.264  0.00  0.00    -0.226 N 
ATOM     21  C   UNL d   1     -38.959  13.842  22.034  0.00  0.00     0.092 A 
ATOM     22  C   UNL d   1     -38.231  13.462  22.010  0.00  0.00     0.021 A 
ATOM     23  C   UNL d   1     -37.940  13.496  21.237  0.00  0.00     0.025 A 
BRANCH  20  24
ATOM     24  S   UNL d   1     -39.806  14.535  21.033  0.00  0.00     0.277 S 
ATOM     25  O   UNL d   1     -40.211  13.820  21.030  0.00  0.00    -0.199 OA
ATOM     26  O   UNL d   1     -39.392  15.254  21.036  0.00  0.00    -0.199 OA
BRANCH  24  27
ATOM     27  C   UNL d   1     -40.498  14.913  20.803  0.00  0.00     0.133 A 
ATOM     28  S   UNL d   1     -40.701  15.696  20.956  0.00  0.00    -0.074 SA
ATOM     29  C   UNL d   1     -41.445  15.841  20.624  0.00  0.00     0.036 A 
ATOM     30  C   UNL d   1     -41.700  15.141  20.264  0.00  0.00     0.008 A 
ATOM     31  C   UNL d   1     -41.116  14.568  20.374  0.00  0.00     0.020 A 
ENDBRANCH  24  27
ENDBRANCH  20  24
ENDBRANCH   2  19
TORSDOF 5
ENDMDL
