MODEL 1
REMARK VINA RESULT:      56.5      0.000      0.000
REMARK  3 active torsions:
REMARK  status: ('A' for Active; 'I' for Inactive)
REMARK    1  A    between atoms: N_3  and  C_1 
REMARK       I    between atoms: C_5  and  N_3 
REMARK    2  A    between atoms: C_8  and  C_5 
REMARK       I    between atoms: C_11  and  N_12 
REMARK    3  A    between atoms: N_12  and  C_13 
ROOT
ATOM      1  C   UNL d   1      59.226  49.673  52.166  0.00  0.00     0.197 A 
ATOM      2  N   UNL d   1      58.557  49.623  52.639  0.00  0.00    -0.221 NA
ATOM      3  S   UNL d   1      58.988  49.708  51.388  0.00  0.00    -0.047 SA
ATOM      4  C   UNL d   1      58.173  49.679  51.377  0.00  0.00     0.051 A 
ATOM      5  C   UNL d   1      57.904  49.626  52.157  0.00  0.00     0.090 A 
ATOM      6  C   UNL d   1      57.631  49.695  50.740  0.00  0.00     0.027 A 
ATOM      7  C   UNL d   1      56.824  49.657  50.894  0.00  0.00     0.085 A 
ATOM      8  C   UNL d   1      57.093  49.588  52.303  0.00  0.00     0.021 A 
ATOM      9  C   UNL d   1      56.550  49.603  51.689  0.00  0.00     0.021 A 
ENDROOT
BRANCH   1  10
ATOM     10  N   UNL d   1      60.014  49.688  52.422  0.00  0.00    -0.182 NA
ATOM     11  C   UNL d   1      60.601  49.489  51.884  0.00  0.00     0.287 C 
ATOM     12  O   UNL d   1      60.381  49.279  51.095  0.00  0.00    -0.265 OA
BRANCH  11  13
ATOM     13  C   UNL d   1      61.379  49.493  52.104  0.00  0.00     0.087 A 
ATOM     14  S   UNL d   1      62.082  49.415  51.665  0.00  0.00    -0.082 SA
ATOM     15  C   UNL d   1      62.713  49.460  52.164  0.00  0.00     0.036 A 
ATOM     16  C   UNL d   1      62.439  49.567  52.921  0.00  0.00     0.008 A 
ATOM     17  C   UNL d   1      61.592  49.589  52.892  0.00  0.00     0.012 A 
ENDBRANCH  11  13
ENDBRANCH   1  10
BRANCH   7  18
ATOM     18  N   UNL d   1      56.292  49.674  50.241  0.00  0.00    -0.208 NA
ATOM     19  C   UNL d   1      56.564  49.452  49.480  0.00  0.00     0.279 C 
ATOM     20  O   UNL d   1      56.039  49.468  48.833  0.00  0.00    -0.265 OA
ATOM     21  C   UNL d   1      57.352  49.219  49.374  0.00  0.00     0.068 C 
ENDBRANCH   7  18
TORSDOF 3
ENDMDL
