MODEL 1
REMARK VINA RESULT:      72.9      0.000      0.000
REMARK  4 active torsions:
REMARK  status: ('A' for Active; 'I' for Inactive)
REMARK    1  A    between atoms: C_7  and  C_1 
REMARK    2  A    between atoms: C_8  and  C_4 
REMARK    3  A    between atoms: O_9  and  C_7 
REMARK    4  A    between atoms: C_16  and  O_9 
ROOT
ATOM      1  C   UNL d   1     -50.196  25.438  33.607  0.00  0.00     0.098 A 
ATOM      2  C   UNL d   1     -49.765  24.737  33.666  0.00  0.00     0.075 A 
ATOM      3  C   UNL d   1     -50.967  23.983  33.482  0.00  0.00     0.354 A 
ATOM      4  C   UNL d   1     -51.001  25.392  33.488  0.00  0.00     0.093 A 
ATOM      5  N   UNL d   1     -50.139  23.990  33.605  0.00  0.00    -0.256 N 
ATOM      6  N   UNL d   1     -51.398  24.684  33.424  0.00  0.00    -0.192 NA
ATOM      7  O   UNL d   1     -51.344  23.234  33.421  0.00  0.00    -0.244 OA
ATOM      8  C   UNL d   1     -48.938  24.744  33.789  0.00  0.00     0.019 C 
ATOM      9  C   UNL d   1     -49.708  23.289  33.664  0.00  0.00     0.104 C 
ENDROOT
BRANCH   1  10
ATOM     10  C   UNL d   1     -49.799  26.146  33.671  0.00  0.00     0.303 C 
ATOM     11  O   UNL d   1     -49.064  26.221  33.306  0.00  0.00    -0.259 OA
BRANCH  10  12
ATOM     12  O   UNL d   1     -50.098  26.784  34.081  0.00  0.00    -0.273 OA
BRANCH  12  13
ATOM     13  C   UNL d   1     -49.627  27.294  34.507  0.00  0.00     0.103 A 
ATOM     14  C   UNL d   1     -49.187  26.993  35.136  0.00  0.00     0.025 A 
ATOM     15  C   UNL d   1     -48.662  27.396  35.660  0.00  0.00     0.002 A 
ATOM     16  C   UNL d   1     -48.481  28.189  35.647  0.00  0.00     0.000 A 
ATOM     17  C   UNL d   1     -48.730  28.787  35.164  0.00  0.00     0.000 A 
ATOM     18  C   UNL d   1     -49.273  28.731  34.514  0.00  0.00     0.002 A 
ATOM     19  C   UNL d   1     -49.651  28.072  34.247  0.00  0.00     0.025 A 
ENDBRANCH  12  13
ENDBRANCH  10  12
ENDBRANCH   1  10
BRANCH   4  20
ATOM     20  C   UNL d   1     -51.432  26.094  33.429  0.00  0.00     0.023 A 
ATOM     21  C   UNL d   1     -52.268  26.090  33.421  0.00  0.00     0.032 A 
ATOM     22  I   UNL d   1     -52.651  25.348  33.474  0.00  0.00    -0.043 I 
ATOM     23  C   UNL d   1     -52.699  26.791  33.362  0.00  0.00     0.006 A 
ATOM     24  C   UNL d   1     -52.298  27.493  33.312  0.00  0.00     0.000 A 
ATOM     25  C   UNL d   1     -51.477  27.523  33.318  0.00  0.00     0.000 A 
ATOM     26  C   UNL d   1     -51.047  26.822  33.376  0.00  0.00     0.002 A 
ENDBRANCH   4  20
TORSDOF 4
ENDMDL
