MODEL 1
REMARK VINA RESULT:      -4.7      0.000      0.000
REMARK  5 active torsions:
REMARK  status: ('A' for Active; 'I' for Inactive)
REMARK    1  A    between atoms: N_3  and  S_1 
REMARK    2  A    between atoms: C_4  and  S_1 
REMARK    3  A    between atoms: S_2  and  N_5 
REMARK    4  A    between atoms: C_8  and  N_3 
REMARK    5  A    between atoms: N_5  and  C_15 
ROOT
ATOM      1  N   UNL d   1     -41.456-121.760 -51.545  0.00  0.00    -0.229 N 
ATOM      2  C   UNL d   1     -41.122-121.032 -51.356  0.00  0.00     0.111 C 
ENDROOT
BRANCH   1   3
ATOM      3  S   UNL d   1     -41.549-121.978 -52.338  0.00  0.00     0.271 S 
ATOM      4  O   UNL d   1     -41.236-122.514 -51.795  0.00  0.00    -0.200 OA
ATOM      5  O   UNL d   1     -41.772-121.214 -52.090  0.00  0.00    -0.200 OA
BRANCH   3   6
ATOM      6  C   UNL d   1     -41.643-122.197 -53.132  0.00  0.00     0.104 A 
ATOM      7  C   UNL d   1     -41.123-122.735 -53.478  0.00  0.00     0.013 A 
ATOM      8  C   UNL d   1     -41.214-122.949 -54.257  0.00  0.00     0.001 A 
ATOM      9  C   UNL d   1     -41.827-122.631 -54.705  0.00  0.00     0.000 A 
ATOM     10  C   UNL d   1     -42.349-122.093 -54.364  0.00  0.00     0.001 A 
ATOM     11  C   UNL d   1     -41.913-122.855 -55.498  0.00  0.00     0.000 C 
ATOM     12  C   UNL d   1     -42.257-121.877 -53.581  0.00  0.00     0.013 A 
ENDBRANCH   3   6
ENDBRANCH   1   3
BRANCH   1  13
ATOM     13  C   UNL d   1     -41.697-122.274 -50.943  0.00  0.00     0.075 A 
ATOM     14  C   UNL d   1     -41.151-122.798 -50.606  0.00  0.00     0.020 A 
ATOM     15  C   UNL d   1     -41.395-123.309 -50.007  0.00  0.00     0.021 A 
ATOM     16  C   UNL d   1     -42.185-123.299 -49.744  0.00  0.00     0.094 A 
ATOM     17  C   UNL d   1     -42.723-122.774 -50.086  0.00  0.00     0.021 A 
ATOM     18  C   UNL d   1     -42.479-122.265 -50.683  0.00  0.00     0.020 A 
BRANCH  16  19
ATOM     19  N   UNL d   1     -42.427-123.814 -49.142  0.00  0.00    -0.162 NA
BRANCH  19  20
ATOM     20  S   UNL d   1     -42.098-123.752 -48.379  0.00  0.00     0.266 S 
ATOM     21  O   UNL d   1     -41.282-123.738 -48.283  0.00  0.00    -0.203 OA
ATOM     22  O   UNL d   1     -42.926-123.767 -48.482  0.00  0.00    -0.203 OA
ATOM     23  C   UNL d   1     -42.597-123.705 -47.718  0.00  0.00     0.165 C 
ENDBRANCH  19  20
ENDBRANCH  16  19
ENDBRANCH   1  13
TORSDOF 5
ENDMDL
