MODEL 1
REMARK VINA RESULT:      38.9      0.000      0.000
REMARK  6 active torsions:
REMARK  status: ('A' for Active; 'I' for Inactive)
REMARK    1  A    between atoms: C_2  and  S_1 
REMARK    2  A    between atoms: N_5  and  S_1 
REMARK    3  A    between atoms: C_15  and  N_5 
REMARK    4  A    between atoms: C_7  and  C_6 
REMARK    5  A    between atoms: C_20  and  C_15 
REMARK    6  A    between atoms: O_19  and  C_20 
ROOT
ATOM      1  C   UNL d   1      57.848  49.222  49.997  0.00  0.00     0.105 A 
ATOM      2  C   UNL d   1      59.368  49.380  50.638  0.00  0.00     0.000 A 
ATOM      3  C   UNL d   1      58.508  48.974  49.562  0.00  0.00     0.013 A 
ATOM      4  C   UNL d   1      57.948  49.548  50.748  0.00  0.00     0.013 A 
ATOM      5  C   UNL d   1      58.710  49.627  51.070  0.00  0.00     0.001 A 
ATOM      6  C   UNL d   1      59.270  49.053  49.883  0.00  0.00     0.001 A 
ENDROOT
BRANCH   1   7
ATOM      7  S   UNL d   1      57.088  49.147  49.684  0.00  0.00     0.285 S 
ATOM      8  O   UNL d   1      56.328  49.070  49.380  0.00  0.00    -0.198 OA
ATOM      9  O   UNL d   1      57.361  49.371  48.945  0.00  0.00    -0.198 OA
BRANCH   7  10
ATOM     10  N   UNL d   1      56.805  48.920  50.426  0.00  0.00    -0.155 NA
BRANCH  10  11
ATOM     11  C   UNL d   1      56.254  49.392  50.823  0.00  0.00     0.138 C 
BRANCH  11  12
ATOM     12  C   UNL d   1      56.035  49.201  51.596  0.00  0.00     0.138 C 
BRANCH  12  13
ATOM     13  O   UNL d   1      56.251  49.708  52.224  0.00  0.00    -0.325 OA
ATOM     14  C   UNL d   1      56.135  49.465  52.991  0.00  0.00     0.182 C 
ENDBRANCH  12  13
ENDBRANCH  11  12
ENDBRANCH  10  11
ENDBRANCH   7  10
ENDBRANCH   1   7
BRANCH   2  15
ATOM     15  C   UNL d   1      60.120  49.461  50.963  0.00  0.00     0.000 A 
ATOM     16  C   UNL d   1      60.778  49.467  50.468  0.00  0.00     0.001 A 
ATOM     17  C   UNL d   1      61.532  49.547  50.775  0.00  0.00     0.011 A 
ATOM     18  C   UNL d   1      61.635  49.624  51.601  0.00  0.00     0.058 A 
ATOM     19  C   UNL d   1      60.977  49.618  52.097  0.00  0.00     0.011 A 
ATOM     20 CL   UNL d   1      62.386  49.704  51.917  0.00  0.00    -0.082 Cl
ATOM     21  C   UNL d   1      60.219  49.537  51.779  0.00  0.00     0.001 A 
ENDBRANCH   2  15
TORSDOF 6
ENDMDL
