MODEL 1
REMARK VINA RESULT:      -2.8      0.000      0.000
REMARK  4 active torsions:
REMARK  status: ('A' for Active; 'I' for Inactive)
REMARK    1  A    between atoms: C_5  and  C_3 
REMARK    2  A    between atoms: C_8  and  C_5 
REMARK    3  A    between atoms: C_7  and  C_9 
REMARK    4  A    between atoms: C_9  and  C_8 
ROOT
ATOM      1  C   UNL d   1      31.562  17.612 -24.093  0.00  0.00     0.042 C 
ENDROOT
BRANCH   1   2
ATOM      2  C   UNL d   1      31.251  16.853 -24.052  0.00  0.00     0.006 C 
BRANCH   2   3
ATOM      3  C   UNL d   1      30.437  16.733 -24.184  0.00  0.00     0.039 A 
ATOM      4  C   UNL d   1      29.868  17.174 -24.606  0.00  0.00     0.122 A 
ATOM      5  N   UNL d   1      29.158  16.783 -24.541  0.00  0.00    -0.164 NA
ATOM      6  N   UNL d   1      29.259  16.105 -24.089  0.00  0.00    -0.227 N 
ATOM      7  C   UNL d   1      30.063  16.075 -23.866  0.00  0.00     0.085 A 
ATOM      8  C   UNL d   1      28.721  15.523 -23.860  0.00  0.00     0.121 C 
ATOM      9  C   UNL d   1      30.495  15.535 -23.416  0.00  0.00     0.021 C 
ENDBRANCH   2   3
ENDBRANCH   1   2
BRANCH   1  10
ATOM     10  C   UNL d   1      32.378  17.723 -23.993  0.00  0.00     0.199 C 
ATOM     11  O   UNL d   1      32.915  17.126 -24.220  0.00  0.00    -0.286 OA
BRANCH  10  12
ATOM     12  C   UNL d   1      32.665  18.434 -23.664  0.00  0.00     0.078 A 
ATOM     13  C   UNL d   1      32.959  19.029 -24.152  0.00  0.00     0.199 A 
ATOM     14  O   UNL d   1      32.967  18.919 -24.964  0.00  0.00    -0.286 OA
ATOM     15  C   UNL d   1      33.241  19.727 -23.815  0.00  0.00     0.042 A 
ATOM     16  C   UNL d   1      33.230  19.833 -22.992  0.00  0.00     0.003 A 
ATOM     17  C   UNL d   1      32.939  19.242 -22.515  0.00  0.00     0.000 A 
ATOM     18  C   UNL d   1      32.655  18.540 -22.842  0.00  0.00     0.006 A 
ENDBRANCH  10  12
ENDBRANCH   1  10
TORSDOF 4
ENDMDL
MODEL 2
REMARK VINA RESULT:      -2.7      2.808      4.015
REMARK  4 active torsions:
REMARK  status: ('A' for Active; 'I' for Inactive)
REMARK    1  A    between atoms: C_5  and  C_3 
REMARK    2  A    between atoms: C_8  and  C_5 
REMARK    3  A    between atoms: C_7  and  C_9 
REMARK    4  A    between atoms: C_9  and  C_8 
ROOT
ATOM      1  C   UNL d   1      33.028  20.356 -22.551  0.00  0.00     0.042 C 
ENDROOT
BRANCH   1   2
ATOM      2  C   UNL d   1      33.235  19.569 -22.662  0.00  0.00     0.006 C 
BRANCH   2   3
ATOM      3  C   UNL d   1      33.189  19.234 -23.424  0.00  0.00     0.039 A 
ATOM      4  C   UNL d   1      33.228  19.571 -24.186  0.00  0.00     0.122 A 
ATOM      5  N   UNL d   1      33.150  18.966 -24.725  0.00  0.00    -0.164 NA
ATOM      6  N   UNL d   1      33.063  18.254 -24.326  0.00  0.00    -0.227 N 
ATOM      7  C   UNL d   1      33.088  18.423 -23.510  0.00  0.00     0.085 A 
ATOM      8  C   UNL d   1      32.966  17.486 -24.610  0.00  0.00     0.121 C 
ATOM      9  C   UNL d   1      33.031  17.944 -22.841  0.00  0.00     0.021 C 
ENDBRANCH   2   3
ENDBRANCH   1   2
BRANCH   1  10
ATOM     10  C   UNL d   1      33.031  20.673 -21.785  0.00  0.00     0.199 C 
ATOM     11  O   UNL d   1      33.240  20.195 -21.133  0.00  0.00    -0.286 OA
BRANCH  10  12
ATOM     12  C   UNL d   1      32.826  21.473 -21.662  0.00  0.00     0.078 A 
ATOM     13  C   UNL d   1      32.215  21.671 -21.148  0.00  0.00     0.199 A 
ATOM     14  O   UNL d   1      31.808  21.077 -20.756  0.00  0.00    -0.286 OA
ATOM     15  C   UNL d   1      32.021  22.464 -21.035  0.00  0.00     0.042 A 
ATOM     16  C   UNL d   1      32.437  23.061 -21.435  0.00  0.00     0.003 A 
ATOM     17  C   UNL d   1      33.039  22.860 -21.942  0.00  0.00     0.000 A 
ATOM     18  C   UNL d   1      33.241  22.069 -22.062  0.00  0.00     0.006 A 
ENDBRANCH  10  12
ENDBRANCH   1  10
TORSDOF 4
ENDMDL
MODEL 3
REMARK VINA RESULT:      -2.3      2.574      4.491
REMARK  4 active torsions:
REMARK  status: ('A' for Active; 'I' for Inactive)
REMARK    1  A    between atoms: C_5  and  C_3 
REMARK    2  A    between atoms: C_8  and  C_5 
REMARK    3  A    between atoms: C_7  and  C_9 
REMARK    4  A    between atoms: C_9  and  C_8 
ROOT
ATOM      1  C   UNL d   1      32.867  18.986 -22.668  0.00  0.00     0.042 C 
ENDROOT
BRANCH   1   2
ATOM      2  C   UNL d   1      33.065  19.781 -22.606  0.00  0.00     0.006 C 
BRANCH   2   3
ATOM      3  C   UNL d   1      33.084  20.144 -21.856  0.00  0.00     0.039 A 
ATOM      4  C   UNL d   1      33.122  19.829 -21.084  0.00  0.00     0.122 A 
ATOM      5  N   UNL d   1      33.125  20.456 -20.565  0.00  0.00    -0.164 NA
ATOM      6  N   UNL d   1      33.088  21.160 -20.986  0.00  0.00    -0.227 N 
ATOM      7  C   UNL d   1      33.063  20.962 -21.796  0.00  0.00     0.085 A 
ATOM      8  C   UNL d   1      33.076  21.943 -20.727  0.00  0.00     0.121 C 
ATOM      9  C   UNL d   1      33.023  21.423 -22.479  0.00  0.00     0.021 C 
ENDBRANCH   2   3
ENDBRANCH   1   2
BRANCH   1  10
ATOM     10  C   UNL d   1      32.862  18.626 -23.415  0.00  0.00     0.199 C 
ATOM     11  O   UNL d   1      33.232  18.998 -24.065  0.00  0.00    -0.286 OA
BRANCH  10  12
ATOM     12  C   UNL d   1      32.486  17.889 -23.521  0.00  0.00     0.078 A 
ATOM     13  C   UNL d   1      31.837  17.821 -24.022  0.00  0.00     0.199 A 
ATOM     14  O   UNL d   1      31.561  18.484 -24.418  0.00  0.00    -0.286 OA
ATOM     15  C   UNL d   1      31.474  17.087 -24.119  0.00  0.00     0.042 A 
ATOM     16  C   UNL d   1      31.758  16.419 -23.716  0.00  0.00     0.003 A 
ATOM     17  C   UNL d   1      32.399  16.492 -23.222  0.00  0.00     0.000 A 
ATOM     18  C   UNL d   1      32.770  17.222 -23.118  0.00  0.00     0.006 A 
ENDBRANCH  10  12
ENDBRANCH   1  10
TORSDOF 4
ENDMDL
MODEL 4
REMARK VINA RESULT:      -2.1      2.190      4.282
REMARK  4 active torsions:
REMARK  status: ('A' for Active; 'I' for Inactive)
REMARK    1  A    between atoms: C_5  and  C_3 
REMARK    2  A    between atoms: C_8  and  C_5 
REMARK    3  A    between atoms: C_7  and  C_9 
REMARK    4  A    between atoms: C_9  and  C_8 
ROOT
ATOM      1  C   UNL d   1      32.484  18.550 -23.485  0.00  0.00     0.042 C 
ENDROOT
BRANCH   1   2
ATOM      2  C   UNL d   1      33.070  19.126 -23.455  0.00  0.00     0.006 C 
BRANCH   2   3
ATOM      3  C   UNL d   1      33.082  19.669 -22.823  0.00  0.00     0.039 A 
ATOM      4  C   UNL d   1      33.023  19.566 -21.997  0.00  0.00     0.122 A 
ATOM      5  N   UNL d   1      33.071  20.303 -21.655  0.00  0.00    -0.164 NA
ATOM      6  N   UNL d   1      33.160  20.871 -22.241  0.00  0.00    -0.227 N 
ATOM      7  C   UNL d   1      33.167  20.471 -22.974  0.00  0.00     0.085 A 
ATOM      8  C   UNL d   1      33.234  21.691 -22.191  0.00  0.00     0.121 C 
ATOM      9  C   UNL d   1      33.238  20.737 -23.751  0.00  0.00     0.021 C 
ENDBRANCH   2   3
ENDBRANCH   1   2
BRANCH   1  10
ATOM     10  C   UNL d   1      32.541  17.941 -24.046  0.00  0.00     0.199 C 
ATOM     11  O   UNL d   1      33.235  17.852 -24.501  0.00  0.00    -0.286 OA
BRANCH  10  12
ATOM     12  C   UNL d   1      31.903  17.415 -24.157  0.00  0.00     0.078 A 
ATOM     13  C   UNL d   1      31.920  16.664 -23.821  0.00  0.00     0.199 A 
ATOM     14  O   UNL d   1      32.568  16.436 -23.373  0.00  0.00    -0.286 OA
ATOM     15  C   UNL d   1      31.284  16.153 -23.938  0.00  0.00     0.042 A 
ATOM     16  C   UNL d   1      30.630  16.390 -24.391  0.00  0.00     0.003 A 
ATOM     17  C   UNL d   1      30.619  17.132 -24.722  0.00  0.00     0.000 A 
ATOM     18  C   UNL d   1      31.251  17.651 -24.610  0.00  0.00     0.006 A 
ENDBRANCH  10  12
ENDBRANCH   1  10
TORSDOF 4
ENDMDL
MODEL 5
REMARK VINA RESULT:      -1.9      2.802      4.165
REMARK  4 active torsions:
REMARK  status: ('A' for Active; 'I' for Inactive)
REMARK    1  A    between atoms: C_5  and  C_3 
REMARK    2  A    between atoms: C_8  and  C_5 
REMARK    3  A    between atoms: C_7  and  C_9 
REMARK    4  A    between atoms: C_9  and  C_8 
ROOT
ATOM      1  C   UNL d   1      33.043  20.468 -22.338  0.00  0.00     0.042 C 
ENDROOT
BRANCH   1   2
ATOM      2  C   UNL d   1      33.197  20.087 -23.050  0.00  0.00     0.006 C 
BRANCH   2   3
ATOM      3  C   UNL d   1      33.123  19.258 -23.099  0.00  0.00     0.039 A 
ATOM      4  C   UNL d   1      33.042  18.669 -22.513  0.00  0.00     0.122 A 
ATOM      5  N   UNL d   1      32.993  17.951 -22.894  0.00  0.00    -0.164 NA
ATOM      6  N   UNL d   1      33.041  18.069 -23.705  0.00  0.00    -0.227 N 
ATOM      7  C   UNL d   1      33.122  18.889 -23.832  0.00  0.00     0.085 A 
ATOM      8  C   UNL d   1      33.020  17.531 -24.330  0.00  0.00     0.121 C 
ATOM      9  C   UNL d   1      33.195  19.341 -24.518  0.00  0.00     0.021 C 
ENDBRANCH   2   3
ENDBRANCH   1   2
BRANCH   1  10
ATOM     10  C   UNL d   1      33.058  21.296 -22.309  0.00  0.00     0.199 C 
ATOM     11  O   UNL d   1      33.234  21.738 -22.995  0.00  0.00    -0.286 OA
BRANCH  10  12
ATOM     12  C   UNL d   1      32.896  21.693 -21.593  0.00  0.00     0.078 A 
ATOM     13  C   UNL d   1      32.396  22.347 -21.583  0.00  0.00     0.199 A 
ATOM     14  O   UNL d   1      32.057  22.607 -22.283  0.00  0.00    -0.286 OA
ATOM     15  C   UNL d   1      32.243  22.730 -20.870  0.00  0.00     0.042 A 
ATOM     16  C   UNL d   1      32.589  22.462 -20.164  0.00  0.00     0.003 A 
ATOM     17  C   UNL d   1      33.082  21.816 -20.180  0.00  0.00     0.000 A 
ATOM     18  C   UNL d   1      33.241  21.425 -20.889  0.00  0.00     0.006 A 
ENDBRANCH  10  12
ENDBRANCH   1  10
TORSDOF 4
ENDMDL
MODEL 6
REMARK VINA RESULT:      -1.8      1.993      3.014
REMARK  4 active torsions:
REMARK  status: ('A' for Active; 'I' for Inactive)
REMARK    1  A    between atoms: C_5  and  C_3 
REMARK    2  A    between atoms: C_8  and  C_5 
REMARK    3  A    between atoms: C_7  and  C_9 
REMARK    4  A    between atoms: C_9  and  C_8 
ROOT
ATOM      1  C   UNL d   1      33.147  19.180 -22.718  0.00  0.00     0.042 C 
ENDROOT
BRANCH   1   2
ATOM      2  C   UNL d   1      32.771  18.783 -23.333  0.00  0.00     0.006 C 
BRANCH   2   3
ATOM      3  C   UNL d   1      32.771  17.950 -23.347  0.00  0.00     0.039 A 
ATOM      4  C   UNL d   1      33.237  17.384 -22.947  0.00  0.00     0.122 A 
ATOM      5  N   UNL d   1      32.983  16.648 -23.183  0.00  0.00    -0.164 NA
ATOM      6  N   UNL d   1      32.369  16.731 -23.723  0.00  0.00    -0.227 N 
ATOM      7  C   UNL d   1      32.238  17.548 -23.825  0.00  0.00     0.085 A 
ATOM      8  C   UNL d   1      31.925  16.164 -24.125  0.00  0.00     0.121 C 
ATOM      9  C   UNL d   1      31.703  17.972 -24.289  0.00  0.00     0.021 C 
ENDBRANCH   2   3
ENDBRANCH   1   2
BRANCH   1  10
ATOM     10  C   UNL d   1      33.193  20.007 -22.737  0.00  0.00     0.199 C 
ATOM     11  O   UNL d   1      33.240  20.409 -23.467  0.00  0.00    -0.286 OA
BRANCH  10  12
ATOM     12  C   UNL d   1      33.193  20.442 -22.025  0.00  0.00     0.078 A 
ATOM     13  C   UNL d   1      33.147  21.264 -22.040  0.00  0.00     0.199 A 
ATOM     14  O   UNL d   1      33.100  21.653 -22.760  0.00  0.00    -0.286 OA
ATOM     15  C   UNL d   1      33.148  21.683 -21.330  0.00  0.00     0.042 A 
ATOM     16  C   UNL d   1      33.195  21.283 -20.604  0.00  0.00     0.003 A 
ATOM     17  C   UNL d   1      33.241  20.471 -20.595  0.00  0.00     0.000 A 
ATOM     18  C   UNL d   1      33.241  20.043 -21.300  0.00  0.00     0.006 A 
ENDBRANCH  10  12
ENDBRANCH   1  10
TORSDOF 4
ENDMDL
MODEL 7
REMARK VINA RESULT:      -1.4      1.349      2.066
REMARK  4 active torsions:
REMARK  status: ('A' for Active; 'I' for Inactive)
REMARK    1  A    between atoms: C_5  and  C_3 
REMARK    2  A    between atoms: C_8  and  C_5 
REMARK    3  A    between atoms: C_7  and  C_9 
REMARK    4  A    between atoms: C_9  and  C_8 
ROOT
ATOM      1  C   UNL d   1      30.455  16.743 -24.302  0.00  0.00     0.042 C 
ENDROOT
BRANCH   1   2
ATOM      2  C   UNL d   1      29.676  17.004 -24.330  0.00  0.00     0.006 C 
BRANCH   2   3
ATOM      3  C   UNL d   1      29.060  16.481 -24.125  0.00  0.00     0.039 A 
ATOM      4  C   UNL d   1      28.966  15.659 -24.232  0.00  0.00     0.122 A 
ATOM      5  N   UNL d   1      28.244  15.453 -23.917  0.00  0.00    -0.164 NA
ATOM      6  N   UNL d   1      27.876  16.122 -23.614  0.00  0.00    -0.227 N 
ATOM      7  C   UNL d   1      28.390  16.766 -23.746  0.00  0.00     0.085 A 
ATOM      8  C   UNL d   1      27.147  16.214 -23.241  0.00  0.00     0.121 C 
ATOM      9  C   UNL d   1      28.330  17.570 -23.568  0.00  0.00     0.021 C 
ENDBRANCH   2   3
ENDBRANCH   1   2
BRANCH   1  10
ATOM     10  C   UNL d   1      31.067  17.273 -24.482  0.00  0.00     0.199 C 
ATOM     11  O   UNL d   1      30.955  17.865 -25.061  0.00  0.00    -0.286 OA
BRANCH  10  12
ATOM     12  C   UNL d   1      31.798  17.218 -24.085  0.00  0.00     0.078 A 
ATOM     13  C   UNL d   1      32.325  16.612 -24.265  0.00  0.00     0.199 A 
ATOM     14  O   UNL d   1      32.126  16.061 -24.839  0.00  0.00    -0.286 OA
ATOM     15  C   UNL d   1      33.045  16.567 -23.866  0.00  0.00     0.042 A 
ATOM     16  C   UNL d   1      33.241  17.128 -23.286  0.00  0.00     0.003 A 
ATOM     17  C   UNL d   1      32.717  17.725 -23.112  0.00  0.00     0.000 A 
ATOM     18  C   UNL d   1      31.994  17.778 -23.506  0.00  0.00     0.006 A 
ENDBRANCH  10  12
ENDBRANCH   1  10
TORSDOF 4
ENDMDL
MODEL 8
REMARK VINA RESULT:      -0.2      2.008      4.036
REMARK  4 active torsions:
REMARK  status: ('A' for Active; 'I' for Inactive)
REMARK    1  A    between atoms: C_5  and  C_3 
REMARK    2  A    between atoms: C_8  and  C_5 
REMARK    3  A    between atoms: C_7  and  C_9 
REMARK    4  A    between atoms: C_9  and  C_8 
ROOT
ATOM      1  C   UNL d   1      30.230  17.057 -24.436  0.00  0.00     0.042 C 
ENDROOT
BRANCH   1   2
ATOM      2  C   UNL d   1      31.048  17.075 -24.518  0.00  0.00     0.006 C 
BRANCH   2   3
ATOM      3  C   UNL d   1      31.440  17.808 -24.577  0.00  0.00     0.039 A 
ATOM      4  C   UNL d   1      31.189  18.557 -24.848  0.00  0.00     0.122 A 
ATOM      5  N   UNL d   1      31.818  19.067 -24.774  0.00  0.00    -0.164 NA
ATOM      6  N   UNL d   1      32.463  18.663 -24.465  0.00  0.00    -0.227 N 
ATOM      7  C   UNL d   1      32.224  17.873 -24.342  0.00  0.00     0.085 A 
ATOM      8  C   UNL d   1      33.225  18.922 -24.285  0.00  0.00     0.121 C 
ATOM      9  C   UNL d   1      32.620  17.212 -24.047  0.00  0.00     0.021 C 
ENDBRANCH   2   3
ENDBRANCH   1   2
BRANCH   1  10
ATOM     10  C   UNL d   1      29.845  16.327 -24.360  0.00  0.00     0.199 C 
ATOM     11  O   UNL d   1      29.862  15.775 -24.986  0.00  0.00    -0.286 OA
BRANCH  10  12
ATOM     12  C   UNL d   1      29.440  16.139 -23.655  0.00  0.00     0.078 A 
ATOM     13  C   UNL d   1      28.657  16.370 -23.551  0.00  0.00     0.199 A 
ATOM     14  O   UNL d   1      28.276  16.787 -24.146  0.00  0.00    -0.286 OA
ATOM     15  C   UNL d   1      28.267  16.179 -22.851  0.00  0.00     0.042 A 
ATOM     16  C   UNL d   1      28.657  15.757 -22.252  0.00  0.00     0.003 A 
ATOM     17  C   UNL d   1      29.430  15.532 -22.359  0.00  0.00     0.000 A 
ATOM     18  C   UNL d   1      29.830  15.718 -23.057  0.00  0.00     0.006 A 
ENDBRANCH  10  12
ENDBRANCH   1  10
TORSDOF 4
ENDMDL
