MODEL 1
REMARK VINA RESULT:      38.4      0.000      0.000
REMARK  7 active torsions:
REMARK  status: ('A' for Active; 'I' for Inactive)
REMARK    1  A    between atoms: C_3  and  C_1 
REMARK    2  A    between atoms: N_5  and  C_2 
REMARK    3  A    between atoms: N_4  and  C_3 
REMARK    4  A    between atoms: C_10  and  C_3 
REMARK    5  A    between atoms: C_13  and  N_4 
REMARK       I    between atoms: C_6  and  N_5 
REMARK    6  A    between atoms: C_8  and  C_13 
REMARK    7  A    between atoms: O_16  and  C_8 
ROOT
ATOM      1  C   UNL d   1      14.213  13.640  -2.099  0.00  0.00     0.083 C 
ENDROOT
BRANCH   1   2
ATOM      2  C   UNL d   1      13.854  13.473  -2.823  0.00  0.00     0.036 A 
ATOM      3  C   UNL d   1      13.809  14.035  -3.409  0.00  0.00     0.086 A 
ATOM      4  C   UNL d   1      13.450  13.868  -4.133  0.00  0.00     0.020 A 
ATOM      5  C   UNL d   1      13.137  13.139  -4.271  0.00  0.00     0.008 A 
ATOM      6  C   UNL d   1      13.177  12.544  -3.670  0.00  0.00     0.035 A 
ATOM      7  C   UNL d   1      13.539  12.728  -2.952  0.00  0.00     0.010 A 
ATOM      8 BR   UNL d   1      12.855  11.780  -3.801  0.00  0.00    -0.049 Br
BRANCH   3   9
ATOM      9  N   UNL d   1      14.136  14.801  -3.268  0.00  0.00    -0.208 NA
ATOM     10  C   UNL d   1      14.116  15.372  -3.868  0.00  0.00     0.279 C 
ATOM     11  O   UNL d   1      14.428  16.103  -3.734  0.00  0.00    -0.265 OA
ATOM     12  C   UNL d   1      13.786  15.209  -4.598  0.00  0.00     0.068 C 
ENDBRANCH   3   9
ENDBRANCH   1   2
BRANCH   1  13
ATOM     13  N   UNL d   1      14.372  14.406  -1.871  0.00  0.00    -0.238 NA
BRANCH  13  14
ATOM     14  C   UNL d   1      14.931  14.525  -1.268  0.00  0.00     0.167 C 
BRANCH  14  15
ATOM     15  C   UNL d   1      14.929  15.266  -0.871  0.00  0.00     0.315 C 
ATOM     16  O   UNL d   1      14.701  15.287  -0.055  0.00  0.00    -0.257 OA
BRANCH  15  17
ATOM     17  O   UNL d   1      15.142  15.963  -1.258  0.00  0.00    -0.295 OA
ATOM     18  C   UNL d   1      15.219  16.643  -0.846  0.00  0.00     0.185 C 
ENDBRANCH  15  17
ENDBRANCH  14  15
ENDBRANCH  13  14
ENDBRANCH   1  13
BRANCH   1  19
ATOM     19  C   UNL d   1      14.415  13.024  -1.595  0.00  0.00     0.018 A 
ATOM     20  C   UNL d   1      15.131  12.623  -1.682  0.00  0.00     0.002 A 
ATOM     21  C   UNL d   1      15.349  12.008  -1.192  0.00  0.00     0.000 A 
ATOM     22  C   UNL d   1      14.806  11.781  -0.570  0.00  0.00     0.000 A 
ATOM     23  C   UNL d   1      14.089  12.178  -0.477  0.00  0.00     0.000 A 
ATOM     24  C   UNL d   1      13.892  12.796  -0.987  0.00  0.00     0.002 A 
ENDBRANCH   1  19
TORSDOF 7
ENDMDL
