MODEL 1
REMARK VINA RESULT:      34.8      0.000      0.000
REMARK  0 active torsions:
REMARK  status: ('A' for Active; 'I' for Inactive)
REMARK       I    between atoms: N_3  and  C_1 
REMARK       I    between atoms: N_5  and  C_1 
REMARK       I    between atoms: C_2  and  N_4 
REMARK       I    between atoms: N_6  and  C_2 
ROOT
ATOM      1  C   UNL d   1      46.362 -17.868  42.821  0.00  0.00     0.339 C 
ATOM      2  C   UNL d   1      45.477 -14.993  44.178  0.00  0.00     0.340 C 
ATOM      3  N   UNL d   1      46.137 -17.140  43.169  0.00  0.00    -0.254 N 
ATOM      4  N   UNL d   1      45.697 -15.714  43.843  0.00  0.00    -0.254 N 
ATOM      5  N   UNL d   1      46.304 -18.568  43.253  0.00  0.00    -0.258 N 
ATOM      6  N   UNL d   1      45.538 -14.300  43.742  0.00  0.00    -0.253 N 
ATOM      7  O   UNL d   1      46.642 -17.882  42.051  0.00  0.00    -0.245 OA
ATOM      8  O   UNL d   1      45.194 -14.964  44.955  0.00  0.00    -0.245 OA
ATOM      9  C   UNL d   1      45.633 -16.421  44.294  0.00  0.00     0.104 A 
ATOM     10  C   UNL d   1      45.977 -15.740  43.076  0.00  0.00     0.104 A 
ATOM     11  C   UNL d   1      46.198 -16.458  42.737  0.00  0.00     0.104 A 
ATOM     12  C   UNL d   1      45.854 -17.139  43.955  0.00  0.00     0.104 A 
ATOM     13  O   UNL d   1      45.666 -12.918  42.855  0.00  0.00    -0.300 OA
ATOM     14  C   UNL d   1      45.821 -14.329  42.966  0.00  0.00     0.111 A 
ATOM     15  C   UNL d   1      45.317 -13.581  44.081  0.00  0.00     0.111 A 
ATOM     16  C   UNL d   1      46.539 -19.254  42.863  0.00  0.00     0.085 A 
ATOM     17  C   UNL d   1      46.015 -18.492  44.026  0.00  0.00     0.085 A 
ATOM     18  C   UNL d   1      45.382 -12.886  43.633  0.00  0.00     0.142 A 
ATOM     19  C   UNL d   1      45.885 -13.643  42.526  0.00  0.00     0.142 A 
ATOM     20  C   UNL d   1      46.546 -20.028  43.140  0.00  0.00     0.019 A 
ATOM     21  C   UNL d   1      45.894 -19.082  44.590  0.00  0.00     0.019 A 
ATOM     22  C   UNL d   1      46.322 -20.315  43.875  0.00  0.00     0.002 A 
ATOM     23  C   UNL d   1      46.030 -19.892  44.521  0.00  0.00     0.002 A 
ENDROOT
TORSDOF 0
ENDMDL
MODEL 2
REMARK VINA RESULT:      37.1      0.856      4.915
REMARK  0 active torsions:
REMARK  status: ('A' for Active; 'I' for Inactive)
REMARK       I    between atoms: N_3  and  C_1 
REMARK       I    between atoms: N_5  and  C_1 
REMARK       I    between atoms: C_2  and  N_4 
REMARK       I    between atoms: N_6  and  C_2 
ROOT
ATOM      1  C   UNL d   1      45.482 -15.432  44.188  0.00  0.00     0.339 C 
ATOM      2  C   UNL d   1      46.361 -18.091  42.443  0.00  0.00     0.340 C 
ATOM      3  N   UNL d   1      45.706 -16.104  43.743  0.00  0.00    -0.254 N 
ATOM      4  N   UNL d   1      46.143 -17.424  42.876  0.00  0.00    -0.254 N 
ATOM      5  N   UNL d   1      45.542 -14.678  43.859  0.00  0.00    -0.258 N 
ATOM      6  N   UNL d   1      46.299 -18.839  42.778  0.00  0.00    -0.253 N 
ATOM      7  O   UNL d   1      45.203 -15.526  44.953  0.00  0.00    -0.245 OA
ATOM      8  O   UNL d   1      46.645 -18.012  41.670  0.00  0.00    -0.245 OA
ATOM      9  C   UNL d   1      46.209 -16.661  42.528  0.00  0.00     0.104 A 
ATOM     10  C   UNL d   1      45.863 -17.505  43.639  0.00  0.00     0.104 A 
ATOM     11  C   UNL d   1      45.643 -16.840  44.075  0.00  0.00     0.104 A 
ATOM     12  C   UNL d   1      45.989 -15.996  42.964  0.00  0.00     0.104 A 
ATOM     13  O   UNL d   1      46.167 -20.330  43.463  0.00  0.00    -0.300 OA
ATOM     14  C   UNL d   1      46.015 -18.917  43.551  0.00  0.00     0.111 A 
ATOM     15  C   UNL d   1      46.518 -19.503  42.342  0.00  0.00     0.111 A 
ATOM     16  C   UNL d   1      45.309 -14.053  44.341  0.00  0.00     0.085 A 
ATOM     17  C   UNL d   1      45.831 -14.647  43.083  0.00  0.00     0.085 A 
ATOM     18  C   UNL d   1      46.452 -20.254  42.688  0.00  0.00     0.142 A 
ATOM     19  C   UNL d   1      45.950 -19.658  43.890  0.00  0.00     0.142 A 
ATOM     20  C   UNL d   1      45.303 -13.248  44.175  0.00  0.00     0.019 A 
ATOM     21  C   UNL d   1      45.954 -13.983  42.607  0.00  0.00     0.019 A 
ATOM     22  C   UNL d   1      45.529 -12.862  43.488  0.00  0.00     0.002 A 
ATOM     23  C   UNL d   1      45.819 -13.192  42.788  0.00  0.00     0.002 A 
ENDROOT
TORSDOF 0
ENDMDL
