MODEL 1
REMARK VINA RESULT:      -5.5      0.000      0.000
REMARK  4 active torsions:
REMARK  status: ('A' for Active; 'I' for Inactive)
REMARK    1  A    between atoms: C_6  and  N_1 
REMARK    2  A    between atoms: C_3  and  C_4 
REMARK    3  A    between atoms: C_5  and  C_3 
REMARK       I    between atoms: C_4  and  N_10 
REMARK    4  A    between atoms: N_10  and  C_13 
ROOT
ATOM      1  C   UNL d   1      57.374   0.338  31.451  0.00  0.00     0.281 C 
ATOM      2  N   UNL d   1      57.370   0.152  32.256  0.00  0.00    -0.208 NA
ATOM      3  O   UNL d   1      56.707   0.177  30.992  0.00  0.00    -0.265 OA
ENDROOT
BRANCH   1   4
ATOM      4  C   UNL d   1      58.040   0.682  31.110  0.00  0.00     0.086 C 
BRANCH   4   5
ATOM      5  C   UNL d   1      58.377   0.352  30.427  0.00  0.00     0.144 A 
ATOM      6  C   UNL d   1      59.198   0.330  30.345  0.00  0.00     0.297 A 
ATOM      7  N   UNL d   1      59.545   0.004  29.669  0.00  0.00    -0.204 NA
ATOM      8  O   UNL d   1      59.680   0.637  30.947  0.00  0.00    -0.264 OA
ATOM      9  C   UNL d   1      59.055  -0.296  29.082  0.00  0.00     0.123 A 
ATOM     10  C   UNL d   1      58.235  -0.274  29.163  0.00  0.00     0.120 A 
ATOM     11  N   UNL d   1      57.904   0.048  29.832  0.00  0.00    -0.237 NA
ENDBRANCH   4   5
ENDBRANCH   1   4
BRANCH   2  12
ATOM     12  C   UNL d   1      56.704  -0.192  32.597  0.00  0.00     0.086 A 
ATOM     13  C   UNL d   1      56.211   0.262  33.078  0.00  0.00     0.043 A 
ATOM     14  C   UNL d   1      55.545  -0.083  33.419  0.00  0.00     0.128 A 
ATOM     15  C   UNL d   1      55.373  -0.877  33.279  0.00  0.00     0.024 A 
ATOM     16  C   UNL d   1      55.868  -1.327  32.798  0.00  0.00     0.003 A 
ATOM     17  C   UNL d   1      56.533  -0.983  32.457  0.00  0.00     0.019 A 
BRANCH  14  18
ATOM     18  N   UNL d   1      55.052   0.368  33.899  0.00  0.00    -0.114 N 
ATOM     19  O   UNL d   1      54.348   0.682  33.604  0.00  0.00    -0.532 OA
ATOM     20  O   UNL d   1      55.258   0.513  34.695  0.00  0.00    -0.532 OA
ENDBRANCH  14  18
ENDBRANCH   2  12
TORSDOF 4
ENDMDL
MODEL 2
REMARK VINA RESULT:      -4.8      1.360      1.848
REMARK  4 active torsions:
REMARK  status: ('A' for Active; 'I' for Inactive)
REMARK    1  A    between atoms: C_6  and  N_1 
REMARK    2  A    between atoms: C_3  and  C_4 
REMARK    3  A    between atoms: C_5  and  C_3 
REMARK       I    between atoms: C_4  and  N_10 
REMARK    4  A    between atoms: N_10  and  C_13 
ROOT
ATOM      1  C   UNL d   1      58.076   0.055  30.429  0.00  0.00     0.281 C 
ATOM      2  N   UNL d   1      57.290   0.092  30.681  0.00  0.00    -0.208 NA
ATOM      3  O   UNL d   1      58.683   0.024  30.987  0.00  0.00    -0.265 OA
ENDROOT
BRANCH   1   4
ATOM      4  C   UNL d   1      58.251   0.050  29.624  0.00  0.00     0.086 C 
BRANCH   4   5
ATOM      5  C   UNL d   1      58.721  -0.555  29.302  0.00  0.00     0.144 A 
ATOM      6  C   UNL d   1      59.338  -0.365  28.790  0.00  0.00     0.297 A 
ATOM      7  N   UNL d   1      59.813  -0.958  28.464  0.00  0.00    -0.204 NA
ATOM      8  O   UNL d   1      59.486   0.430  28.600  0.00  0.00    -0.264 OA
ATOM      9  C   UNL d   1      59.655  -1.740  28.661  0.00  0.00     0.123 A 
ATOM     10  C   UNL d   1      59.037  -1.930  29.173  0.00  0.00     0.120 A 
ATOM     11  N   UNL d   1      58.577  -1.339  29.489  0.00  0.00    -0.237 NA
ENDBRANCH   4   5
ENDBRANCH   1   4
BRANCH   2  12
ATOM     12  C   UNL d   1      57.115   0.098  31.485  0.00  0.00     0.086 A 
ATOM     13  C   UNL d   1      56.615  -0.480  31.798  0.00  0.00     0.043 A 
ATOM     14  C   UNL d   1      56.441  -0.473  32.603  0.00  0.00     0.128 A 
ATOM     15  C   UNL d   1      56.764   0.107  33.092  0.00  0.00     0.024 A 
ATOM     16  C   UNL d   1      57.262   0.682  32.776  0.00  0.00     0.003 A 
ATOM     17  C   UNL d   1      57.437   0.676  31.972  0.00  0.00     0.019 A 
BRANCH  14  18
ATOM     18  N   UNL d   1      55.943  -1.048  32.918  0.00  0.00    -0.114 N 
ATOM     19  O   UNL d   1      56.160  -1.844  32.909  0.00  0.00    -0.532 OA
ATOM     20  O   UNL d   1      55.210  -0.831  33.252  0.00  0.00    -0.532 OA
ENDBRANCH  14  18
ENDBRANCH   2  12
TORSDOF 4
ENDMDL
MODEL 3
REMARK VINA RESULT:      -3.2      2.210      3.210
REMARK  4 active torsions:
REMARK  status: ('A' for Active; 'I' for Inactive)
REMARK    1  A    between atoms: C_6  and  N_1 
REMARK    2  A    between atoms: C_3  and  C_4 
REMARK    3  A    between atoms: C_5  and  C_3 
REMARK       I    between atoms: C_4  and  N_10 
REMARK    4  A    between atoms: N_10  and  C_13 
ROOT
ATOM      1  C   UNL d   1      58.741  -1.123  29.201  0.00  0.00     0.281 C 
ATOM      2  N   UNL d   1      58.854  -0.803  29.954  0.00  0.00    -0.208 NA
ATOM      3  O   UNL d   1      57.996  -1.080  28.847  0.00  0.00    -0.265 OA
ENDROOT
BRANCH   1   4
ATOM      4  C   UNL d   1      59.368  -1.483  28.806  0.00  0.00     0.086 C 
BRANCH   4   5
ATOM      5  C   UNL d   1      59.390  -2.308  28.723  0.00  0.00     0.144 A 
ATOM      6  C   UNL d   1      60.106  -2.709  28.810  0.00  0.00     0.297 A 
ATOM      7  N   UNL d   1      60.141  -3.532  28.729  0.00  0.00    -0.204 NA
ATOM      8  O   UNL d   1      60.798  -2.284  28.981  0.00  0.00    -0.264 OA
ATOM      9  C   UNL d   1      59.448  -3.939  28.560  0.00  0.00     0.123 A 
ATOM     10  C   UNL d   1      58.732  -3.538  28.473  0.00  0.00     0.120 A 
ATOM     11  N   UNL d   1      58.709  -2.730  28.554  0.00  0.00    -0.237 NA
ENDBRANCH   4   5
ENDBRANCH   1   4
BRANCH   2  12
ATOM     12  C   UNL d   1      58.227  -0.443  30.348  0.00  0.00     0.086 A 
ATOM     13  C   UNL d   1      57.828  -0.855  30.940  0.00  0.00     0.043 A 
ATOM     14  C   UNL d   1      57.200  -0.494  31.334  0.00  0.00     0.128 A 
ATOM     15  C   UNL d   1      56.975   0.274  31.137  0.00  0.00     0.024 A 
ATOM     16  C   UNL d   1      57.377   0.682  30.545  0.00  0.00     0.003 A 
ATOM     17  C   UNL d   1      58.003   0.322  30.151  0.00  0.00     0.019 A 
BRANCH  14  18
ATOM     18  N   UNL d   1      56.800  -0.903  31.926  0.00  0.00    -0.114 N 
ATOM     19  O   UNL d   1      56.578  -0.523  32.624  0.00  0.00    -0.532 OA
ATOM     20  O   UNL d   1      56.612  -1.710  31.825  0.00  0.00    -0.532 OA
ENDBRANCH  14  18
ENDBRANCH   2  12
TORSDOF 4
ENDMDL
MODEL 4
REMARK VINA RESULT:      -2.6      9.335     10.382
REMARK  4 active torsions:
REMARK  status: ('A' for Active; 'I' for Inactive)
REMARK    1  A    between atoms: C_6  and  N_1 
REMARK    2  A    between atoms: C_3  and  C_4 
REMARK    3  A    between atoms: C_5  and  C_3 
REMARK       I    between atoms: C_4  and  N_10 
REMARK    4  A    between atoms: N_10  and  C_13 
ROOT
ATOM      1  C   UNL d   1      60.007  -9.123  34.055  0.00  0.00     0.281 C 
ATOM      2  N   UNL d   1      60.139  -9.818  33.629  0.00  0.00    -0.208 NA
ATOM      3  O   UNL d   1      59.808  -8.430  33.654  0.00  0.00    -0.265 OA
ENDROOT
BRANCH   1   4
ATOM      4  C   UNL d   1      60.073  -9.124  34.876  0.00  0.00     0.086 C 
BRANCH   4   5
ATOM      5  C   UNL d   1      59.814  -8.469  35.317  0.00  0.00     0.144 A 
ATOM      6  C   UNL d   1      59.223  -8.566  35.885  0.00  0.00     0.297 A 
ATOM      7  N   UNL d   1      58.958  -7.922  36.330  0.00  0.00    -0.204 NA
ATOM      8  O   UNL d   1      58.892  -9.317  36.010  0.00  0.00    -0.264 OA
ATOM      9  C   UNL d   1      59.295  -7.185  36.195  0.00  0.00     0.123 A 
ATOM     10  C   UNL d   1      59.886  -7.089  35.627  0.00  0.00     0.120 A 
ATOM     11  N   UNL d   1      60.140  -7.728  35.195  0.00  0.00    -0.237 NA
ENDBRANCH   4   5
ENDBRANCH   1   4
BRANCH   2  12
ATOM     12  C   UNL d   1      60.072  -9.817  32.808  0.00  0.00     0.086 A 
ATOM     13  C   UNL d   1      59.324  -9.817  32.459  0.00  0.00     0.043 A 
ATOM     14  C   UNL d   1      59.259  -9.816  31.638  0.00  0.00     0.128 A 
ATOM     15  C   UNL d   1      59.938  -9.816  31.169  0.00  0.00     0.024 A 
ATOM     16  C   UNL d   1      60.682  -9.815  31.521  0.00  0.00     0.003 A 
ATOM     17  C   UNL d   1      60.748  -9.816  32.341  0.00  0.00     0.019 A 
BRANCH  14  18
ATOM     18  N   UNL d   1      58.514  -9.816  31.287  0.00  0.00    -0.114 N 
ATOM     19  O   UNL d   1      57.831  -9.817  31.750  0.00  0.00    -0.532 OA
ATOM     20  O   UNL d   1      58.442  -9.816  30.456  0.00  0.00    -0.532 OA
ENDBRANCH  14  18
ENDBRANCH   2  12
TORSDOF 4
ENDMDL
