MODEL 1
REMARK VINA RESULT:      24.5      0.000      0.000
REMARK  2 active torsions:
REMARK  status: ('A' for Active; 'I' for Inactive)
REMARK       I    between atoms: N_2  and  C_1 
REMARK       I    between atoms: N_4  and  C_1 
REMARK    1  A    between atoms: C_3  and  N_2 
REMARK    2  A    between atoms: C_7  and  N_4 
ROOT
ATOM      1  C   UNL d   1     -51.419  25.172  33.597  0.00  0.00     0.370 C 
ATOM      2  N   UNL d   1     -51.484  24.344  33.604  0.00  0.00    -0.172 NA
ATOM      3  N   UNL d   1     -50.677  25.512  33.411  0.00  0.00    -0.191 NA
ATOM      4  O   UNL d   1     -52.039  25.649  33.761  0.00  0.00    -0.242 OA
ENDROOT
BRANCH   2   5
ATOM      5  C   UNL d   1     -52.214  24.006  33.788  0.00  0.00     0.167 A 
ATOM      6  N   UNL d   1     -52.894  24.144  33.306  0.00  0.00    -0.225 NA
ATOM      7  C   UNL d   1     -53.613  23.802  33.499  0.00  0.00     0.101 A 
ATOM      8  C   UNL d   1     -53.666  23.321  34.171  0.00  0.00     0.021 A 
ATOM      9  C   UNL d   1     -52.998  23.189  34.639  0.00  0.00     0.005 A 
ATOM     10  C   UNL d   1     -52.289  23.527  34.447  0.00  0.00     0.039 A 
ENDBRANCH   2   5
BRANCH   3  11
ATOM     11  C   UNL d   1     -50.600  26.330  33.400  0.00  0.00     0.086 A 
ATOM     12  C   UNL d   1     -51.256  26.799  33.317  0.00  0.00     0.019 A 
ATOM     13  C   UNL d   1     -51.170  27.625  33.307  0.00  0.00     0.002 A 
ATOM     14  C   UNL d   1     -50.407  27.969  33.383  0.00  0.00     0.000 A 
ATOM     15  C   UNL d   1     -49.760  27.492  33.465  0.00  0.00     0.002 A 
ATOM     16  C   UNL d   1     -49.834  26.676  33.476  0.00  0.00     0.019 A 
ENDBRANCH   3  11
TORSDOF 2
ENDMDL
