MODEL 1
REMARK VINA RESULT:      86.8      0.000      0.000
REMARK  4 active torsions:
REMARK  status: ('A' for Active; 'I' for Inactive)
REMARK       I    between atoms: N_3  and  C_1 
REMARK    1  A    between atoms: O_5  and  C_1 
REMARK    2  A    between atoms: C_2  and  O_8 
REMARK       I    between atoms: N_4  and  C_2 
REMARK    3  A    between atoms: C_6  and  O_5 
REMARK    4  A    between atoms: O_8  and  C_12 
ROOT
ATOM      1  C   UNL d   1      61.269  47.683  50.652  0.00  0.00     0.105 A 
ATOM      2  C   UNL d   1      60.838  48.354  50.856  0.00  0.00     0.025 A 
ATOM      3  C   UNL d   1      60.165  48.555  50.427  0.00  0.00     0.027 A 
ATOM      4  C   UNL d   1      59.718  49.238  50.628  0.00  0.00     0.105 A 
ATOM      5  C   UNL d   1      61.077  48.818  51.479  0.00  0.00     0.002 A 
ATOM      6  C   UNL d   1      60.649  49.493  51.690  0.00  0.00     0.002 A 
ATOM      7  C   UNL d   1      59.957  49.702  51.251  0.00  0.00     0.025 A 
ATOM      8  C   UNL d   1      61.942  47.482  51.081  0.00  0.00     0.025 A 
ATOM      9  C   UNL d   1      62.181  47.946  51.704  0.00  0.00     0.002 A 
ATOM     10  C   UNL d   1      61.753  48.621  51.915  0.00  0.00     0.000 A 
ENDROOT
BRANCH   1  11
ATOM     11  O   UNL d   1      61.026  47.212  50.020  0.00  0.00    -0.259 OA
BRANCH  11  12
ATOM     12  C   UNL d   1      61.553  46.674  49.679  0.00  0.00     0.378 C 
ATOM     13  N   UNL d   1      61.338  45.871  49.580  0.00  0.00    -0.247 N 
ATOM     14  C   UNL d   1      61.875  45.339  49.236  0.00  0.00     0.112 A 
ATOM     15  C   UNL d   1      60.593  45.619  49.824  0.00  0.00     0.112 A 
ATOM     16  C   UNL d   1      61.653  44.542  49.141  0.00  0.00     0.142 A 
ATOM     17  O   UNL d   1      60.896  44.288  49.390  0.00  0.00    -0.300 OA
ATOM     18  C   UNL d   1      60.373  44.829  49.730  0.00  0.00     0.142 A 
ATOM     19  O   UNL d   1      62.304  46.921  49.430  0.00  0.00    -0.237 OA
ENDBRANCH  11  12
ENDBRANCH   1  11
BRANCH   4  20
ATOM     20  O   UNL d   1      59.043  49.437  50.196  0.00  0.00    -0.259 OA
BRANCH  20  21
ATOM     21  C   UNL d   1      58.305  49.405  50.549  0.00  0.00     0.378 C 
ATOM     22  N   UNL d   1      57.619  49.493  50.095  0.00  0.00    -0.247 N 
ATOM     23  C   UNL d   1      56.883  49.458  50.468  0.00  0.00     0.112 A 
ATOM     24  C   UNL d   1      57.679  49.613  49.289  0.00  0.00     0.112 A 
ATOM     25  C   UNL d   1      56.201  49.546  50.016  0.00  0.00     0.142 A 
ATOM     26  O   UNL d   1      56.254  49.667  49.201  0.00  0.00    -0.300 OA
ATOM     27  C   UNL d   1      56.993  49.700  48.840  0.00  0.00     0.142 A 
ATOM     28  O   UNL d   1      58.255  49.284  51.363  0.00  0.00    -0.237 OA
ENDBRANCH  20  21
ENDBRANCH   4  20
TORSDOF 4
ENDMDL
