MODEL 1
REMARK VINA RESULT:      33.1      0.000      0.000
REMARK  8 active torsions:
REMARK  status: ('A' for Active; 'I' for Inactive)
REMARK    1  A    between atoms: C_14  and  N_1 
REMARK    2  A    between atoms: N_9  and  C_2 
REMARK    3  A    between atoms: C_6  and  C_5 
REMARK    4  A    between atoms: C_7  and  C_6 
REMARK       I    between atoms: N_8  and  C_7 
REMARK    5  A    between atoms: C_10  and  N_8 
REMARK    6  A    between atoms: C_16  and  N_9 
REMARK    7  A    between atoms: O_15  and  C_13 
REMARK    8  A    between atoms: C_19  and  O_15 
ROOT
ATOM      1  C   UNL d   1      12.959  12.675  -2.687  0.00  0.00     0.074 C 
ENDROOT
BRANCH   1   2
ATOM      2  C   UNL d   1      13.067  13.004  -3.438  0.00  0.00     0.093 A 
ATOM      3  C   UNL d   1      13.273  12.595  -4.124  0.00  0.00     0.272 A 
ATOM      4  N   UNL d   1      13.322  13.136  -4.747  0.00  0.00    -0.252 N 
ATOM      5  O   UNL d   1      13.409  11.780  -4.178  0.00  0.00    -0.266 OA
ATOM      6  C   UNL d   1      13.144  13.885  -4.445  0.00  0.00     0.182 A 
ATOM      7  S   UNL d   1      12.987  13.808  -3.641  0.00  0.00    -0.045 SA
BRANCH   4   8
ATOM      8  C   UNL d   1      13.513  12.952  -5.525  0.00  0.00     0.085 C 
ATOM      9  C   UNL d   1      13.998  12.310  -5.693  0.00  0.00     0.021 C 
ENDBRANCH   4   8
BRANCH   6  10
ATOM     10  N   UNL d   1      13.129  14.581  -4.878  0.00  0.00    -0.221 NA
BRANCH  10  11
ATOM     11  C   UNL d   1      12.854  15.279  -4.543  0.00  0.00     0.101 C 
ATOM     12  C   UNL d   1      12.769  15.964  -4.998  0.00  0.00     0.022 C 
ENDBRANCH  10  11
ENDBRANCH   6  10
ENDBRANCH   1   2
BRANCH   1  13
ATOM     13  C   UNL d   1      13.616  12.485  -2.225  0.00  0.00     0.280 C 
ATOM     14  N   UNL d   1      13.811  12.942  -1.574  0.00  0.00    -0.206 NA
ATOM     15  O   UNL d   1      14.072  11.830  -2.426  0.00  0.00    -0.265 OA
BRANCH  14  16
ATOM     16  C   UNL d   1      14.468  12.749  -1.114  0.00  0.00     0.107 A 
ATOM     17  C   UNL d   1      14.825  13.320  -0.639  0.00  0.00     0.118 A 
ATOM     18  C   UNL d   1      15.483  13.127  -0.179  0.00  0.00     0.026 A 
ATOM     19  C   UNL d   1      15.782  12.350  -0.199  0.00  0.00     0.002 A 
ATOM     20  C   UNL d   1      15.428  11.782  -0.670  0.00  0.00     0.002 A 
ATOM     21  C   UNL d   1      14.771  11.971  -1.132  0.00  0.00     0.021 A 
BRANCH  17  22
ATOM     22  O   UNL d   1      14.519  14.087  -0.628  0.00  0.00    -0.304 OA
BRANCH  22  23
ATOM     23  C   UNL d   1      14.719  14.596  -0.014  0.00  0.00     0.123 C 
ATOM     24  C   UNL d   1      15.146  15.286  -0.167  0.00  0.00     0.029 C 
ENDBRANCH  22  23
ENDBRANCH  17  22
ENDBRANCH  14  16
ENDBRANCH   1  13
TORSDOF 8
ENDMDL
