MODEL 1
REMARK VINA RESULT:      -9.5      0.000      0.000
REMARK  6 active torsions:
REMARK  status: ('A' for Active; 'I' for Inactive)
REMARK    1  A    between atoms: N_3  and  S_1 
REMARK    2  A    between atoms: C_7  and  S_1 
REMARK    3  A    between atoms: C_2  and  N_3 
REMARK    4  A    between atoms: N_8  and  C_5 
REMARK    5  A    between atoms: C_20  and  N_8 
REMARK    6  A    between atoms: C_13  and  C_20 
ROOT
ATOM      1  C   UNL d   1      52.426  32.997  53.135  0.00  0.00     0.211 A 
ATOM      2  N   UNL d   1      51.727  32.966  52.681  0.00  0.00    -0.222 NA
ATOM      3  C   UNL d   1      52.548  33.636  53.657  0.00  0.00     0.200 A 
ATOM      4  N   UNL d   1      51.981  34.219  53.713  0.00  0.00    -0.223 NA
ATOM      5  C   UNL d   1      51.157  33.560  52.742  0.00  0.00     0.101 A 
ATOM      6  C   UNL d   1      51.293  34.193  53.268  0.00  0.00     0.101 A 
ATOM      7  C   UNL d   1      50.708  34.810  53.336  0.00  0.00     0.021 A 
ATOM      8  C   UNL d   1      50.445  33.535  52.284  0.00  0.00     0.021 A 
ATOM      9  C   UNL d   1      50.011  34.762  52.871  0.00  0.00     0.002 A 
ATOM     10  C   UNL d   1      49.889  34.123  52.349  0.00  0.00     0.002 A 
ENDROOT
BRANCH   1  11
ATOM     11  N   UNL d   1      52.978  32.462  53.104  0.00  0.00    -0.136 NA
BRANCH  11  12
ATOM     12  S   UNL d   1      52.894  31.716  52.808  0.00  0.00     0.287 S 
ATOM     13  O   UNL d   1      52.762  31.017  52.320  0.00  0.00    -0.198 OA
ATOM     14  O   UNL d   1      52.745  32.215  52.196  0.00  0.00    -0.198 OA
BRANCH  12  15
ATOM     15  C   UNL d   1      52.981  31.000  53.180  0.00  0.00     0.105 A 
ATOM     16  C   UNL d   1      52.353  30.479  53.223  0.00  0.00     0.013 A 
ATOM     17  C   UNL d   1      52.418  29.729  53.603  0.00  0.00     0.001 A 
ATOM     18  C   UNL d   1      53.160  29.518  53.949  0.00  0.00     0.000 A 
ATOM     19  C   UNL d   1      53.794  30.034  53.912  0.00  0.00     0.001 A 
ATOM     20  C   UNL d   1      53.276  28.805  54.330  0.00  0.00     0.000 C 
ATOM     21  C   UNL d   1      53.709  30.783  53.524  0.00  0.00     0.013 A 
ENDBRANCH  12  15
ENDBRANCH  11  12
ENDBRANCH   1  11
BRANCH   3  22
ATOM     22  N   UNL d   1      53.222  33.630  54.070  0.00  0.00    -0.221 NA
BRANCH  22  23
ATOM     23  C   UNL d   1      53.488  34.112  54.634  0.00  0.00     0.125 C 
BRANCH  23  24
ATOM     24  C   UNL d   1      54.203  33.987  54.942  0.00  0.00     0.119 A 
ATOM     25  O   UNL d   1      54.887  34.260  54.666  0.00  0.00    -0.304 OA
ATOM     26  C   UNL d   1      55.454  34.011  55.129  0.00  0.00     0.123 A 
ATOM     27  C   UNL d   1      55.132  33.578  55.702  0.00  0.00     0.029 A 
ATOM     28  C   UNL d   1      54.356  33.562  55.588  0.00  0.00     0.028 A 
ENDBRANCH  23  24
ENDBRANCH  22  23
ENDBRANCH   3  22
TORSDOF 6
ENDMDL
MODEL 2
REMARK VINA RESULT:      -8.6      0.894      3.652
REMARK  6 active torsions:
REMARK  status: ('A' for Active; 'I' for Inactive)
REMARK    1  A    between atoms: N_3  and  S_1 
REMARK    2  A    between atoms: C_7  and  S_1 
REMARK    3  A    between atoms: C_2  and  N_3 
REMARK    4  A    between atoms: N_8  and  C_5 
REMARK    5  A    between atoms: C_20  and  N_8 
REMARK    6  A    between atoms: C_13  and  C_20 
ROOT
ATOM      1  C   UNL d   1      53.038  31.999  53.379  0.00  0.00     0.211 A 
ATOM      2  N   UNL d   1      52.702  31.323  53.026  0.00  0.00    -0.222 NA
ATOM      3  C   UNL d   1      53.534  31.910  54.043  0.00  0.00     0.200 A 
ATOM      4  N   UNL d   1      53.681  31.163  54.335  0.00  0.00    -0.223 NA
ATOM      5  C   UNL d   1      52.854  30.569  53.326  0.00  0.00     0.101 A 
ATOM      6  C   UNL d   1      53.352  30.496  53.991  0.00  0.00     0.101 A 
ATOM      7  C   UNL d   1      53.513  29.720  54.306  0.00  0.00     0.021 A 
ATOM      8  C   UNL d   1      52.515  29.878  52.972  0.00  0.00     0.021 A 
ATOM      9  C   UNL d   1      53.166  29.051  53.938  0.00  0.00     0.002 A 
ATOM     10  C   UNL d   1      52.670  29.140  53.273  0.00  0.00     0.002 A 
ENDROOT
BRANCH   1  11
ATOM     11  N   UNL d   1      52.919  32.716  53.127  0.00  0.00    -0.136 NA
BRANCH  11  12
ATOM     12  S   UNL d   1      52.325  32.948  52.631  0.00  0.00     0.287 S 
ATOM     13  O   UNL d   1      51.787  33.075  51.969  0.00  0.00    -0.198 OA
ATOM     14  O   UNL d   1      52.789  32.449  52.204  0.00  0.00    -0.198 OA
BRANCH  12  15
ATOM     15  C   UNL d   1      51.702  33.447  52.770  0.00  0.00     0.105 A 
ATOM     16  C   UNL d   1      51.818  34.256  52.789  0.00  0.00     0.013 A 
ATOM     17  C   UNL d   1      51.186  34.796  52.931  0.00  0.00     0.001 A 
ATOM     18  C   UNL d   1      50.412  34.483  53.058  0.00  0.00     0.000 A 
ATOM     19  C   UNL d   1      50.286  33.675  53.041  0.00  0.00     0.001 A 
ATOM     20  C   UNL d   1      49.765  34.962  53.200  0.00  0.00     0.000 C 
ATOM     21  C   UNL d   1      50.934  33.148  52.896  0.00  0.00     0.013 A 
ENDBRANCH  12  15
ENDBRANCH  11  12
ENDBRANCH   1  11
BRANCH   3  22
ATOM     22  N   UNL d   1      53.834  32.574  54.351  0.00  0.00    -0.221 NA
BRANCH  22  23
ATOM     23  C   UNL d   1      54.223  32.704  55.023  0.00  0.00     0.125 C 
BRANCH  23  24
ATOM     24  C   UNL d   1      54.559  33.407  55.145  0.00  0.00     0.119 A 
ATOM     25  O   UNL d   1      54.207  34.053  55.424  0.00  0.00    -0.304 OA
ATOM     26  C   UNL d   1      54.731  34.621  55.459  0.00  0.00     0.123 A 
ATOM     27  C   UNL d   1      55.419  34.337  55.202  0.00  0.00     0.029 A 
ATOM     28  C   UNL d   1      55.314  33.584  55.008  0.00  0.00     0.028 A 
ENDBRANCH  23  24
ENDBRANCH  22  23
ENDBRANCH   3  22
TORSDOF 6
ENDMDL
MODEL 3
REMARK VINA RESULT:      -8.3      0.863      3.197
REMARK  6 active torsions:
REMARK  status: ('A' for Active; 'I' for Inactive)
REMARK    1  A    between atoms: N_3  and  S_1 
REMARK    2  A    between atoms: C_7  and  S_1 
REMARK    3  A    between atoms: C_2  and  N_3 
REMARK    4  A    between atoms: N_8  and  C_5 
REMARK    5  A    between atoms: C_20  and  N_8 
REMARK    6  A    between atoms: C_13  and  C_20 
ROOT
ATOM      1  C   UNL d   1      52.954  32.804  53.580  0.00  0.00     0.211 A 
ATOM      2  N   UNL d   1      53.691  32.697  53.954  0.00  0.00    -0.222 NA
ATOM      3  C   UNL d   1      52.551  33.529  53.667  0.00  0.00     0.200 A 
ATOM      4  N   UNL d   1      52.887  34.120  54.117  0.00  0.00    -0.223 NA
ATOM      5  C   UNL d   1      54.026  33.299  54.409  0.00  0.00     0.101 A 
ATOM      6  C   UNL d   1      53.611  34.019  54.487  0.00  0.00     0.101 A 
ATOM      7  C   UNL d   1      53.952  34.646  54.955  0.00  0.00     0.021 A 
ATOM      8  C   UNL d   1      54.774  33.197  54.792  0.00  0.00     0.021 A 
ATOM      9  C   UNL d   1      54.694  34.520  55.324  0.00  0.00     0.002 A 
ATOM     10  C   UNL d   1      55.097  33.795  55.238  0.00  0.00     0.002 A 
ENDROOT
BRANCH   1  11
ATOM     11  N   UNL d   1      52.612  32.265  53.150  0.00  0.00    -0.136 NA
BRANCH  11  12
ATOM     12  S   UNL d   1      52.953  31.579  52.896  0.00  0.00     0.287 S 
ATOM     13  O   UNL d   1      53.377  30.961  52.469  0.00  0.00    -0.198 OA
ATOM     14  O   UNL d   1      53.126  32.132  52.338  0.00  0.00    -0.198 OA
BRANCH  12  15
ATOM     15  C   UNL d   1      52.955  30.846  53.241  0.00  0.00     0.105 A 
ATOM     16  C   UNL d   1      52.252  30.461  53.398  0.00  0.00     0.013 A 
ATOM     17  C   UNL d   1      52.228  29.698  53.756  0.00  0.00     0.001 A 
ATOM     18  C   UNL d   1      52.960  29.326  53.956  0.00  0.00     0.000 A 
ATOM     19  C   UNL d   1      53.670  29.703  53.803  0.00  0.00     0.001 A 
ATOM     20  C   UNL d   1      52.994  28.588  54.305  0.00  0.00     0.000 C 
ATOM     21  C   UNL d   1      53.673  30.470  53.442  0.00  0.00     0.013 A 
ENDBRANCH  12  15
ENDBRANCH  11  12
ENDBRANCH   1  11
BRANCH   3  22
ATOM     22  N   UNL d   1      51.856  33.593  53.297  0.00  0.00    -0.221 NA
BRANCH  22  23
ATOM     23  C   UNL d   1      51.277  34.123  53.369  0.00  0.00     0.125 C 
BRANCH  23  24
ATOM     24  C   UNL d   1      50.756  34.207  52.783  0.00  0.00     0.119 A 
ATOM     25  O   UNL d   1      50.919  34.278  52.017  0.00  0.00    -0.304 OA
ATOM     26  C   UNL d   1      50.252  34.349  51.631  0.00  0.00     0.123 A 
ATOM     27  C   UNL d   1      49.662  34.324  52.152  0.00  0.00     0.029 A 
ATOM     28  C   UNL d   1      49.973  34.236  52.867  0.00  0.00     0.028 A 
ENDBRANCH  23  24
ENDBRANCH  22  23
ENDBRANCH   3  22
TORSDOF 6
ENDMDL
MODEL 4
REMARK VINA RESULT:      -7.8      1.031      4.175
REMARK  6 active torsions:
REMARK  status: ('A' for Active; 'I' for Inactive)
REMARK    1  A    between atoms: N_3  and  S_1 
REMARK    2  A    between atoms: C_7  and  S_1 
REMARK    3  A    between atoms: C_2  and  N_3 
REMARK    4  A    between atoms: N_8  and  C_5 
REMARK    5  A    between atoms: C_20  and  N_8 
REMARK    6  A    between atoms: C_13  and  C_20 
ROOT
ATOM      1  C   UNL d   1      53.121  32.846  53.648  0.00  0.00     0.211 A 
ATOM      2  N   UNL d   1      53.319  33.620  53.889  0.00  0.00    -0.222 NA
ATOM      3  C   UNL d   1      53.549  32.199  53.954  0.00  0.00     0.200 A 
ATOM      4  N   UNL d   1      54.153  32.336  54.484  0.00  0.00    -0.223 NA
ATOM      5  C   UNL d   1      53.933  33.751  54.426  0.00  0.00     0.101 A 
ATOM      6  C   UNL d   1      54.351  33.094  54.723  0.00  0.00     0.101 A 
ATOM      7  C   UNL d   1      54.986  33.223  55.278  0.00  0.00     0.021 A 
ATOM      8  C   UNL d   1      54.139  34.534  54.674  0.00  0.00     0.021 A 
ATOM      9  C   UNL d   1      55.172  34.008  55.509  0.00  0.00     0.002 A 
ATOM     10  C   UNL d   1      54.744  34.655  55.203  0.00  0.00     0.002 A 
ENDROOT
BRANCH   1  11
ATOM     11  N   UNL d   1      52.557  32.686  53.150  0.00  0.00    -0.136 NA
BRANCH  11  12
ATOM     12  S   UNL d   1      52.218  33.210  52.638  0.00  0.00     0.287 S 
ATOM     13  O   UNL d   1      52.028  33.742  51.985  0.00  0.00    -0.198 OA
ATOM     14  O   UNL d   1      52.931  33.017  52.320  0.00  0.00    -0.198 OA
BRANCH  12  15
ATOM     15  C   UNL d   1      51.501  33.585  52.681  0.00  0.00     0.105 A 
ATOM     16  C   UNL d   1      50.908  33.288  53.159  0.00  0.00     0.013 A 
ATOM     17  C   UNL d   1      50.154  33.659  53.221  0.00  0.00     0.001 A 
ATOM     18  C   UNL d   1      50.014  34.361  52.772  0.00  0.00     0.000 A 
ATOM     19  C   UNL d   1      50.602  34.667  52.291  0.00  0.00     0.001 A 
ATOM     20  C   UNL d   1      49.302  34.760  52.796  0.00  0.00     0.000 C 
ATOM     21  C   UNL d   1      51.354  34.278  52.242  0.00  0.00     0.013 A 
ENDBRANCH  12  15
ENDBRANCH  11  12
ENDBRANCH   1  11
BRANCH   3  22
ATOM     22  N   UNL d   1      53.332  31.482  53.703  0.00  0.00    -0.221 NA
BRANCH  22  23
ATOM     23  C   UNL d   1      53.724  30.799  53.685  0.00  0.00     0.125 C 
BRANCH  23  24
ATOM     24  C   UNL d   1      53.319  30.122  53.673  0.00  0.00     0.119 A 
ATOM     25  O   UNL d   1      52.846  29.868  53.098  0.00  0.00    -0.304 OA
ATOM     26  C   UNL d   1      52.558  29.181  53.304  0.00  0.00     0.123 A 
ATOM     27  C   UNL d   1      52.847  28.995  54.013  0.00  0.00     0.029 A 
ATOM     28  C   UNL d   1      53.319  29.578  54.243  0.00  0.00     0.028 A 
ENDBRANCH  23  24
ENDBRANCH  22  23
ENDBRANCH   3  22
TORSDOF 6
ENDMDL
MODEL 5
REMARK VINA RESULT:      -6.8      1.085      4.169
REMARK  6 active torsions:
REMARK  status: ('A' for Active; 'I' for Inactive)
REMARK    1  A    between atoms: N_3  and  S_1 
REMARK    2  A    between atoms: C_7  and  S_1 
REMARK    3  A    between atoms: C_2  and  N_3 
REMARK    4  A    between atoms: N_8  and  C_5 
REMARK    5  A    between atoms: C_20  and  N_8 
REMARK    6  A    between atoms: C_13  and  C_20 
ROOT
ATOM      1  C   UNL d   1      53.308  31.869  53.231  0.00  0.00     0.211 A 
ATOM      2  N   UNL d   1      53.737  31.201  53.484  0.00  0.00    -0.222 NA
ATOM      3  C   UNL d   1      52.502  31.789  53.034  0.00  0.00     0.200 A 
ATOM      4  N   UNL d   1      52.148  31.057  53.093  0.00  0.00    -0.223 NA
ATOM      5  C   UNL d   1      53.373  30.462  53.541  0.00  0.00     0.101 A 
ATOM      6  C   UNL d   1      52.566  30.397  53.340  0.00  0.00     0.101 A 
ATOM      7  C   UNL d   1      52.184  29.636  53.397  0.00  0.00     0.021 A 
ATOM      8  C   UNL d   1      53.803  29.778  53.797  0.00  0.00     0.021 A 
ATOM      9  C   UNL d   1      52.631  28.974  53.653  0.00  0.00     0.002 A 
ATOM     10  C   UNL d   1      53.438  29.055  53.850  0.00  0.00     0.002 A 
ENDROOT
BRANCH   1  11
ATOM     11  N   UNL d   1      53.614  32.572  53.166  0.00  0.00    -0.136 NA
BRANCH  11  12
ATOM     12  S   UNL d   1      54.272  32.837  53.553  0.00  0.00     0.287 S 
ATOM     13  O   UNL d   1      55.072  33.018  53.820  0.00  0.00    -0.198 OA
ATOM     14  O   UNL d   1      54.539  32.404  52.930  0.00  0.00    -0.198 OA
BRANCH  12  15
ATOM     15  C   UNL d   1      54.329  33.298  54.217  0.00  0.00     0.105 A 
ATOM     16  C   UNL d   1      54.012  34.051  54.226  0.00  0.00     0.013 A 
ATOM     17  C   UNL d   1      54.059  34.549  54.904  0.00  0.00     0.001 A 
ATOM     18  C   UNL d   1      54.449  34.253  55.593  0.00  0.00     0.000 A 
ATOM     19  C   UNL d   1      54.770  33.500  55.594  0.00  0.00     0.001 A 
ATOM     20  C   UNL d   1      54.523  34.694  56.277  0.00  0.00     0.000 C 
ATOM     21  C   UNL d   1      54.712  33.014  54.902  0.00  0.00     0.013 A 
ENDBRANCH  12  15
ENDBRANCH  11  12
ENDBRANCH   1  11
BRANCH   3  22
ATOM     22  N   UNL d   1      52.129  32.445  52.799  0.00  0.00    -0.221 NA
BRANCH  22  23
ATOM     23  C   UNL d   1      51.368  32.584  52.653  0.00  0.00     0.125 C 
BRANCH  23  24
ATOM     24  C   UNL d   1      51.120  33.329  52.571  0.00  0.00     0.119 A 
ATOM     25  O   UNL d   1      51.307  33.824  51.988  0.00  0.00    -0.304 OA
ATOM     26  C   UNL d   1      50.948  34.496  52.116  0.00  0.00     0.123 A 
ATOM     27  C   UNL d   1      50.532  34.432  52.781  0.00  0.00     0.029 A 
ATOM     28  C   UNL d   1      50.638  33.708  53.064  0.00  0.00     0.028 A 
ENDBRANCH  23  24
ENDBRANCH  22  23
ENDBRANCH   3  22
TORSDOF 6
ENDMDL
