MODEL 1
REMARK VINA RESULT:      -8.8      0.000      0.000
REMARK  4 active torsions:
REMARK  status: ('A' for Active; 'I' for Inactive)
REMARK    1  A    between atoms: C_7  and  N_1 
REMARK    2  A    between atoms: C_12  and  N_4 
REMARK    3  A    between atoms: C_8  and  C_7 
REMARK    4  A    between atoms: C_16  and  C_12 
ROOT
ATOM      1  N   UNL d   1      53.168  33.840  53.889  0.00  0.00    -0.273 N 
ATOM      2  C   UNL d   1      53.558  33.908  54.628  0.00  0.00     0.153 A 
ATOM      3  S   UNL d   1      54.092  33.335  54.859  0.00  0.00    -0.039 SA
ATOM      4  N   UNL d   1      53.863  32.624  53.634  0.00  0.00    -0.281 N 
ATOM      5  C   UNL d   1      53.321  33.202  53.397  0.00  0.00     0.168 A 
ATOM      6  C   UNL d   1      54.253  32.691  54.372  0.00  0.00     0.120 A 
ATOM      7  S   UNL d   1      53.398  34.559  55.123  0.00  0.00    -0.052 SA
ENDROOT
BRANCH   4   8
ATOM      8  C   UNL d   1      54.025  31.980  53.150  0.00  0.00     0.101 C 
BRANCH   8   9
ATOM      9  C   UNL d   1      53.604  31.278  53.247  0.00  0.00     0.099 A 
ATOM     10  N   UNL d   1      52.993  31.107  52.714  0.00  0.00    -0.242 NA
ATOM     11  C   UNL d   1      52.564  30.403  52.805  0.00  0.00     0.099 A 
ATOM     12  C   UNL d   1      52.749  29.882  53.420  0.00  0.00     0.021 A 
ATOM     13  C   UNL d   1      53.362  30.065  53.946  0.00  0.00     0.003 A 
ATOM     14  C   UNL d   1      53.783  30.759  53.856  0.00  0.00     0.021 A 
ENDBRANCH   8   9
ENDBRANCH   4   8
BRANCH   1  15
ATOM     15  C   UNL d   1      52.628  34.427  53.665  0.00  0.00     0.107 C 
BRANCH  15  16
ATOM     16  C   UNL d   1      51.929  34.230  53.268  0.00  0.00     0.118 A 
ATOM     17  O   UNL d   1      51.274  33.849  53.604  0.00  0.00    -0.304 OA
ATOM     18  C   UNL d   1      50.708  33.766  53.009  0.00  0.00     0.123 A 
ATOM     19  C   UNL d   1      51.004  34.089  52.323  0.00  0.00     0.029 A 
ATOM     20  C   UNL d   1      51.761  34.377  52.481  0.00  0.00     0.028 A 
ENDBRANCH  15  16
ENDBRANCH   1  15
TORSDOF 4
ENDMDL
MODEL 2
REMARK VINA RESULT:      -7.8      1.382      2.399
REMARK  4 active torsions:
REMARK  status: ('A' for Active; 'I' for Inactive)
REMARK    1  A    between atoms: C_7  and  N_1 
REMARK    2  A    between atoms: C_12  and  N_4 
REMARK    3  A    between atoms: C_8  and  C_7 
REMARK    4  A    between atoms: C_16  and  C_12 
ROOT
ATOM      1  N   UNL d   1      52.904  33.520  53.752  0.00  0.00    -0.273 N 
ATOM      2  C   UNL d   1      52.118  33.660  53.499  0.00  0.00     0.153 A 
ATOM      3  S   UNL d   1      51.752  33.131  52.997  0.00  0.00    -0.039 SA
ATOM      4  N   UNL d   1      52.935  32.317  52.989  0.00  0.00    -0.281 N 
ATOM      5  C   UNL d   1      53.308  32.852  53.498  0.00  0.00     0.168 A 
ATOM      6  C   UNL d   1      52.148  32.458  52.736  0.00  0.00     0.120 A 
ATOM      7  S   UNL d   1      51.714  34.341  53.761  0.00  0.00    -0.052 SA
ENDROOT
BRANCH   4   8
ATOM      8  C   UNL d   1      53.327  31.645  52.728  0.00  0.00     0.101 C 
BRANCH   8   9
ATOM      9  C   UNL d   1      53.202  30.924  53.105  0.00  0.00     0.099 A 
ATOM     10  N   UNL d   1      53.747  30.676  53.677  0.00  0.00    -0.242 NA
ATOM     11  C   UNL d   1      53.628  29.951  54.061  0.00  0.00     0.099 A 
ATOM     12  C   UNL d   1      52.971  29.485  53.871  0.00  0.00     0.021 A 
ATOM     13  C   UNL d   1      52.434  29.744  53.298  0.00  0.00     0.003 A 
ATOM     14  C   UNL d   1      52.552  30.458  52.920  0.00  0.00     0.021 A 
ENDBRANCH   8   9
ENDBRANCH   4   8
BRANCH   1  15
ATOM     15  C   UNL d   1      53.266  34.064  54.261  0.00  0.00     0.107 C 
BRANCH  15  16
ATOM     16  C   UNL d   1      53.916  33.845  54.723  0.00  0.00     0.118 A 
ATOM     17  O   UNL d   1      53.881  33.438  55.445  0.00  0.00    -0.304 OA
ATOM     18  C   UNL d   1      54.657  33.339  55.708  0.00  0.00     0.123 A 
ATOM     19  C   UNL d   1      55.160  33.674  55.163  0.00  0.00     0.029 A 
ATOM     20  C   UNL d   1      54.703  33.988  54.552  0.00  0.00     0.028 A 
ENDBRANCH  15  16
ENDBRANCH   1  15
TORSDOF 4
ENDMDL
MODEL 3
REMARK VINA RESULT:      -7.7      1.085      3.227
REMARK  4 active torsions:
REMARK  status: ('A' for Active; 'I' for Inactive)
REMARK    1  A    between atoms: C_7  and  N_1 
REMARK    2  A    between atoms: C_12  and  N_4 
REMARK    3  A    between atoms: C_8  and  C_7 
REMARK    4  A    between atoms: C_16  and  C_12 
ROOT
ATOM      1  N   UNL d   1      53.782  33.095  53.916  0.00  0.00    -0.273 N 
ATOM      2  C   UNL d   1      53.905  33.437  54.671  0.00  0.00     0.153 A 
ATOM      3  S   UNL d   1      53.600  34.177  54.836  0.00  0.00    -0.039 SA
ATOM      4  N   UNL d   1      53.051  34.248  53.512  0.00  0.00    -0.281 N 
ATOM      5  C   UNL d   1      53.358  33.499  53.342  0.00  0.00     0.168 A 
ATOM      6  C   UNL d   1      53.173  34.591  54.267  0.00  0.00     0.120 A 
ATOM      7  S   UNL d   1      54.337  33.020  55.249  0.00  0.00    -0.052 SA
ENDROOT
BRANCH   4   8
ATOM      8  C   UNL d   1      52.625  34.664  52.946  0.00  0.00     0.101 C 
BRANCH   8   9
ATOM      9  C   UNL d   1      51.833  34.479  52.811  0.00  0.00     0.099 A 
ATOM     10  N   UNL d   1      51.617  34.180  52.069  0.00  0.00    -0.242 NA
ATOM     11  C   UNL d   1      50.823  33.991  51.926  0.00  0.00     0.099 A 
ATOM     12  C   UNL d   1      50.258  34.102  52.519  0.00  0.00     0.021 A 
ATOM     13  C   UNL d   1      50.486  34.402  53.255  0.00  0.00     0.003 A 
ATOM     14  C   UNL d   1      51.268  34.587  53.397  0.00  0.00     0.021 A 
ENDBRANCH   8   9
ENDBRANCH   4   8
BRANCH   1  15
ATOM     15  C   UNL d   1      54.095  32.345  53.759  0.00  0.00     0.107 C 
BRANCH  15  16
ATOM     16  C   UNL d   1      53.617  31.740  53.457  0.00  0.00     0.118 A 
ATOM     17  O   UNL d   1      53.439  31.620  52.656  0.00  0.00    -0.304 OA
ATOM     18  C   UNL d   1      52.948  30.958  52.612  0.00  0.00     0.123 A 
ATOM     19  C   UNL d   1      52.826  30.675  53.365  0.00  0.00     0.029 A 
ATOM     20  C   UNL d   1      53.239  31.158  53.890  0.00  0.00     0.028 A 
ENDBRANCH  15  16
ENDBRANCH   1  15
TORSDOF 4
ENDMDL
MODEL 4
REMARK VINA RESULT:      -7.7      1.707      3.688
REMARK  4 active torsions:
REMARK  status: ('A' for Active; 'I' for Inactive)
REMARK    1  A    between atoms: C_7  and  N_1 
REMARK    2  A    between atoms: C_12  and  N_4 
REMARK    3  A    between atoms: C_8  and  C_7 
REMARK    4  A    between atoms: C_16  and  C_12 
ROOT
ATOM      1  N   UNL d   1      53.424  32.282  53.863  0.00  0.00    -0.273 N 
ATOM      2  C   UNL d   1      53.188  31.572  53.485  0.00  0.00     0.153 A 
ATOM      3  S   UNL d   1      52.723  31.604  52.815  0.00  0.00    -0.039 SA
ATOM      4  N   UNL d   1      52.719  33.038  52.884  0.00  0.00    -0.281 N 
ATOM      5  C   UNL d   1      53.191  33.008  53.563  0.00  0.00     0.168 A 
ATOM      6  C   UNL d   1      52.483  32.328  52.506  0.00  0.00     0.120 A 
ATOM      7  S   UNL d   1      53.429  30.837  53.796  0.00  0.00    -0.052 SA
ENDROOT
BRANCH   4   8
ATOM      8  C   UNL d   1      52.478  33.759  52.573  0.00  0.00     0.101 C 
BRANCH   8   9
ATOM      9  C   UNL d   1      51.702  34.013  52.680  0.00  0.00     0.099 A 
ATOM     10  N   UNL d   1      51.502  34.385  53.393  0.00  0.00    -0.242 NA
ATOM     11  C   UNL d   1      50.723  34.644  53.509  0.00  0.00     0.099 A 
ATOM     12  C   UNL d   1      50.157  34.529  52.917  0.00  0.00     0.021 A 
ATOM     13  C   UNL d   1      50.369  34.156  52.210  0.00  0.00     0.003 A 
ATOM     14  C   UNL d   1      51.137  33.901  52.096  0.00  0.00     0.021 A 
ENDBRANCH   8   9
ENDBRANCH   4   8
BRANCH   1  15
ATOM     15  C   UNL d   1      53.896  32.238  54.542  0.00  0.00     0.107 C 
BRANCH  15  16
ATOM     16  C   UNL d   1      54.403  32.858  54.748  0.00  0.00     0.118 A 
ATOM     17  O   UNL d   1      55.080  33.088  54.328  0.00  0.00    -0.304 OA
ATOM     18  C   UNL d   1      55.412  33.727  54.731  0.00  0.00     0.123 A 
ATOM     19  C   UNL d   1      54.954  33.888  55.384  0.00  0.00     0.029 A 
ATOM     20  C   UNL d   1      54.328  33.352  55.396  0.00  0.00     0.028 A 
ENDBRANCH  15  16
ENDBRANCH   1  15
TORSDOF 4
ENDMDL
MODEL 5
REMARK VINA RESULT:      -6.9      1.591      3.273
REMARK  4 active torsions:
REMARK  status: ('A' for Active; 'I' for Inactive)
REMARK    1  A    between atoms: C_7  and  N_1 
REMARK    2  A    between atoms: C_12  and  N_4 
REMARK    3  A    between atoms: C_8  and  C_7 
REMARK    4  A    between atoms: C_16  and  C_12 
ROOT
ATOM      1  N   UNL d   1      51.966  33.308  53.182  0.00  0.00    -0.273 N 
ATOM      2  C   UNL d   1      51.815  34.020  52.768  0.00  0.00     0.153 A 
ATOM      3  S   UNL d   1      52.047  34.734  53.089  0.00  0.00    -0.039 SA
ATOM      4  N   UNL d   1      52.580  34.048  54.232  0.00  0.00    -0.281 N 
ATOM      5  C   UNL d   1      52.346  33.324  53.908  0.00  0.00     0.168 A 
ATOM      6  C   UNL d   1      52.429  34.761  53.818  0.00  0.00     0.120 A 
ATOM      7  S   UNL d   1      51.428  33.996  52.029  0.00  0.00    -0.052 SA
ENDROOT
BRANCH   4   8
ATOM      8  C   UNL d   1      52.962  34.078  54.958  0.00  0.00     0.101 C 
BRANCH   8   9
ATOM      9  C   UNL d   1      53.778  33.975  54.998  0.00  0.00     0.099 A 
ATOM     10  N   UNL d   1      54.268  34.581  54.715  0.00  0.00    -0.242 NA
ATOM     11  C   UNL d   1      55.091  34.484  54.752  0.00  0.00     0.099 A 
ATOM     12  C   UNL d   1      55.412  33.790  55.067  0.00  0.00     0.021 A 
ATOM     13  C   UNL d   1      54.913  33.193  55.346  0.00  0.00     0.003 A 
ATOM     14  C   UNL d   1      54.102  33.288  55.310  0.00  0.00     0.021 A 
ENDBRANCH   8   9
ENDBRANCH   4   8
BRANCH   1  15
ATOM     15  C   UNL d   1      51.726  32.589  52.847  0.00  0.00     0.107 C 
BRANCH  15  16
ATOM     16  C   UNL d   1      52.216  31.923  52.877  0.00  0.00     0.118 A 
ATOM     17  O   UNL d   1      52.942  31.839  52.487  0.00  0.00    -0.304 OA
ATOM     18  C   UNL d   1      53.234  31.090  52.673  0.00  0.00     0.123 A 
ATOM     19  C   UNL d   1      52.703  30.719  53.164  0.00  0.00     0.029 A 
ATOM     20  C   UNL d   1      52.071  31.233  53.292  0.00  0.00     0.028 A 
ENDBRANCH  15  16
ENDBRANCH   1  15
TORSDOF 4
ENDMDL
MODEL 6
REMARK VINA RESULT:      -6.7      1.457      2.811
REMARK  4 active torsions:
REMARK  status: ('A' for Active; 'I' for Inactive)
REMARK    1  A    between atoms: C_7  and  N_1 
REMARK    2  A    between atoms: C_12  and  N_4 
REMARK    3  A    between atoms: C_8  and  C_7 
REMARK    4  A    between atoms: C_16  and  C_12 
ROOT
ATOM      1  N   UNL d   1      52.536  32.021  53.085  0.00  0.00    -0.273 N 
ATOM      2  C   UNL d   1      52.790  31.225  53.159  0.00  0.00     0.153 A 
ATOM      3  S   UNL d   1      53.564  31.063  53.358  0.00  0.00    -0.039 SA
ATOM      4  N   UNL d   1      53.846  32.469  53.416  0.00  0.00    -0.281 N 
ATOM      5  C   UNL d   1      53.062  32.637  53.214  0.00  0.00     0.168 A 
ATOM      6  C   UNL d   1      54.100  31.674  53.489  0.00  0.00     0.120 A 
ATOM      7  S   UNL d   1      52.249  30.604  53.027  0.00  0.00    -0.052 SA
ENDROOT
BRANCH   4   8
ATOM      8  C   UNL d   1      54.383  33.076  53.547  0.00  0.00     0.101 C 
BRANCH   8   9
ATOM      9  C   UNL d   1      54.411  33.449  54.281  0.00  0.00     0.099 A 
ATOM     10  N   UNL d   1      54.054  34.193  54.362  0.00  0.00    -0.242 NA
ATOM     11  C   UNL d   1      54.077  34.574  55.098  0.00  0.00     0.099 A 
ATOM     12  C   UNL d   1      54.453  34.212  55.739  0.00  0.00     0.021 A 
ATOM     13  C   UNL d   1      54.805  33.469  55.646  0.00  0.00     0.003 A 
ATOM     14  C   UNL d   1      54.782  33.094  54.921  0.00  0.00     0.021 A 
ENDBRANCH   8   9
ENDBRANCH   4   8
BRANCH   1  15
ATOM     15  C   UNL d   1      51.748  32.174  52.882  0.00  0.00     0.107 C 
BRANCH  15  16
ATOM     16  C   UNL d   1      51.490  32.947  52.735  0.00  0.00     0.118 A 
ATOM     17  O   UNL d   1      51.682  33.400  52.068  0.00  0.00    -0.304 OA
ATOM     18  C   UNL d   1      51.306  34.130  52.153  0.00  0.00     0.123 A 
ATOM     19  C   UNL d   1      50.892  34.128  52.853  0.00  0.00     0.029 A 
ATOM     20  C   UNL d   1      51.004  33.396  53.216  0.00  0.00     0.028 A 
ENDBRANCH  15  16
ENDBRANCH   1  15
TORSDOF 4
ENDMDL
