MODEL 1
REMARK VINA RESULT:      71.8      0.000      0.000
REMARK  4 active torsions:
REMARK  status: ('A' for Active; 'I' for Inactive)
REMARK    1  A    between atoms: N_10  and  C_3 
REMARK    2  A    between atoms: C_11  and  C_4 
REMARK    3  A    between atoms: C_17  and  N_10 
REMARK       I    between atoms: C_12  and  N_13 
REMARK    4  A    between atoms: N_13  and  C_18 
ROOT
ATOM      1  C   UNL d   1      14.223  14.295  -2.789  0.00  0.00     0.168 A 
ATOM      2  N   UNL d   1      14.262  14.953  -3.312  0.00  0.00    -0.184 N 
ATOM      3  C   UNL d   1      13.933  14.887  -4.034  0.00  0.00     0.218 A 
ATOM      4  C   UNL d   1      14.549  14.345  -2.059  0.00  0.00     0.057 A 
ATOM      5  N   UNL d   1      14.960  15.676  -2.330  0.00  0.00    -0.160 NA
ATOM      6  N   UNL d   1      13.857  13.618  -3.023  0.00  0.00    -0.227 NA
ATOM      7  C   UNL d   1      13.561  14.207  -4.280  0.00  0.00     0.071 A 
ATOM      8  C   UNL d   1      14.921  15.039  -1.823  0.00  0.00     0.124 A 
ATOM      9  C   UNL d   1      13.522  13.560  -3.765  0.00  0.00     0.087 A 
ATOM     10  C   UNL d   1      13.136  12.845  -4.013  0.00  0.00     0.021 C 
ENDROOT
BRANCH   3  11
ATOM     11  N   UNL d   1      13.970  15.548  -4.566  0.00  0.00    -0.383 NA
BRANCH  11  12
ATOM     12  C   UNL d   1      13.992  16.263  -5.003  0.00  0.00     0.134 A 
ATOM     13  C   UNL d   1      14.628  16.795  -4.922  0.00  0.00     0.034 A 
ATOM     14  C   UNL d   1      14.641  17.524  -5.374  0.00  0.00     0.022 A 
ATOM     15  C   UNL d   1      14.011  17.705  -5.901  0.00  0.00     0.085 A 
ATOM     16  C   UNL d   1      13.363  17.169  -5.987  0.00  0.00     0.022 A 
ATOM     17  C   UNL d   1      13.346  16.441  -5.538  0.00  0.00     0.034 A 
BRANCH  15  18
ATOM     18  N   UNL d   1      14.024  18.424  -6.346  0.00  0.00    -0.208 NA
ATOM     19  C   UNL d   1      14.052  19.169  -5.950  0.00  0.00     0.279 C 
ATOM     20  O   UNL d   1      14.066  19.881  -6.387  0.00  0.00    -0.265 OA
ATOM     21  C   UNL d   1      14.067  19.196  -5.104  0.00  0.00     0.068 C 
ENDBRANCH  15  18
ENDBRANCH  11  12
ENDBRANCH   3  11
BRANCH   4  22
ATOM     22  C   UNL d   1      14.510  13.708  -1.551  0.00  0.00     0.005 A 
ATOM     23  C   UNL d   1      14.741  12.980  -1.804  0.00  0.00     0.001 A 
ATOM     24  C   UNL d   1      14.703  12.344  -1.298  0.00  0.00     0.011 A 
ATOM     25  C   UNL d   1      14.435  12.446  -0.546  0.00  0.00     0.058 A 
ATOM     26  C   UNL d   1      14.205  13.184  -0.301  0.00  0.00     0.011 A 
ATOM     27 CL   UNL d   1      14.395  11.779  -0.015  0.00  0.00    -0.082 Cl
ATOM     28  C   UNL d   1      14.242  13.810  -0.799  0.00  0.00     0.001 A 
ENDBRANCH   4  22
TORSDOF 4
ENDMDL
MODEL 2
REMARK VINA RESULT:      74.6      0.772      1.771
REMARK  4 active torsions:
REMARK  status: ('A' for Active; 'I' for Inactive)
REMARK    1  A    between atoms: N_10  and  C_3 
REMARK    2  A    between atoms: C_11  and  C_4 
REMARK    3  A    between atoms: C_17  and  N_10 
REMARK       I    between atoms: C_12  and  N_13 
REMARK    4  A    between atoms: N_13  and  C_18 
ROOT
ATOM      1  C   UNL d   1      14.483  14.575  -2.513  0.00  0.00     0.168 A 
ATOM      2  N   UNL d   1      14.429  15.098  -3.169  0.00  0.00    -0.184 N 
ATOM      3  C   UNL d   1      14.696  15.844  -3.088  0.00  0.00     0.218 A 
ATOM      4  C   UNL d   1      14.218  13.822  -2.578  0.00  0.00     0.057 A 
ATOM      5  N   UNL d   1      13.841  14.069  -3.924  0.00  0.00    -0.160 NA
ATOM      6  N   UNL d   1      14.801  14.834  -1.820  0.00  0.00    -0.227 NA
ATOM      7  C   UNL d   1      15.019  16.114  -2.392  0.00  0.00     0.071 A 
ATOM      8  C   UNL d   1      13.894  13.562  -3.287  0.00  0.00     0.124 A 
ATOM      9  C   UNL d   1      15.073  15.600  -1.746  0.00  0.00     0.087 A 
ATOM     10  C   UNL d   1      15.408  15.873  -1.015  0.00  0.00     0.021 C 
ENDROOT
BRANCH   3  11
ATOM     11  N   UNL d   1      14.644  16.375  -3.748  0.00  0.00    -0.383 NA
BRANCH  11  12
ATOM     12  C   UNL d   1      14.570  16.977  -4.327  0.00  0.00     0.134 A 
ATOM     13  C   UNL d   1      14.107  16.861  -5.009  0.00  0.00     0.034 A 
ATOM     14  C   UNL d   1      14.038  17.484  -5.595  0.00  0.00     0.022 A 
ATOM     15  C   UNL d   1      14.438  18.216  -5.482  0.00  0.00     0.085 A 
ATOM     16  C   UNL d   1      14.909  18.339  -4.791  0.00  0.00     0.022 A 
ATOM     17  C   UNL d   1      14.980  17.721  -4.205  0.00  0.00     0.034 A 
BRANCH  15  18
ATOM     18  N   UNL d   1      14.369  18.829  -6.060  0.00  0.00    -0.208 NA
ATOM     19  C   UNL d   1      14.233  19.627  -5.820  0.00  0.00     0.279 C 
ATOM     20  O   UNL d   1      14.165  20.235  -6.389  0.00  0.00    -0.265 OA
ATOM     21  C   UNL d   1      14.166  19.813  -4.997  0.00  0.00     0.068 C 
ENDBRANCH  15  18
ENDBRANCH  11  12
ENDBRANCH   3  11
BRANCH   4  22
ATOM     22  C   UNL d   1      14.270  13.316  -1.942  0.00  0.00     0.005 A 
ATOM     23  C   UNL d   1      14.131  13.590  -1.198  0.00  0.00     0.001 A 
ATOM     24  C   UNL d   1      14.184  13.084  -0.562  0.00  0.00     0.011 A 
ATOM     25  C   UNL d   1      14.374  12.311  -0.680  0.00  0.00     0.058 A 
ATOM     26  C   UNL d   1      14.512  12.045  -1.434  0.00  0.00     0.011 A 
ATOM     27 CL   UNL d   1      14.429  11.781  -0.014  0.00  0.00    -0.082 Cl
ATOM     28  C   UNL d   1      14.461  12.543  -2.059  0.00  0.00     0.001 A 
ENDBRANCH   4  22
TORSDOF 4
ENDMDL
