MODEL 1
REMARK VINA RESULT:      -5.0      0.000      0.000
REMARK  4 active torsions:
REMARK  status: ('A' for Active; 'I' for Inactive)
REMARK    1  A    between atoms: N_2  and  C_1 
REMARK    2  A    between atoms: C_4  and  C_8 
REMARK       I    between atoms: N_5  and  C_4 
REMARK    3  A    between atoms: C_9  and  C_7 
REMARK    4  A    between atoms: C_8  and  C_9 
ROOT
ATOM      1  C   UNL d   1     -41.757-122.684 -51.488  0.00  0.00     0.062 C 
ENDROOT
BRANCH   1   2
ATOM      2  C   UNL d   1     -41.660-122.469 -50.717  0.00  0.00     0.265 C 
ATOM      3  N   UNL d   1     -42.090-122.842 -50.127  0.00  0.00    -0.272 N 
ATOM      4  C   UNL d   1     -42.623-123.438 -50.319  0.00  0.00     0.083 A 
ATOM      5  C   UNL d   1     -41.991-122.621 -49.330  0.00  0.00     0.083 A 
ATOM      6  C   UNL d   1     -43.058-123.818 -49.734  0.00  0.00     0.019 A 
ATOM      7  C   UNL d   1     -42.962-123.601 -48.946  0.00  0.00     0.003 A 
ATOM      8  C   UNL d   1     -42.429-123.002 -48.743  0.00  0.00     0.019 A 
ATOM      9  O   UNL d   1     -41.129-121.874 -50.528  0.00  0.00    -0.267 OA
ENDBRANCH   1   2
BRANCH   1  10
ATOM     10  C   UNL d   1     -41.244-122.318 -52.087  0.00  0.00     0.011 C 
BRANCH  10  11
ATOM     11  C   UNL d   1     -41.383-122.444 -52.911  0.00  0.00     0.031 A 
ATOM     12  S   UNL d   1     -41.792-121.950 -53.385  0.00  0.00    -0.064 SA
ATOM     13  C   UNL d   1     -41.793-122.284 -54.143  0.00  0.00     0.156 A 
ATOM     14  C   UNL d   1     -41.370-122.991 -54.095  0.00  0.00     0.031 A 
ATOM     15  C   UNL d   1     -41.129-123.078 -53.353  0.00  0.00     0.009 A 
BRANCH  13  16
ATOM     16  N   UNL d   1     -42.153-121.973 -54.842  0.00  0.00    -0.107 N 
ATOM     17  O   UNL d   1     -41.670-121.700 -55.477  0.00  0.00    -0.531 OA
ATOM     18  O   UNL d   1     -42.992-121.932 -54.911  0.00  0.00    -0.531 OA
ENDBRANCH  13  16
ENDBRANCH  10  11
ENDBRANCH   1  10
TORSDOF 4
ENDMDL
MODEL 2
REMARK VINA RESULT:      -4.8      1.655      4.487
REMARK  4 active torsions:
REMARK  status: ('A' for Active; 'I' for Inactive)
REMARK    1  A    between atoms: N_2  and  C_1 
REMARK    2  A    between atoms: C_4  and  C_8 
REMARK       I    between atoms: N_5  and  C_4 
REMARK    3  A    between atoms: C_9  and  C_7 
REMARK    4  A    between atoms: C_8  and  C_9 
ROOT
ATOM      1  C   UNL d   1     -41.257-122.785 -51.996  0.00  0.00     0.062 C 
ENDROOT
BRANCH   1   2
ATOM      2  C   UNL d   1     -41.280-122.318 -52.653  0.00  0.00     0.265 C 
ATOM      3  N   UNL d   1     -41.355-122.655 -53.396  0.00  0.00    -0.272 N 
ATOM      4  C   UNL d   1     -41.409-123.471 -53.476  0.00  0.00     0.083 A 
ATOM      5  C   UNL d   1     -41.378-122.174 -54.076  0.00  0.00     0.083 A 
ATOM      6  C   UNL d   1     -41.485-123.817 -54.218  0.00  0.00     0.019 A 
ATOM      7  C   UNL d   1     -41.508-123.345 -54.891  0.00  0.00     0.003 A 
ATOM      8  C   UNL d   1     -41.455-122.522 -54.820  0.00  0.00     0.019 A 
ATOM      9  O   UNL d   1     -41.226-121.504 -52.571  0.00  0.00    -0.267 OA
ENDBRANCH   1   2
BRANCH   1  10
ATOM     10  C   UNL d   1     -41.313-122.405 -51.216  0.00  0.00     0.011 C 
BRANCH  10  11
ATOM     11  C   UNL d   1     -41.515-122.853 -50.529  0.00  0.00     0.031 A 
ATOM     12  S   UNL d   1     -42.133-122.698 -50.049  0.00  0.00    -0.064 SA
ATOM     13  C   UNL d   1     -42.126-123.270 -49.449  0.00  0.00     0.156 A 
ATOM     14  C   UNL d   1     -41.482-123.765 -49.597  0.00  0.00     0.031 A 
ATOM     15  C   UNL d   1     -41.123-123.507 -50.245  0.00  0.00     0.009 A 
BRANCH  13  16
ATOM     16  N   UNL d   1     -42.667-123.345 -48.804  0.00  0.00    -0.107 N 
ATOM     17  O   UNL d   1     -43.364-123.811 -48.894  0.00  0.00    -0.531 OA
ATOM     18  O   UNL d   1     -42.517-122.959 -48.070  0.00  0.00    -0.531 OA
ENDBRANCH  13  16
ENDBRANCH  10  11
ENDBRANCH   1  10
TORSDOF 4
ENDMDL
MODEL 3
REMARK VINA RESULT:      -3.7      1.458      1.946
REMARK  4 active torsions:
REMARK  status: ('A' for Active; 'I' for Inactive)
REMARK    1  A    between atoms: N_2  and  C_1 
REMARK    2  A    between atoms: C_4  and  C_8 
REMARK       I    between atoms: N_5  and  C_4 
REMARK    3  A    between atoms: C_9  and  C_7 
REMARK    4  A    between atoms: C_8  and  C_9 
ROOT
ATOM      1  C   UNL d   1     -41.910-123.185 -49.927  0.00  0.00     0.062 C 
ENDROOT
BRANCH   1   2
ATOM      2  C   UNL d   1     -42.377-123.007 -49.295  0.00  0.00     0.265 C 
ATOM      3  N   UNL d   1     -42.142-123.215 -48.537  0.00  0.00    -0.272 N 
ATOM      4  C   UNL d   1     -41.429-123.605 -48.419  0.00  0.00     0.083 A 
ATOM      5  C   UNL d   1     -42.623-123.032 -47.882  0.00  0.00     0.083 A 
ATOM      6  C   UNL d   1     -41.185-123.817 -47.663  0.00  0.00     0.019 A 
ATOM      7  C   UNL d   1     -41.659-123.637 -47.014  0.00  0.00     0.003 A 
ATOM      8  C   UNL d   1     -42.379-123.244 -47.123  0.00  0.00     0.019 A 
ATOM      9  O   UNL d   1     -43.088-122.618 -49.415  0.00  0.00    -0.267 OA
ENDBRANCH   1   2
BRANCH   1  10
ATOM     10  C   UNL d   1     -41.927-122.655 -50.616  0.00  0.00     0.011 C 
BRANCH  10  11
ATOM     11  C   UNL d   1     -41.657-122.918 -51.372  0.00  0.00     0.031 A 
ATOM     12  S   UNL d   1     -41.724-122.503 -52.050  0.00  0.00    -0.064 SA
ATOM     13  C   UNL d   1     -41.390-122.964 -52.653  0.00  0.00     0.156 A 
ATOM     14  C   UNL d   1     -41.125-123.663 -52.302  0.00  0.00     0.031 A 
ATOM     15  C   UNL d   1     -41.290-123.626 -51.535  0.00  0.00     0.009 A 
BRANCH  13  16
ATOM     16  N   UNL d   1     -41.325-122.770 -53.473  0.00  0.00    -0.107 N 
ATOM     17  O   UNL d   1     -41.463-123.362 -54.057  0.00  0.00    -0.531 OA
ATOM     18  O   UNL d   1     -41.123-121.988 -53.714  0.00  0.00    -0.531 OA
ENDBRANCH  13  16
ENDBRANCH  10  11
ENDBRANCH   1  10
TORSDOF 4
ENDMDL
MODEL 4
REMARK VINA RESULT:      -2.7      1.391      1.807
REMARK  4 active torsions:
REMARK  status: ('A' for Active; 'I' for Inactive)
REMARK    1  A    between atoms: N_2  and  C_1 
REMARK    2  A    between atoms: C_4  and  C_8 
REMARK       I    between atoms: N_5  and  C_4 
REMARK    3  A    between atoms: C_9  and  C_7 
REMARK    4  A    between atoms: C_8  and  C_9 
ROOT
ATOM      1  C   UNL d   1     -41.636-122.537 -52.754  0.00  0.00     0.062 C 
ENDROOT
BRANCH   1   2
ATOM      2  C   UNL d   1     -41.383-123.086 -52.221  0.00  0.00     0.265 C 
ATOM      3  N   UNL d   1     -41.384-122.915 -51.419  0.00  0.00    -0.272 N 
ATOM      4  C   UNL d   1     -41.644-122.181 -51.155  0.00  0.00     0.083 A 
ATOM      5  C   UNL d   1     -41.123-123.481 -50.867  0.00  0.00     0.083 A 
ATOM      6  C   UNL d   1     -41.649-122.001 -50.353  0.00  0.00     0.019 A 
ATOM      7  C   UNL d   1     -41.391-122.558 -49.805  0.00  0.00     0.003 A 
ATOM      8  C   UNL d   1     -41.128-123.299 -50.062  0.00  0.00     0.019 A 
ATOM      9  O   UNL d   1     -41.124-123.817 -52.486  0.00  0.00    -0.267 OA
ENDBRANCH   1   2
BRANCH   1  10
ATOM     10  C   UNL d   1     -41.408-122.634 -53.587  0.00  0.00     0.011 C 
BRANCH  10  11
ATOM     11  C   UNL d   1     -41.851-122.263 -54.203  0.00  0.00     0.031 A 
ATOM     12  S   UNL d   1     -41.659-122.280 -54.978  0.00  0.00    -0.064 SA
ATOM     13  C   UNL d   1     -42.239-121.850 -55.383  0.00  0.00     0.156 A 
ATOM     14  C   UNL d   1     -42.778-121.581 -54.818  0.00  0.00     0.031 A 
ATOM     15  C   UNL d   1     -42.536-121.833 -54.115  0.00  0.00     0.009 A 
BRANCH  13  16
ATOM     16  N   UNL d   1     -42.286-121.706 -56.215  0.00  0.00    -0.107 N 
ATOM     17  O   UNL d   1     -41.704-121.225 -56.590  0.00  0.00    -0.531 OA
ATOM     18  O   UNL d   1     -42.909-122.039 -56.674  0.00  0.00    -0.531 OA
ENDBRANCH  13  16
ENDBRANCH  10  11
ENDBRANCH   1  10
TORSDOF 4
ENDMDL
