MODEL 1
REMARK VINA RESULT:       5.3      0.000      0.000
REMARK  1 active torsions:
REMARK  status: ('A' for Active; 'I' for Inactive)
REMARK    1  A    between atoms: C_6  and  C_3 
ROOT
ATOM      1  C   UNL d   1      44.538 -15.395  36.723  0.00  0.00     0.018 A 
ATOM      2  C   UNL d   1      45.208 -15.610  36.331  0.00  0.00     0.005 A 
ATOM      3  C   UNL d   1      44.546 -14.780  37.280  0.00  0.00     0.005 A 
ATOM      4  C   UNL d   1      45.933 -14.604  37.035  0.00  0.00     0.196 A 
ATOM      5  C   UNL d   1      45.924 -15.220  36.477  0.00  0.00     0.042 A 
ATOM      6  C   UNL d   1      45.261 -14.393  37.424  0.00  0.00     0.042 A 
ATOM      7  O   UNL d   1      46.645 -14.220  37.176  0.00  0.00    -0.287 OA
ENDROOT
BRANCH   1   8
ATOM      8  C   UNL d   1      43.825 -15.780  36.582  0.00  0.00     0.090 A 
ATOM      9  N   UNL d   1      43.118 -15.374  36.557  0.00  0.00    -0.219 NA
ATOM     10  C   UNL d   1      42.511 -15.903  36.407  0.00  0.00     0.215 A 
ATOM     11  S   UNL d   1      42.820 -16.627  36.337  0.00  0.00    -0.045 SA
ATOM     12  N   UNL d   1      41.695 -15.750  36.333  0.00  0.00    -0.120 N 
ATOM     13  C   UNL d   1      43.645 -16.573  36.443  0.00  0.00     0.058 A 
ENDBRANCH   1   8
TORSDOF 1
ENDMDL
MODEL 2
REMARK VINA RESULT:       6.3      7.593      8.075
REMARK  1 active torsions:
REMARK  status: ('A' for Active; 'I' for Inactive)
REMARK    1  A    between atoms: C_6  and  C_3 
ROOT
ATOM      1  C   UNL d   1      45.551 -14.397  44.314  0.00  0.00     0.018 A 
ATOM      2  C   UNL d   1      44.962 -14.753  44.733  0.00  0.00     0.005 A 
ATOM      3  C   UNL d   1      46.233 -14.814  44.094  0.00  0.00     0.005 A 
ATOM      4  C   UNL d   1      45.709 -15.968  44.734  0.00  0.00     0.196 A 
ATOM      5  C   UNL d   1      45.025 -15.549  44.954  0.00  0.00     0.042 A 
ATOM      6  C   UNL d   1      46.294 -15.607  44.316  0.00  0.00     0.042 A 
ATOM      7  O   UNL d   1      45.767 -16.757  44.955  0.00  0.00    -0.287 OA
ENDROOT
BRANCH   1   8
ATOM      8  C   UNL d   1      45.492 -13.607  44.093  0.00  0.00     0.090 A 
ATOM      9  N   UNL d   1      45.086 -13.380  43.423  0.00  0.00    -0.219 NA
ATOM     10  C   UNL d   1      45.125 -12.565  43.350  0.00  0.00     0.215 A 
ATOM     11  S   UNL d   1      45.544 -12.278  43.956  0.00  0.00    -0.045 SA
ATOM     12  N   UNL d   1      44.795 -12.081  42.757  0.00  0.00    -0.120 N 
ATOM     13  C   UNL d   1      45.784 -12.916  44.435  0.00  0.00     0.058 A 
ENDBRANCH   1   8
TORSDOF 1
ENDMDL
MODEL 3
REMARK VINA RESULT:       6.4      7.338      7.570
REMARK  1 active torsions:
REMARK  status: ('A' for Active; 'I' for Inactive)
REMARK    1  A    between atoms: C_6  and  C_3 
ROOT
ATOM      1  C   UNL d   1      46.473 -19.379  42.578  0.00  0.00     0.018 A 
ATOM      2  C   UNL d   1      46.647 -18.829  43.141  0.00  0.00     0.005 A 
ATOM      3  C   UNL d   1      46.228 -20.144  42.787  0.00  0.00     0.005 A 
ATOM      4  C   UNL d   1      46.338 -19.782  44.155  0.00  0.00     0.196 A 
ATOM      5  C   UNL d   1      46.584 -19.016  43.945  0.00  0.00     0.042 A 
ATOM      6  C   UNL d   1      46.166 -20.328  43.590  0.00  0.00     0.042 A 
ATOM      7  O   UNL d   1      46.277 -19.963  44.955  0.00  0.00    -0.287 OA
ENDROOT
BRANCH   1   8
ATOM      8  C   UNL d   1      46.535 -19.198  41.779  0.00  0.00     0.090 A 
ATOM      9  N   UNL d   1      46.528 -18.426  41.513  0.00  0.00    -0.219 NA
ATOM     10  C   UNL d   1      46.598 -18.423  40.698  0.00  0.00     0.215 A 
ATOM     11  S   UNL d   1      46.647 -19.171  40.446  0.00  0.00    -0.045 SA
ATOM     12  N   UNL d   1      46.617 -17.769  40.180  0.00  0.00    -0.120 N 
ATOM     13  C   UNL d   1      46.609 -19.674  41.109  0.00  0.00     0.058 A 
ENDBRANCH   1   8
TORSDOF 1
ENDMDL
