MODEL 1
REMARK VINA RESULT:      34.0      0.000      0.000
REMARK  7 active torsions:
REMARK  status: ('A' for Active; 'I' for Inactive)
REMARK    1  A    between atoms: C_6  and  N_1 
REMARK    2  A    between atoms: C_9  and  C_5 
REMARK    3  A    between atoms: C_7  and  C_6 
REMARK       I    between atoms: N_10  and  C_7 
REMARK    4  A    between atoms: C_12  and  C_9 
REMARK    5  A    between atoms: C_15  and  N_10 
REMARK    6  A    between atoms: C_14  and  C_12 
REMARK    7  A    between atoms: C_17  and  C_14 
ROOT
ATOM      1  N   UNL d   1      15.044  12.897  -0.490  0.00  0.00    -0.230 N 
ATOM      2  C   UNL d   1      15.676  12.390  -0.586  0.00  0.00     0.299 A 
ATOM      3  C   UNL d   1      14.419  12.615  -0.951  0.00  0.00     0.274 A 
ATOM      4  S   UNL d   1      15.445  11.799  -1.103  0.00  0.00    -0.022 SA
ATOM      5  C   UNL d   1      14.671  11.936  -1.328  0.00  0.00     0.090 A 
ATOM      6  O   UNL d   1      16.417  12.468  -0.222  0.00  0.00    -0.259 OA
ATOM      7  O   UNL d   1      13.679  12.955  -1.019  0.00  0.00    -0.266 OA
ENDROOT
BRANCH   1   8
ATOM      8  C   UNL d   1      15.036  13.571  -0.014  0.00  0.00     0.149 C 
BRANCH   8   9
ATOM      9  C   UNL d   1      15.268  14.304  -0.335  0.00  0.00     0.297 C 
ATOM     10  N   UNL d   1      14.709  14.900  -0.451  0.00  0.00    -0.207 NA
ATOM     11  O   UNL d   1      16.064  14.428  -0.536  0.00  0.00    -0.264 OA
BRANCH  10  12
ATOM     12  C   UNL d   1      14.941  15.626  -0.769  0.00  0.00     0.085 A 
ATOM     13  C   UNL d   1      15.675  15.953  -0.568  0.00  0.00     0.022 A 
ATOM     14  C   UNL d   1      15.908  16.678  -0.885  0.00  0.00     0.044 A 
ATOM     15  C   UNL d   1      15.403  17.081  -1.409  0.00  0.00     0.196 A 
ATOM     16  C   UNL d   1      14.666  16.753  -1.610  0.00  0.00     0.044 A 
ATOM     17  O   UNL d   1      15.636  17.810  -1.728  0.00  0.00    -0.287 OA
ATOM     18  C   UNL d   1      14.437  16.021  -1.287  0.00  0.00     0.022 A 
ENDBRANCH  10  12
ENDBRANCH   8   9
ENDBRANCH   1   8
BRANCH   5  19
ATOM     19  C   UNL d   1      13.950  11.828  -1.707  0.00  0.00     0.011 C 
BRANCH  19  20
ATOM     20  C   UNL d   1      13.921  11.787  -2.536  0.00  0.00     0.001 C 
BRANCH  20  21
ATOM     21  C   UNL d   1      13.199  11.862  -2.924  0.00  0.00     0.000 C 
BRANCH  21  22
ATOM     22  C   UNL d   1      13.161  12.226  -3.662  0.00  0.00     0.000 A 
ATOM     23  C   UNL d   1      13.188  13.053  -3.709  0.00  0.00     0.000 A 
ATOM     24  C   UNL d   1      13.151  13.425  -4.450  0.00  0.00     0.000 A 
ATOM     25  C   UNL d   1      13.088  12.970  -5.132  0.00  0.00     0.000 A 
ATOM     26  C   UNL d   1      13.061  12.141  -5.076  0.00  0.00     0.000 A 
ATOM     27  C   UNL d   1      13.098  11.781  -4.342  0.00  0.00     0.000 A 
ENDBRANCH  21  22
ENDBRANCH  20  21
ENDBRANCH  19  20
ENDBRANCH   5  19
TORSDOF 7
ENDMDL
