MODEL 1
REMARK VINA RESULT:      -5.3      0.000      0.000
REMARK  5 active torsions:
REMARK  status: ('A' for Active; 'I' for Inactive)
REMARK    1  A    between atoms: N_2  and  S_1 
REMARK    2  A    between atoms: C_3  and  S_1 
REMARK    3  A    between atoms: C_8  and  N_2 
REMARK    4  A    between atoms: C_12  and  C_8 
REMARK    5  A    between atoms: O_13  and  C_9 
ROOT
ATOM      1  S   UNL d   1      57.103  -0.352  31.282  0.00  0.00     0.285 S 
ATOM      2  O   UNL d   1      57.160   0.471  31.277  0.00  0.00    -0.198 OA
ATOM      3  O   UNL d   1      57.046  -1.184  31.287  0.00  0.00    -0.198 OA
ENDROOT
BRANCH   1   4
ATOM      4  N   UNL d   1      57.578  -0.389  30.608  0.00  0.00    -0.157 NA
BRANCH   4   5
ATOM      5  C   UNL d   1      58.172   0.168  30.492  0.00  0.00     0.112 C 
BRANCH   5   6
ATOM      6  C   UNL d   1      58.695   0.088  29.859  0.00  0.00     0.020 A 
ATOM      7  C   UNL d   1      58.420   0.160  29.089  0.00  0.00     0.002 A 
ATOM      8  C   UNL d   1      58.944   0.080  28.457  0.00  0.00     0.000 A 
ATOM      9  C   UNL d   1      59.740  -0.072  28.598  0.00  0.00     0.000 A 
ATOM     10  C   UNL d   1      60.008  -0.143  29.378  0.00  0.00     0.000 A 
ATOM     11  C   UNL d   1      59.484  -0.063  30.010  0.00  0.00     0.002 A 
ENDBRANCH   5   6
ENDBRANCH   4   5
ENDBRANCH   1   4
BRANCH   1  12
ATOM     12  C   UNL d   1      56.628  -0.316  31.956  0.00  0.00     0.105 A 
ATOM     13  C   UNL d   1      56.389   0.414  32.253  0.00  0.00     0.015 A 
ATOM     14  C   UNL d   1      55.911   0.451  32.929  0.00  0.00     0.025 A 
ATOM     15  C   UNL d   1      55.676  -0.242  33.306  0.00  0.00     0.094 A 
ATOM     16  C   UNL d   1      55.916  -0.980  33.011  0.00  0.00     0.025 A 
ATOM     17  C   UNL d   1      56.393  -1.017  32.334  0.00  0.00     0.015 A 
BRANCH  15  18
ATOM     18  O   UNL d   1      55.202  -0.205  33.980  0.00  0.00    -0.328 OA
ATOM     19  C   UNL d   1      55.138   0.508  34.402  0.00  0.00     0.181 C 
ENDBRANCH  15  18
ENDBRANCH   1  12
TORSDOF 5
ENDMDL
MODEL 2
REMARK VINA RESULT:      -5.2      1.220      4.669
REMARK  5 active torsions:
REMARK  status: ('A' for Active; 'I' for Inactive)
REMARK    1  A    between atoms: N_2  and  S_1 
REMARK    2  A    between atoms: C_3  and  S_1 
REMARK    3  A    between atoms: C_8  and  N_2 
REMARK    4  A    between atoms: C_12  and  C_8 
REMARK    5  A    between atoms: O_13  and  C_9 
ROOT
ATOM      1  S   UNL d   1      57.769   0.069  30.706  0.00  0.00     0.285 S 
ATOM      2  O   UNL d   1      57.396  -0.538  30.289  0.00  0.00    -0.198 OA
ATOM      3  O   UNL d   1      58.146   0.682  31.128  0.00  0.00    -0.198 OA
ENDROOT
BRANCH   1   4
ATOM      4  N   UNL d   1      57.115   0.127  31.206  0.00  0.00    -0.157 NA
BRANCH   4   5
ATOM      5  C   UNL d   1      57.177  -0.098  31.994  0.00  0.00     0.112 C 
BRANCH   5   6
ATOM      6  C   UNL d   1      56.506  -0.114  32.474  0.00  0.00     0.020 A 
ATOM      7  C   UNL d   1      56.165   0.591  32.722  0.00  0.00     0.002 A 
ATOM      8  C   UNL d   1      55.494   0.575  33.202  0.00  0.00     0.000 A 
ATOM      9  C   UNL d   1      55.168  -0.144  33.431  0.00  0.00     0.000 A 
ATOM     10  C   UNL d   1      55.519  -0.849  33.176  0.00  0.00     0.000 A 
ATOM     11  C   UNL d   1      56.190  -0.834  32.696  0.00  0.00     0.002 A 
ENDBRANCH   5   6
ENDBRANCH   4   5
ENDBRANCH   1   4
BRANCH   1  12
ATOM     12  C   UNL d   1      58.423   0.010  30.207  0.00  0.00     0.105 A 
ATOM     13  C   UNL d   1      58.496  -0.631  29.695  0.00  0.00     0.015 A 
ATOM     14  C   UNL d   1      59.153  -0.690  29.193  0.00  0.00     0.025 A 
ATOM     15  C   UNL d   1      59.734  -0.107  29.205  0.00  0.00     0.094 A 
ATOM     16  C   UNL d   1      59.665   0.541  29.719  0.00  0.00     0.025 A 
ATOM     17  C   UNL d   1      59.008   0.600  30.221  0.00  0.00     0.015 A 
BRANCH  15  18
ATOM     18  O   UNL d   1      60.388  -0.166  28.706  0.00  0.00    -0.328 OA
ATOM     19  C   UNL d   1      61.014  -0.676  28.903  0.00  0.00     0.181 C 
ENDBRANCH  15  18
ENDBRANCH   1  12
TORSDOF 5
ENDMDL
MODEL 3
REMARK VINA RESULT:      -4.6      1.155      4.610
REMARK  5 active torsions:
REMARK  status: ('A' for Active; 'I' for Inactive)
REMARK    1  A    between atoms: N_2  and  S_1 
REMARK    2  A    between atoms: C_3  and  S_1 
REMARK    3  A    between atoms: C_8  and  N_2 
REMARK    4  A    between atoms: C_12  and  C_8 
REMARK    5  A    between atoms: O_13  and  C_9 
ROOT
ATOM      1  S   UNL d   1      57.261  -0.141  30.965  0.00  0.00     0.285 S 
ATOM      2  O   UNL d   1      57.155  -0.955  31.051  0.00  0.00    -0.198 OA
ATOM      3  O   UNL d   1      57.367   0.681  30.878  0.00  0.00    -0.198 OA
ENDROOT
BRANCH   1   4
ATOM      4  N   UNL d   1      56.709  -0.007  31.564  0.00  0.00    -0.157 NA
BRANCH   4   5
ATOM      5  C   UNL d   1      56.851  -0.286  32.324  0.00  0.00     0.112 C 
BRANCH   5   6
ATOM      6  C   UNL d   1      56.333  -0.095  32.938  0.00  0.00     0.020 A 
ATOM      7  C   UNL d   1      56.546   0.475  33.489  0.00  0.00     0.002 A 
ATOM      8  C   UNL d   1      56.028   0.666  34.103  0.00  0.00     0.000 A 
ATOM      9  C   UNL d   1      55.301   0.286  34.161  0.00  0.00     0.000 A 
ATOM     10  C   UNL d   1      55.095  -0.288  33.600  0.00  0.00     0.000 A 
ATOM     11  C   UNL d   1      55.613  -0.479  32.987  0.00  0.00     0.002 A 
ENDBRANCH   5   6
ENDBRANCH   4   5
ENDBRANCH   1   4
BRANCH   1  12
ATOM     12  C   UNL d   1      57.812  -0.276  30.366  0.00  0.00     0.105 A 
ATOM     13  C   UNL d   1      58.084   0.351  29.907  0.00  0.00     0.015 A 
ATOM     14  C   UNL d   1      58.638   0.216  29.305  0.00  0.00     0.025 A 
ATOM     15  C   UNL d   1      58.917  -0.545  29.165  0.00  0.00     0.094 A 
ATOM     16  C   UNL d   1      58.646  -1.181  29.625  0.00  0.00     0.025 A 
ATOM     17  C   UNL d   1      58.092  -1.046  30.227  0.00  0.00     0.015 A 
BRANCH  15  18
ATOM     18  O   UNL d   1      59.468  -0.680  28.566  0.00  0.00    -0.328 OA
ATOM     19  C   UNL d   1      59.969  -1.342  28.607  0.00  0.00     0.181 C 
ENDBRANCH  15  18
ENDBRANCH   1  12
TORSDOF 5
ENDMDL
