MODEL 1
REMARK VINA RESULT:      77.4      0.000      0.000
REMARK  5 active torsions:
REMARK  status: ('A' for Active; 'I' for Inactive)
REMARK    1  A    between atoms: C_14  and  N_4 
REMARK    2  A    between atoms: C_15  and  C_9 
REMARK    3  A    between atoms: O_18  and  C_12 
REMARK    4  A    between atoms: O_19  and  C_13 
REMARK    5  A    between atoms: C_16  and  C_14 
ROOT
ATOM      1  C   UNL d   1      46.280 -17.000  42.244  0.00  0.00     0.056 A 
ATOM      2  C   UNL d   1      46.275 -16.181  42.110  0.00  0.00     0.107 A 
ATOM      3  C   UNL d   1      46.136 -15.661  42.732  0.00  0.00     0.038 A 
ATOM      4  N   UNL d   1      46.004 -16.764  43.630  0.00  0.00    -0.304 N 
ATOM      5  N   UNL d   1      46.425 -16.060  41.310  0.00  0.00    -0.148 NA
ATOM      6  C   UNL d   1      46.145 -17.292  43.004  0.00  0.00     0.083 A 
ATOM      7  N   UNL d   1      46.522 -16.798  40.953  0.00  0.00    -0.148 NA
ATOM      8  C   UNL d   1      46.000 -15.952  43.492  0.00  0.00     0.068 A 
ATOM      9  C   UNL d   1      46.434 -17.381  41.524  0.00  0.00     0.106 A 
ATOM     10  C   UNL d   1      45.860 -15.432  44.115  0.00  0.00     0.044 A 
ATOM     11  C   UNL d   1      46.131 -14.849  42.596  0.00  0.00     0.029 A 
ATOM     12  C   UNL d   1      45.856 -14.620  43.977  0.00  0.00     0.118 A 
ATOM     13  C   UNL d   1      45.991 -14.329  43.218  0.00  0.00     0.116 A 
ENDROOT
BRANCH   4  14
ATOM     14  C   UNL d   1      45.869 -17.055  44.390  0.00  0.00     0.080 C 
BRANCH  14  15
ATOM     15  C   UNL d   1      45.891 -17.866  44.530  0.00  0.00     0.018 A 
ATOM     16  C   UNL d   1      45.211 -18.260  44.807  0.00  0.00     0.004 A 
ATOM     17  C   UNL d   1      45.231 -19.071  44.947  0.00  0.00     0.030 A 
ATOM     18  C   UNL d   1      45.933 -19.502  44.813  0.00  0.00     0.140 A 
ATOM     19  C   UNL d   1      46.613 -19.109  44.536  0.00  0.00     0.030 A 
ATOM     20  F   UNL d   1      45.957 -20.326  44.955  0.00  0.00    -0.204 F 
ATOM     21  C   UNL d   1      46.589 -18.295  44.396  0.00  0.00     0.004 A 
ENDBRANCH  14  15
ENDBRANCH   4  14
BRANCH   9  22
ATOM     22  C   UNL d   1      46.504 -18.177  41.317  0.00  0.00     0.019 A 
ATOM     23  C   UNL d   1      46.518 -18.395  40.523  0.00  0.00     0.002 A 
ATOM     24  C   UNL d   1      46.589 -19.195  40.319  0.00  0.00     0.000 A 
ATOM     25  C   UNL d   1      46.645 -19.775  40.910  0.00  0.00     0.000 A 
ATOM     26  C   UNL d   1      46.630 -19.548  41.706  0.00  0.00     0.000 A 
ATOM     27  C   UNL d   1      46.559 -18.753  41.909  0.00  0.00     0.002 A 
ENDBRANCH   9  22
BRANCH  12  28
ATOM     28  O   UNL d   1      45.713 -14.093  44.616  0.00  0.00    -0.326 OA
ATOM     29  C   UNL d   1      44.938 -13.864  44.794  0.00  0.00     0.181 C 
ENDBRANCH  12  28
BRANCH  13  30
ATOM     30  O   UNL d   1      45.986 -13.505  43.085  0.00  0.00    -0.326 OA
ATOM     31  C   UNL d   1      46.305 -13.199  42.385  0.00  0.00     0.181 C 
ENDBRANCH  13  30
TORSDOF 5
ENDMDL
