MODEL 1
REMARK VINA RESULT:       6.5      0.000      0.000
REMARK  0 active torsions:
REMARK  status: ('A' for Active; 'I' for Inactive)
ROOT
ATOM      1  N   UNL d   1     -51.214  24.429  33.314  0.00  0.00    -0.187 N 
ATOM      2  C   UNL d   1     -52.018  24.613  33.308  0.00  0.00     0.200 A 
ATOM      3  N   UNL d   1     -52.269  25.399  33.306  0.00  0.00    -0.181 NA
ATOM      4  N   UNL d   1     -50.649  25.047  33.317  0.00  0.00    -0.157 NA
ATOM      5  C   UNL d   1     -51.140  23.606  33.315  0.00  0.00     0.194 A 
ATOM      6  C   UNL d   1     -51.714  26.009  33.309  0.00  0.00     0.300 A 
ATOM      7  C   UNL d   1     -50.900  25.832  33.314  0.00  0.00     0.159 A 
ATOM      8  S   UNL d   1     -52.440  23.903  33.306  0.00  0.00    -0.045 SA
ATOM      9  C   UNL d   1     -51.891  23.277  33.311  0.00  0.00     0.079 A 
ATOM     10  O   UNL d   1     -51.965  26.796  33.306  0.00  0.00    -0.263 OA
ATOM     11  N   UNL d   1     -50.430  23.189  33.320  0.00  0.00    -0.126 N 
ATOM     12  C   UNL d   1     -50.345  26.443  33.317  0.00  0.00     0.028 C 
ENDROOT
TORSDOF 0
ENDMDL
MODEL 2
REMARK VINA RESULT:       6.6      1.537      2.762
REMARK  0 active torsions:
REMARK  status: ('A' for Active; 'I' for Inactive)
ROOT
ATOM      1  N   UNL d   1     -51.500  25.630  33.309  0.00  0.00    -0.187 N 
ATOM      2  C   UNL d   1     -50.725  25.349  33.306  0.00  0.00     0.200 A 
ATOM      3  N   UNL d   1     -50.573  24.538  33.306  0.00  0.00    -0.181 NA
ATOM      4  N   UNL d   1     -52.137  25.087  33.310  0.00  0.00    -0.157 NA
ATOM      5  C   UNL d   1     -51.473  26.456  33.309  0.00  0.00     0.194 A 
ATOM      6  C   UNL d   1     -51.198  24.000  33.307  0.00  0.00     0.300 A 
ATOM      7  C   UNL d   1     -51.985  24.276  33.309  0.00  0.00     0.159 A 
ATOM      8  S   UNL d   1     -50.219  26.001  33.306  0.00  0.00    -0.045 SA
ATOM      9  C   UNL d   1     -50.687  26.690  33.307  0.00  0.00     0.079 A 
ATOM     10  O   UNL d   1     -51.046  23.189  33.306  0.00  0.00    -0.263 OA
ATOM     11  N   UNL d   1     -52.126  26.957  33.311  0.00  0.00    -0.126 N 
ATOM     12  C   UNL d   1     -52.610  23.738  33.310  0.00  0.00     0.028 C 
ENDROOT
TORSDOF 0
ENDMDL
