MODEL 1
REMARK VINA RESULT:      59.2      0.000      0.000
REMARK  6 active torsions:
REMARK  status: ('A' for Active; 'I' for Inactive)
REMARK    1  A    between atoms: S_4  and  C_1 
REMARK    2  A    between atoms: C_9  and  N_2 
REMARK    3  A    between atoms: C_11  and  S_4 
REMARK    4  A    between atoms: C_6  and  C_11 
REMARK       I    between atoms: N_8  and  C_6 
REMARK    5  A    between atoms: C_12  and  N_8 
REMARK    6  A    between atoms: O_18  and  C_13 
ROOT
ATOM      1  S   UNL d   1      59.550  49.671  50.299  0.00  0.00    -0.044 SA
ENDROOT
BRANCH   1   2
ATOM      2  C   UNL d   1      59.037  49.633  50.947  0.00  0.00     0.180 A 
ATOM      3  N   UNL d   1      58.222  49.573  50.910  0.00  0.00    -0.284 N 
ATOM      4  C   UNL d   1      57.940  49.551  51.686  0.00  0.00     0.103 A 
ATOM      5  C   UNL d   1      58.595  49.599  52.204  0.00  0.00     0.120 A 
ATOM      6  N   UNL d   1      59.259  49.648  51.738  0.00  0.00    -0.219 NA
BRANCH   3   7
ATOM      7  C   UNL d   1      57.736  49.539  50.244  0.00  0.00     0.066 A 
ATOM      8  C   UNL d   1      58.042  49.692  49.502  0.00  0.00     0.018 A 
ATOM      9  C   UNL d   1      57.556  49.657  48.836  0.00  0.00     0.002 A 
ATOM     10  C   UNL d   1      56.764  49.469  48.913  0.00  0.00     0.000 A 
ATOM     11  C   UNL d   1      56.451  49.314  49.661  0.00  0.00     0.002 A 
ATOM     12  C   UNL d   1      56.937  49.349  50.327  0.00  0.00     0.018 A 
ENDBRANCH   3   7
ENDBRANCH   1   2
BRANCH   1  13
ATOM     13  C   UNL d   1      60.368  49.662  50.413  0.00  0.00     0.101 C 
BRANCH  13  14
ATOM     14  C   UNL d   1      60.796  48.984  50.282  0.00  0.00     0.286 C 
ATOM     15  N   UNL d   1      60.452  48.254  50.410  0.00  0.00    -0.208 NA
ATOM     16  O   UNL d   1      61.575  49.040  50.022  0.00  0.00    -0.265 OA
BRANCH  15  17
ATOM     17  C   UNL d   1      60.880  47.567  50.279  0.00  0.00     0.085 A 
ATOM     18  C   UNL d   1      60.761  46.908  50.763  0.00  0.00     0.021 A 
ATOM     19  C   UNL d   1      61.189  46.212  50.637  0.00  0.00     0.026 A 
ATOM     20  C   UNL d   1      61.736  46.179  50.024  0.00  0.00     0.094 A 
ATOM     21  C   UNL d   1      61.847  46.849  49.544  0.00  0.00     0.026 A 
ATOM     22  C   UNL d   1      61.425  47.529  49.672  0.00  0.00     0.021 A 
BRANCH  20  23
ATOM     23  O   UNL d   1      62.165  45.478  49.899  0.00  0.00    -0.328 OA
ATOM     24  C   UNL d   1      62.129  45.112  49.159  0.00  0.00     0.181 C 
ENDBRANCH  20  23
ENDBRANCH  15  17
ENDBRANCH  13  14
ENDBRANCH   1  13
TORSDOF 6
ENDMDL
