MODEL 1
REMARK VINA RESULT:      52.8      0.000      0.000
REMARK  3 active torsions:
REMARK  status: ('A' for Active; 'I' for Inactive)
REMARK    1  A    between atoms: C_6  and  N_1 
REMARK    2  A    between atoms: C_5  and  C_6 
REMARK       I    between atoms: N_10  and  C_5 
REMARK    3  A    between atoms: C_16  and  N_10 
ROOT
ATOM      1  C   UNL d   1     -49.397  27.282  33.984  0.00  0.00     0.297 C 
ATOM      2  N   UNL d   1     -48.865  27.902  33.907  0.00  0.00    -0.207 NA
ATOM      3  O   UNL d   1     -49.678  27.079  34.737  0.00  0.00    -0.264 OA
ENDROOT
BRANCH   1   4
ATOM      4  C   UNL d   1     -49.651  26.866  33.322  0.00  0.00     0.148 C 
BRANCH   4   5
ATOM      5  N   UNL d   1     -50.395  26.517  33.319  0.00  0.00    -0.235 N 
ATOM      6  C   UNL d   1     -50.468  25.700  33.316  0.00  0.00     0.273 A 
ATOM      7  C   UNL d   1     -51.217  25.350  33.313  0.00  0.00     0.086 A 
ATOM      8  O   UNL d   1     -49.793  25.219  33.316  0.00  0.00    -0.266 OA
ATOM      9  C   UNL d   1     -51.312  24.529  33.309  0.00  0.00     0.012 C 
ATOM     10  S   UNL d   1     -51.883  25.833  33.313  0.00  0.00    -0.077 SA
ATOM     11  C   UNL d   1     -51.815  26.649  33.316  0.00  0.00     0.097 A 
ATOM     12  C   UNL d   1     -51.071  26.998  33.319  0.00  0.00     0.274 A 
ATOM     13  O   UNL d   1     -51.000  27.824  33.323  0.00  0.00    -0.266 OA
ENDBRANCH   4   5
ENDBRANCH   1   4
BRANCH   2  14
ATOM     14  C   UNL d   1     -48.610  28.319  34.565  0.00  0.00     0.087 A 
ATOM     15  C   UNL d   1     -48.083  28.942  34.454  0.00  0.00     0.045 A 
ATOM     16  C   UNL d   1     -47.814  29.374  35.097  0.00  0.00     0.121 A 
ATOM     17  O   UNL d   1     -47.298  30.012  35.161  0.00  0.00    -0.299 OA
ATOM     18  C   UNL d   1     -48.074  29.181  35.857  0.00  0.00     0.119 A 
ATOM     19  C   UNL d   1     -47.241  30.212  35.961  0.00  0.00     0.304 A 
ATOM     20  O   UNL d   1     -47.715  29.703  36.378  0.00  0.00    -0.300 OA
ATOM     21  C   UNL d   1     -48.602  28.558  35.973  0.00  0.00     0.028 A 
ATOM     22  C   UNL d   1     -48.875  28.120  35.325  0.00  0.00     0.021 A 
ENDBRANCH   2  14
TORSDOF 3
ENDMDL
MODEL 2
REMARK VINA RESULT:      54.0      0.368      1.189
REMARK  3 active torsions:
REMARK  status: ('A' for Active; 'I' for Inactive)
REMARK    1  A    between atoms: C_6  and  N_1 
REMARK    2  A    between atoms: C_5  and  C_6 
REMARK       I    between atoms: N_10  and  C_5 
REMARK    3  A    between atoms: C_16  and  N_10 
ROOT
ATOM      1  C   UNL d   1     -49.422  27.246  34.024  0.00  0.00     0.297 C 
ATOM      2  N   UNL d   1     -48.944  27.913  34.010  0.00  0.00    -0.207 NA
ATOM      3  O   UNL d   1     -49.643  26.920  34.753  0.00  0.00    -0.264 OA
ENDROOT
BRANCH   1   4
ATOM      4  C   UNL d   1     -49.681  26.904  33.322  0.00  0.00     0.148 C 
BRANCH   4   5
ATOM      5  N   UNL d   1     -50.312  26.377  33.333  0.00  0.00    -0.235 N 
ATOM      6  C   UNL d   1     -51.083  26.657  33.325  0.00  0.00     0.273 A 
ATOM      7  C   UNL d   1     -51.717  26.126  33.335  0.00  0.00     0.086 A 
ATOM      8  O   UNL d   1     -51.233  27.472  33.306  0.00  0.00    -0.266 OA
ATOM      9  C   UNL d   1     -52.501  26.388  33.327  0.00  0.00     0.012 C 
ATOM     10  S   UNL d   1     -51.561  25.318  33.353  0.00  0.00    -0.077 SA
ATOM     11  C   UNL d   1     -50.793  25.035  33.361  0.00  0.00     0.097 A 
ATOM     12  C   UNL d   1     -50.162  25.561  33.351  0.00  0.00     0.274 A 
ATOM     13  O   UNL d   1     -49.383  25.276  33.359  0.00  0.00    -0.266 OA
ENDBRANCH   4   5
ENDBRANCH   1   4
BRANCH   2  14
ATOM     14  C   UNL d   1     -48.685  28.257  34.707  0.00  0.00     0.087 A 
ATOM     15  C   UNL d   1     -48.213  28.930  34.661  0.00  0.00     0.045 A 
ATOM     16  C   UNL d   1     -47.942  29.292  35.344  0.00  0.00     0.121 A 
ATOM     17  O   UNL d   1     -47.472  29.955  35.474  0.00  0.00    -0.299 OA
ATOM     18  C   UNL d   1     -48.144  28.978  36.082  0.00  0.00     0.119 A 
ATOM     19  C   UNL d   1     -47.385  30.050  36.290  0.00  0.00     0.304 A 
ATOM     20  O   UNL d   1     -47.796  29.452  36.653  0.00  0.00    -0.300 OA
ATOM     21  C   UNL d   1     -48.617  28.303  36.133  0.00  0.00     0.028 A 
ATOM     22  C   UNL d   1     -48.893  27.936  35.444  0.00  0.00     0.021 A 
ENDBRANCH   2  14
TORSDOF 3
ENDMDL
