MODEL 1
REMARK VINA RESULT:      89.5      0.000      0.000
REMARK  6 active torsions:
REMARK  status: ('A' for Active; 'I' for Inactive)
REMARK    1  A    between atoms: C_9  and  N_1 
REMARK    2  A    between atoms: S_14  and  C_3 
REMARK    3  A    between atoms: N_8  and  C_10 
REMARK    4  A    between atoms: C_18  and  C_9 
REMARK    5  A    between atoms: C_19  and  S_14 
REMARK    6  A    between atoms: C_20  and  C_18 
ROOT
ATOM      1  N   UNL d   1     -50.204  27.321  37.697  0.00  0.00    -0.195 NA
ATOM      2  C   UNL d   1     -49.563  27.683  37.295  0.00  0.00     0.086 C 
ATOM      3  C   UNL d   1     -48.944  28.032  36.897  0.00  0.00     0.170 C 
ENDROOT
BRANCH   3   4
ATOM      4  S   UNL d   1     -48.909  28.001  36.072  0.00  0.00    -0.060 SA
BRANCH   4   5
ATOM      5  C   UNL d   1     -48.748  28.688  35.633  0.00  0.00     0.178 A 
ATOM      6  N   UNL d   1     -49.102  28.803  34.897  0.00  0.00    -0.253 N 
ATOM      7  C   UNL d   1     -48.939  29.488  34.462  0.00  0.00     0.268 A 
ATOM      8  C   UNL d   1     -48.422  30.049  34.775  0.00  0.00     0.076 A 
ATOM      9  O   UNL d   1     -49.291  29.604  33.729  0.00  0.00    -0.267 OA
ATOM     10  C   UNL d   1     -48.265  30.723  34.341  0.00  0.00     0.024 A 
ATOM     11  C   UNL d   1     -48.071  29.934  35.504  0.00  0.00     0.088 A 
ATOM     12  C   UNL d   1     -47.748  31.297  34.639  0.00  0.00     0.065 A 
ATOM     13  C   UNL d   1     -47.398  31.170  35.381  0.00  0.00     0.019 A 
ATOM     14  C   UNL d   1     -47.557  30.496  35.810  0.00  0.00     0.021 A 
ATOM     15  N   UNL d   1     -48.230  29.256  35.939  0.00  0.00    -0.222 NA
BRANCH   6  16
ATOM     16  C   UNL d   1     -49.617  28.233  34.599  0.00  0.00     0.085 C 
BRANCH  16  17
ATOM     17  C   UNL d   1     -49.330  27.651  34.089  0.00  0.00     0.019 C 
BRANCH  17  18
ATOM     18  C   UNL d   1     -49.830  27.045  33.828  0.00  0.00     0.002 A 
ATOM     19  C   UNL d   1     -50.643  27.153  33.830  0.00  0.00     0.000 A 
ATOM     20  C   UNL d   1     -51.143  26.551  33.571  0.00  0.00     0.000 A 
ATOM     21  C   UNL d   1     -50.821  25.831  33.306  0.00  0.00     0.000 A 
ATOM     22  C   UNL d   1     -49.998  25.726  33.306  0.00  0.00     0.000 A 
ATOM     23  C   UNL d   1     -49.499  26.328  33.565  0.00  0.00     0.000 A 
ENDBRANCH  17  18
ENDBRANCH  16  17
ENDBRANCH   6  16
BRANCH  12  24
ATOM     24  N   UNL d   1     -47.584  31.977  34.211  0.00  0.00    -0.300 N 
ATOM     25  C   UNL d   1     -48.192  32.507  34.022  0.00  0.00     0.107 A 
ATOM     26  C   UNL d   1     -48.020  33.185  33.594  0.00  0.00     0.142 A 
ATOM     27  O   UNL d   1     -47.243  33.342  33.351  0.00  0.00    -0.300 OA
ATOM     28  C   UNL d   1     -46.635  32.813  33.540  0.00  0.00     0.142 A 
ATOM     29  C   UNL d   1     -46.804  32.127  33.972  0.00  0.00     0.107 A 
ENDBRANCH  12  24
ENDBRANCH   4   5
ENDBRANCH   3   4
TORSDOF 6
ENDMDL
MODEL 2
REMARK VINA RESULT:      89.9      1.464      5.030
REMARK  6 active torsions:
REMARK  status: ('A' for Active; 'I' for Inactive)
REMARK    1  A    between atoms: C_9  and  N_1 
REMARK    2  A    between atoms: S_14  and  C_3 
REMARK    3  A    between atoms: N_8  and  C_10 
REMARK    4  A    between atoms: C_18  and  C_9 
REMARK    5  A    between atoms: C_19  and  S_14 
REMARK    6  A    between atoms: C_20  and  C_18 
ROOT
ATOM      1  N   UNL d   1     -46.802  30.503  37.561  0.00  0.00    -0.195 NA
ATOM      2  C   UNL d   1     -46.898  30.231  36.774  0.00  0.00     0.086 C 
ATOM      3  C   UNL d   1     -47.000  29.972  36.008  0.00  0.00     0.170 C 
ENDROOT
BRANCH   3   4
ATOM      4  S   UNL d   1     -47.629  30.253  35.553  0.00  0.00    -0.060 SA
BRANCH   4   5
ATOM      5  C   UNL d   1     -48.160  29.722  35.198  0.00  0.00     0.178 A 
ATOM      6  N   UNL d   1     -48.711  29.991  34.645  0.00  0.00    -0.253 N 
ATOM      7  C   UNL d   1     -49.238  29.459  34.293  0.00  0.00     0.268 A 
ATOM      8  C   UNL d   1     -49.205  28.663  34.503  0.00  0.00     0.076 A 
ATOM      9  O   UNL d   1     -49.786  29.727  33.743  0.00  0.00    -0.267 OA
ATOM     10  C   UNL d   1     -49.728  28.142  34.153  0.00  0.00     0.024 A 
ATOM     11  C   UNL d   1     -48.660  28.397  35.051  0.00  0.00     0.088 A 
ATOM     12  C   UNL d   1     -49.709  27.339  34.351  0.00  0.00     0.065 A 
ATOM     13  C   UNL d   1     -49.152  27.080  34.908  0.00  0.00     0.019 A 
ATOM     14  C   UNL d   1     -48.631  27.602  35.256  0.00  0.00     0.021 A 
ATOM     15  N   UNL d   1     -48.135  28.920  35.402  0.00  0.00    -0.222 NA
BRANCH   6  16
ATOM     16  C   UNL d   1     -48.731  30.791  34.447  0.00  0.00     0.085 C 
BRANCH  16  17
ATOM     17  C   UNL d   1     -48.093  31.127  34.046  0.00  0.00     0.019 C 
BRANCH  17  18
ATOM     18  C   UNL d   1     -48.094  31.936  33.868  0.00  0.00     0.002 A 
ATOM     19  C   UNL d   1     -48.782  32.298  33.606  0.00  0.00     0.000 A 
ATOM     20  C   UNL d   1     -48.786  33.103  33.428  0.00  0.00     0.000 A 
ATOM     21  C   UNL d   1     -48.090  33.550  33.516  0.00  0.00     0.000 A 
ATOM     22  C   UNL d   1     -47.397  33.179  33.782  0.00  0.00     0.000 A 
ATOM     23  C   UNL d   1     -47.393  32.375  33.959  0.00  0.00     0.000 A 
ENDBRANCH  17  18
ENDBRANCH  16  17
ENDBRANCH   6  16
BRANCH  12  24
ATOM     24  N   UNL d   1     -50.231  26.809  34.004  0.00  0.00    -0.300 N 
ATOM     25  C   UNL d   1     -51.042  26.973  33.988  0.00  0.00     0.107 A 
ATOM     26  C   UNL d   1     -51.557  26.437  33.640  0.00  0.00     0.142 A 
ATOM     27  O   UNL d   1     -51.268  25.735  33.306  0.00  0.00    -0.300 OA
ATOM     28  C   UNL d   1     -50.458  25.571  33.321  0.00  0.00     0.142 A 
ATOM     29  C   UNL d   1     -49.935  26.109  33.672  0.00  0.00     0.107 A 
ENDBRANCH  12  24
ENDBRANCH   4   5
ENDBRANCH   3   4
TORSDOF 6
ENDMDL
