MODEL 1
REMARK VINA RESULT:      51.9      0.000      0.000
REMARK  6 active torsions:
REMARK  status: ('A' for Active; 'I' for Inactive)
REMARK    1  A    between atoms: C_10  and  N_3 
REMARK    2  A    between atoms: C_11  and  N_8 
REMARK    3  A    between atoms: C_12  and  C_11 
REMARK    4  A    between atoms: O_15  and  C_12 
REMARK    5  A    between atoms: C_18  and  O_15 
REMARK    6  A    between atoms: C_22  and  C_18 
ROOT
ATOM      1  C   UNL d   1      13.467  13.102  -3.532  0.00  0.00     0.191 A 
ATOM      2  C   UNL d   1      13.213  12.942  -4.308  0.00  0.00     0.196 A 
ATOM      3  N   UNL d   1      13.575  12.373  -3.152  0.00  0.00    -0.193 N 
ATOM      4  N   UNL d   1      13.390  11.785  -3.685  0.00  0.00    -0.058 NA
ATOM      5  N   UNL d   1      13.170  12.118  -4.388  0.00  0.00    -0.122 NA
ATOM      6  N   UNL d   1      13.561  13.875  -3.289  0.00  0.00    -0.204 NA
ATOM      7  C   UNL d   1      13.061  13.560  -4.818  0.00  0.00     0.289 A 
ATOM      8  N   UNL d   1      13.155  14.341  -4.577  0.00  0.00    -0.249 N 
ATOM      9  C   UNL d   1      13.408  14.501  -3.801  0.00  0.00     0.187 A 
ATOM     10  O   UNL d   1      12.807  13.400  -5.594  0.00  0.00    -0.265 OA
ENDROOT
BRANCH   8  11
ATOM     11  C   UNL d   1      13.002  14.975  -5.091  0.00  0.00     0.153 C 
BRANCH  11  12
ATOM     12  C   UNL d   1      13.627  15.396  -5.437  0.00  0.00     0.318 C 
ATOM     13  O   UNL d   1      14.246  14.989  -5.799  0.00  0.00    -0.257 OA
BRANCH  12  14
ATOM     14  O   UNL d   1      13.623  16.215  -5.416  0.00  0.00    -0.270 OA
BRANCH  14  15
ATOM     15  C   UNL d   1      14.238  16.642  -5.765  0.00  0.00     0.126 C 
BRANCH  15  16
ATOM     16  C   UNL d   1      14.250  17.452  -5.708  0.00  0.00     0.025 A 
ATOM     17  C   UNL d   1      14.116  17.912  -6.381  0.00  0.00     0.002 A 
ATOM     18  C   UNL d   1      14.126  18.737  -6.331  0.00  0.00     0.000 A 
ATOM     19  C   UNL d   1      14.272  19.095  -5.604  0.00  0.00     0.000 A 
ATOM     20  C   UNL d   1      14.407  18.635  -4.930  0.00  0.00     0.000 A 
ATOM     21  C   UNL d   1      14.396  17.817  -4.984  0.00  0.00     0.002 A 
ENDBRANCH  15  16
ENDBRANCH  14  15
ENDBRANCH  12  14
ENDBRANCH  11  12
ENDBRANCH   8  11
BRANCH   3  22
ATOM     22  C   UNL d   1      13.816  12.227  -2.396  0.00  0.00     0.086 A 
ATOM     23  C   UNL d   1      13.260  11.988  -1.815  0.00  0.00     0.019 A 
ATOM     24  C   UNL d   1      13.510  11.843  -1.058  0.00  0.00     0.002 A 
ATOM     25  C   UNL d   1      14.321  11.930  -0.851  0.00  0.00     0.000 A 
ATOM     26  C   UNL d   1      14.851  12.162  -1.419  0.00  0.00     0.002 A 
ATOM     27  C   UNL d   1      14.585  11.780  -0.062  0.00  0.00     0.000 C 
ATOM     28  C   UNL d   1      14.610  12.312  -2.190  0.00  0.00     0.019 A 
ENDBRANCH   3  22
TORSDOF 6
ENDMDL
MODEL 2
REMARK VINA RESULT:      52.6      2.408      3.172
REMARK  6 active torsions:
REMARK  status: ('A' for Active; 'I' for Inactive)
REMARK    1  A    between atoms: C_10  and  N_3 
REMARK    2  A    between atoms: C_11  and  N_8 
REMARK    3  A    between atoms: C_12  and  C_11 
REMARK    4  A    between atoms: O_15  and  C_12 
REMARK    5  A    between atoms: C_18  and  O_15 
REMARK    6  A    between atoms: C_22  and  C_18 
ROOT
ATOM      1  C   UNL d   1      14.923  15.417  -1.253  0.00  0.00     0.191 A 
ATOM      2  C   UNL d   1      15.200  16.186  -1.098  0.00  0.00     0.196 A 
ATOM      3  N   UNL d   1      15.056  14.964  -0.571  0.00  0.00    -0.193 N 
ATOM      4  N   UNL d   1      15.406  15.448  -0.016  0.00  0.00    -0.058 NA
ATOM      5  N   UNL d   1      15.498  16.190  -0.325  0.00  0.00    -0.122 NA
ATOM      6  N   UNL d   1      14.596  15.244  -1.980  0.00  0.00    -0.204 NA
ATOM      7  C   UNL d   1      15.142  16.760  -1.675  0.00  0.00     0.289 A 
ATOM      8  N   UNL d   1      14.812  16.589  -2.409  0.00  0.00    -0.249 N 
ATOM      9  C   UNL d   1      14.536  15.820  -2.564  0.00  0.00     0.187 A 
ATOM     10  O   UNL d   1      15.419  17.529  -1.520  0.00  0.00    -0.265 OA
ENDROOT
BRANCH   8  11
ATOM     11  C   UNL d   1      14.750  17.168  -3.001  0.00  0.00     0.153 C 
BRANCH  11  12
ATOM     12  C   UNL d   1      14.997  17.006  -3.777  0.00  0.00     0.318 C 
ATOM     13  O   UNL d   1      15.129  16.227  -4.010  0.00  0.00    -0.257 OA
BRANCH  12  14
ATOM     14  O   UNL d   1      15.108  17.625  -4.303  0.00  0.00    -0.270 OA
BRANCH  14  15
ATOM     15  C   UNL d   1      14.711  17.628  -5.028  0.00  0.00     0.126 C 
BRANCH  15  16
ATOM     16  C   UNL d   1      14.563  18.332  -5.403  0.00  0.00     0.025 A 
ATOM     17  C   UNL d   1      13.907  18.402  -5.901  0.00  0.00     0.002 A 
ATOM     18  C   UNL d   1      13.750  19.115  -6.287  0.00  0.00     0.000 A 
ATOM     19  C   UNL d   1      14.254  19.756  -6.170  0.00  0.00     0.000 A 
ATOM     20  C   UNL d   1      14.911  19.687  -5.673  0.00  0.00     0.000 A 
ATOM     21  C   UNL d   1      15.063  18.977  -5.292  0.00  0.00     0.002 A 
ENDBRANCH  15  16
ENDBRANCH  14  15
ENDBRANCH  12  14
ENDBRANCH  11  12
ENDBRANCH   8  11
BRANCH   3  22
ATOM     22  C   UNL d   1      14.887  14.187  -0.439  0.00  0.00     0.086 A 
ATOM     23  C   UNL d   1      15.481  13.603  -0.539  0.00  0.00     0.019 A 
ATOM     24  C   UNL d   1      15.303  12.824  -0.404  0.00  0.00     0.002 A 
ATOM     25  C   UNL d   1      14.529  12.597  -0.164  0.00  0.00     0.000 A 
ATOM     26  C   UNL d   1      13.961  13.169  -0.070  0.00  0.00     0.002 A 
ATOM     27  C   UNL d   1      14.340  11.785  -0.022  0.00  0.00     0.000 C 
ATOM     28  C   UNL d   1      14.129  13.962  -0.204  0.00  0.00     0.019 A 
ENDBRANCH   3  22
TORSDOF 6
ENDMDL
MODEL 3
REMARK VINA RESULT:      53.1      1.684      5.069
REMARK  6 active torsions:
REMARK  status: ('A' for Active; 'I' for Inactive)
REMARK    1  A    between atoms: C_10  and  N_3 
REMARK    2  A    between atoms: C_11  and  N_8 
REMARK    3  A    between atoms: C_12  and  C_11 
REMARK    4  A    between atoms: O_15  and  C_12 
REMARK    5  A    between atoms: C_18  and  O_15 
REMARK    6  A    between atoms: C_22  and  C_18 
ROOT
ATOM      1  C   UNL d   1      13.684  13.792  -4.129  0.00  0.00     0.191 A 
ATOM      2  C   UNL d   1      13.281  13.126  -4.424  0.00  0.00     0.196 A 
ATOM      3  N   UNL d   1      13.685  14.365  -4.727  0.00  0.00    -0.193 N 
ATOM      4  N   UNL d   1      13.292  14.054  -5.370  0.00  0.00    -0.058 NA
ATOM      5  N   UNL d   1      13.043  13.305  -5.198  0.00  0.00    -0.122 NA
ATOM      6  N   UNL d   1      13.985  13.778  -3.370  0.00  0.00    -0.204 NA
ATOM      7  C   UNL d   1      13.191  12.466  -3.952  0.00  0.00     0.289 A 
ATOM      8  N   UNL d   1      13.493  12.449  -3.187  0.00  0.00    -0.249 N 
ATOM      9  C   UNL d   1      13.896  13.114  -2.892  0.00  0.00     0.187 A 
ATOM     10  O   UNL d   1      12.788  11.801  -4.248  0.00  0.00    -0.265 OA
ENDROOT
BRANCH   8  11
ATOM     11  C   UNL d   1      13.406  11.781  -2.702  0.00  0.00     0.153 C 
BRANCH  11  12
ATOM     12  C   UNL d   1      13.528  11.837  -1.883  0.00  0.00     0.318 C 
ATOM     13  O   UNL d   1      12.886  11.789  -1.368  0.00  0.00    -0.257 OA
BRANCH  12  14
ATOM     14  O   UNL d   1      14.288  11.941  -1.594  0.00  0.00    -0.270 OA
BRANCH  14  15
ATOM     15  C   UNL d   1      14.412  12.056  -0.785  0.00  0.00     0.126 C 
BRANCH  15  16
ATOM     16  C   UNL d   1      14.853  12.688  -0.531  0.00  0.00     0.025 A 
ATOM     17  C   UNL d   1      14.480  13.403  -0.351  0.00  0.00     0.002 A 
ATOM     18  C   UNL d   1      14.922  14.051  -0.092  0.00  0.00     0.000 A 
ATOM     19  C   UNL d   1      15.739  13.976  -0.014  0.00  0.00     0.000 A 
ATOM     20  C   UNL d   1      16.113  13.261  -0.194  0.00  0.00     0.000 A 
ATOM     21  C   UNL d   1      15.671  12.620  -0.451  0.00  0.00     0.002 A 
ENDBRANCH  15  16
ENDBRANCH  14  15
ENDBRANCH  12  14
ENDBRANCH  11  12
ENDBRANCH   8  11
BRANCH   3  22
ATOM     22  C   UNL d   1      14.004  15.105  -4.718  0.00  0.00     0.086 A 
ATOM     23  C   UNL d   1      13.987  15.564  -4.015  0.00  0.00     0.019 A 
ATOM     24  C   UNL d   1      14.310  16.307  -4.014  0.00  0.00     0.002 A 
ATOM     25  C   UNL d   1      14.662  16.622  -4.710  0.00  0.00     0.000 A 
ATOM     26  C   UNL d   1      14.674  16.172  -5.385  0.00  0.00     0.002 A 
ATOM     27  C   UNL d   1      14.999  17.397  -4.712  0.00  0.00     0.000 C 
ATOM     28  C   UNL d   1      14.350  15.417  -5.399  0.00  0.00     0.019 A 
ENDBRANCH   3  22
TORSDOF 6
ENDMDL
MODEL 4
REMARK VINA RESULT:      53.5      2.031      4.979
REMARK  6 active torsions:
REMARK  status: ('A' for Active; 'I' for Inactive)
REMARK    1  A    between atoms: C_10  and  N_3 
REMARK    2  A    between atoms: C_11  and  N_8 
REMARK    3  A    between atoms: C_12  and  C_11 
REMARK    4  A    between atoms: O_15  and  C_12 
REMARK    5  A    between atoms: C_18  and  O_15 
REMARK    6  A    between atoms: C_22  and  C_18 
ROOT
ATOM      1  C   UNL d   1      14.140  15.239  -3.391  0.00  0.00     0.191 A 
ATOM      2  C   UNL d   1      14.003  15.139  -4.205  0.00  0.00     0.196 A 
ATOM      3  N   UNL d   1      14.552  15.951  -3.295  0.00  0.00    -0.193 N 
ATOM      4  N   UNL d   1      14.663  16.276  -4.035  0.00  0.00    -0.058 NA
ATOM      5  N   UNL d   1      14.334  15.792  -4.593  0.00  0.00    -0.122 NA
ATOM      6  N   UNL d   1      13.873  14.675  -2.864  0.00  0.00    -0.204 NA
ATOM      7  C   UNL d   1      13.603  14.478  -4.470  0.00  0.00     0.289 A 
ATOM      8  N   UNL d   1      13.332  13.908  -3.941  0.00  0.00    -0.249 N 
ATOM      9  C   UNL d   1      13.469  14.008  -3.127  0.00  0.00     0.187 A 
ATOM     10  O   UNL d   1      13.466  14.378  -5.284  0.00  0.00    -0.265 OA
ENDROOT
BRANCH   8  11
ATOM     11  C   UNL d   1      12.925  13.234  -4.203  0.00  0.00     0.153 C 
BRANCH  11  12
ATOM     12  C   UNL d   1      13.167  12.477  -3.964  0.00  0.00     0.318 C 
ATOM     13  O   UNL d   1      12.995  11.823  -4.436  0.00  0.00    -0.257 OA
BRANCH  12  14
ATOM     14  O   UNL d   1      13.577  12.387  -3.260  0.00  0.00    -0.270 OA
BRANCH  14  15
ATOM     15  C   UNL d   1      13.373  11.782  -2.736  0.00  0.00     0.126 C 
BRANCH  15  16
ATOM     16  C   UNL d   1      13.676  11.781  -1.983  0.00  0.00     0.025 A 
ATOM     17  C   UNL d   1      14.495  11.781  -1.871  0.00  0.00     0.002 A 
ATOM     18  C   UNL d   1      14.812  11.780  -1.108  0.00  0.00     0.000 A 
ATOM     19  C   UNL d   1      14.303  11.779  -0.460  0.00  0.00     0.000 A 
ATOM     20  C   UNL d   1      13.483  11.779  -0.571  0.00  0.00     0.000 A 
ATOM     21  C   UNL d   1      13.173  11.780  -1.330  0.00  0.00     0.002 A 
ENDBRANCH  15  16
ENDBRANCH  14  15
ENDBRANCH  12  14
ENDBRANCH  11  12
ENDBRANCH   8  11
BRANCH   3  22
ATOM     22  C   UNL d   1      14.815  16.296  -2.616  0.00  0.00     0.086 A 
ATOM     23  C   UNL d   1      14.927  15.836  -1.923  0.00  0.00     0.019 A 
ATOM     24  C   UNL d   1      15.191  16.190  -1.245  0.00  0.00     0.002 A 
ATOM     25  C   UNL d   1      15.354  17.015  -1.228  0.00  0.00     0.000 A 
ATOM     26  C   UNL d   1      15.243  17.454  -1.902  0.00  0.00     0.002 A 
ATOM     27  C   UNL d   1      15.630  17.389  -0.521  0.00  0.00     0.000 C 
ATOM     28  C   UNL d   1      14.975  17.106  -2.597  0.00  0.00     0.019 A 
ENDBRANCH   3  22
TORSDOF 6
ENDMDL
