MODEL 1
REMARK VINA RESULT:      49.3      0.000      0.000
REMARK  4 active torsions:
REMARK  status: ('A' for Active; 'I' for Inactive)
REMARK    1  A    between atoms: N_7  and  C_1 
REMARK    2  A    between atoms: C_9  and  N_3 
REMARK       I    between atoms: C_11  and  N_7 
REMARK    3  A    between atoms: C_15  and  C_11 
REMARK    4  A    between atoms: C_17  and  C_15 
ROOT
ATOM      1  C   UNL d   1      46.276 -17.350  43.665  0.00  0.00     0.169 A 
ATOM      2  C   UNL d   1      46.010 -16.600  43.908  0.00  0.00     0.065 A 
ATOM      3  N   UNL d   1      46.107 -17.895  44.266  0.00  0.00    -0.212 N 
ATOM      4  N   UNL d   1      45.736 -17.482  44.882  0.00  0.00    -0.163 NA
ATOM      5  C   UNL d   1      45.678 -16.684  44.660  0.00  0.00     0.114 A 
ATOM      6  S   UNL d   1      45.578 -15.397  44.311  0.00  0.00     0.091 S 
ATOM      7  C   UNL d   1      45.409 -15.941  44.912  0.00  0.00     0.090 A 
ATOM      8  C   UNL d   1      45.950 -15.808  43.692  0.00  0.00     0.073 A 
ATOM      9  O   UNL d   1      45.408 -14.585  44.323  0.00  0.00    -0.247 OA
ENDROOT
BRANCH   1  10
ATOM     10  N   UNL d   1      46.647 -17.519  42.943  0.00  0.00    -0.189 NA
ATOM     11  C   UNL d   1      46.203 -17.737  42.288  0.00  0.00     0.281 C 
ATOM     12  O   UNL d   1      45.371 -17.792  42.344  0.00  0.00    -0.265 OA
BRANCH  11  13
ATOM     13  C   UNL d   1      46.570 -17.906  41.568  0.00  0.00     0.063 C 
BRANCH  13  14
ATOM     14  C   UNL d   1      46.144 -17.821  40.870  0.00  0.00     0.005 A 
ATOM     15  C   UNL d   1      46.434 -17.333  40.274  0.00  0.00     0.003 A 
ATOM     16  C   UNL d   1      46.008 -17.246  39.572  0.00  0.00     0.030 A 
ATOM     17  C   UNL d   1      45.291 -17.648  39.468  0.00  0.00     0.140 A 
ATOM     18  C   UNL d   1      45.008 -18.133  40.068  0.00  0.00     0.030 A 
ATOM     19  F   UNL d   1      44.864 -17.561  38.766  0.00  0.00    -0.204 F 
ATOM     20  C   UNL d   1      45.431 -18.221  40.769  0.00  0.00     0.003 A 
ENDBRANCH  13  14
ENDBRANCH  11  13
ENDBRANCH   1  10
BRANCH   3  21
ATOM     21  C   UNL d   1      46.275 -18.703  44.256  0.00  0.00     0.085 A 
ATOM     22  C   UNL d   1      46.242 -19.115  43.541  0.00  0.00     0.031 A 
ATOM     23  C   UNL d   1      46.409 -19.911  43.540  0.00  0.00     0.059 A 
ATOM     24 CL   UNL d   1      46.379 -20.329  42.837  0.00  0.00    -0.082 Cl
ATOM     25  C   UNL d   1      46.609 -20.302  44.238  0.00  0.00     0.011 A 
ATOM     26  C   UNL d   1      46.642 -19.893  44.944  0.00  0.00     0.002 A 
ATOM     27  C   UNL d   1      46.474 -19.085  44.955  0.00  0.00     0.019 A 
ENDBRANCH   3  21
TORSDOF 4
ENDMDL
MODEL 2
REMARK VINA RESULT:      49.5      4.530      6.926
REMARK  4 active torsions:
REMARK  status: ('A' for Active; 'I' for Inactive)
REMARK    1  A    between atoms: N_7  and  C_1 
REMARK    2  A    between atoms: C_9  and  N_3 
REMARK       I    between atoms: C_11  and  N_7 
REMARK    3  A    between atoms: C_15  and  C_11 
REMARK    4  A    between atoms: C_17  and  C_15 
ROOT
ATOM      1  C   UNL d   1      44.161 -16.031  36.897  0.00  0.00     0.169 A 
ATOM      2  C   UNL d   1      43.348 -16.105  36.736  0.00  0.00     0.065 A 
ATOM      3  N   UNL d   1      44.386 -15.248  36.752  0.00  0.00    -0.212 N 
ATOM      4  N   UNL d   1      43.712 -14.835  36.502  0.00  0.00    -0.163 NA
ATOM      5  C   UNL d   1      43.074 -15.364  36.493  0.00  0.00     0.114 A 
ATOM      6  S   UNL d   1      42.037 -16.210  36.475  0.00  0.00     0.091 S 
ATOM      7  C   UNL d   1      42.262 -15.427  36.330  0.00  0.00     0.090 A 
ATOM      8  C   UNL d   1      42.711 -16.627  36.726  0.00  0.00     0.073 A 
ATOM      9  O   UNL d   1      41.276 -16.526  36.386  0.00  0.00    -0.247 OA
ENDROOT
BRANCH   1  10
ATOM     10  N   UNL d   1      44.658 -16.642  37.157  0.00  0.00    -0.189 NA
ATOM     11  C   UNL d   1      44.636 -16.893  37.937  0.00  0.00     0.281 C 
ATOM     12  O   UNL d   1      44.110 -16.533  38.479  0.00  0.00    -0.265 OA
BRANCH  11  13
ATOM     13  C   UNL d   1      45.129 -17.501  38.199  0.00  0.00     0.063 C 
BRANCH  13  14
ATOM     14  C   UNL d   1      45.243 -17.607  39.006  0.00  0.00     0.005 A 
ATOM     15  C   UNL d   1      45.974 -17.426  39.340  0.00  0.00     0.003 A 
ATOM     16  C   UNL d   1      46.091 -17.531  40.150  0.00  0.00     0.030 A 
ATOM     17  C   UNL d   1      45.477 -17.818  40.626  0.00  0.00     0.140 A 
ATOM     18  C   UNL d   1      44.751 -17.997  40.285  0.00  0.00     0.030 A 
ATOM     19  F   UNL d   1      45.594 -17.924  41.437  0.00  0.00    -0.204 F 
ATOM     20  C   UNL d   1      44.631 -17.893  39.477  0.00  0.00     0.003 A 
ENDBRANCH  13  14
ENDBRANCH  11  13
ENDBRANCH   1  10
BRANCH   3  21
ATOM     21  C   UNL d   1      45.144 -14.931  36.840  0.00  0.00     0.085 A 
ATOM     22  C   UNL d   1      45.263 -14.301  37.361  0.00  0.00     0.031 A 
ATOM     23  C   UNL d   1      46.011 -13.996  37.441  0.00  0.00     0.059 A 
ATOM     24 CL   UNL d   1      46.140 -13.371  37.956  0.00  0.00    -0.082 Cl
ATOM     25  C   UNL d   1      46.644 -14.307  37.012  0.00  0.00     0.011 A 
ATOM     26  C   UNL d   1      46.526 -14.929  36.498  0.00  0.00     0.002 A 
ATOM     27  C   UNL d   1      45.768 -15.246  36.409  0.00  0.00     0.019 A 
ENDBRANCH   3  21
TORSDOF 4
ENDMDL
