MODEL 1
REMARK VINA RESULT:      -4.8      0.000      0.000
REMARK  5 active torsions:
REMARK  status: ('A' for Active; 'I' for Inactive)
REMARK    1  A    between atoms: C_7  and  C_3 
REMARK    2  A    between atoms: C_8  and  C_7 
REMARK       I    between atoms: N_14  and  C_8 
REMARK    3  A    between atoms: N_9  and  C_16 
REMARK    4  A    between atoms: C_15  and  N_14 
REMARK    5  A    between atoms: C_16  and  C_15 
ROOT
ATOM      1  C   UNL d   1      57.424   0.463  31.338  0.00  0.00     0.281 C 
ATOM      2  O   UNL d   1      58.055   0.564  31.859  0.00  0.00    -0.265 OA
ATOM      3  N   UNL d   1      57.563   0.226  30.561  0.00  0.00    -0.205 NA
ENDROOT
BRANCH   1   4
ATOM      4  C   UNL d   1      56.654   0.600  31.593  0.00  0.00     0.082 C 
BRANCH   4   5
ATOM      5  C   UNL d   1      56.343   0.165  32.224  0.00  0.00     0.096 A 
ATOM      6  C   UNL d   1      56.038   0.558  32.883  0.00  0.00     0.082 A 
ATOM      7  C   UNL d   1      55.723   0.133  33.523  0.00  0.00     0.285 A 
ATOM      8  N   UNL d   1      55.725  -0.692  33.482  0.00  0.00    -0.152 NA
ATOM      9  O   UNL d   1      55.421   0.521  34.174  0.00  0.00    -0.265 OA
ATOM     10  C   UNL d   1      56.031  -1.084  32.824  0.00  0.00     0.371 A 
ATOM     11  N   UNL d   1      56.338  -0.656  32.200  0.00  0.00    -0.191 NA
ATOM     12  O   UNL d   1      56.026  -1.910  32.798  0.00  0.00    -0.242 OA
ENDBRANCH   4   5
ENDBRANCH   1   4
BRANCH   3  13
ATOM     13  C   UNL d   1      58.333   0.090  30.306  0.00  0.00     0.121 C 
BRANCH  13  14
ATOM     14  C   UNL d   1      58.489  -0.046  29.502  0.00  0.00     0.101 C 
BRANCH  14  15
ATOM     15  N   UNL d   1      59.204  -0.366  29.256  0.00  0.00    -0.298 N 
ATOM     16  C   UNL d   1      59.241  -1.178  29.118  0.00  0.00     0.107 A 
ATOM     17  C   UNL d   1      59.965  -1.509  28.868  0.00  0.00     0.142 A 
ATOM     18  O   UNL d   1      60.623  -1.031  28.764  0.00  0.00    -0.300 OA
ATOM     19  C   UNL d   1      60.565  -0.221  28.908  0.00  0.00     0.142 A 
ATOM     20  C   UNL d   1      59.854   0.108  29.154  0.00  0.00     0.107 A 
ENDBRANCH  14  15
ENDBRANCH  13  14
ENDBRANCH   3  13
TORSDOF 5
ENDMDL
MODEL 2
REMARK VINA RESULT:      -4.0      1.002      4.901
REMARK  5 active torsions:
REMARK  status: ('A' for Active; 'I' for Inactive)
REMARK    1  A    between atoms: C_7  and  C_3 
REMARK    2  A    between atoms: C_8  and  C_7 
REMARK       I    between atoms: N_14  and  C_8 
REMARK    3  A    between atoms: N_9  and  C_16 
REMARK    4  A    between atoms: C_15  and  N_14 
REMARK    5  A    between atoms: C_16  and  C_15 
ROOT
ATOM      1  C   UNL d   1      57.916   0.187  30.592  0.00  0.00     0.281 C 
ATOM      2  O   UNL d   1      58.487   0.627  30.993  0.00  0.00    -0.265 OA
ATOM      3  N   UNL d   1      57.253  -0.091  30.993  0.00  0.00    -0.205 NA
ENDROOT
BRANCH   1   4
ATOM      4  C   UNL d   1      58.009   0.025  29.790  0.00  0.00     0.082 C 
BRANCH   4   5
ATOM      5  C   UNL d   1      58.584  -0.514  29.540  0.00  0.00     0.096 A 
ATOM      6  C   UNL d   1      59.341  -0.248  29.351  0.00  0.00     0.082 A 
ATOM      7  C   UNL d   1      59.927  -0.779  29.099  0.00  0.00     0.285 A 
ATOM      8  N   UNL d   1      59.732  -1.579  29.043  0.00  0.00    -0.152 NA
ATOM      9  O   UNL d   1      60.678  -0.516  28.911  0.00  0.00    -0.265 OA
ATOM     10  C   UNL d   1      58.974  -1.845  29.233  0.00  0.00     0.371 A 
ATOM     11  N   UNL d   1      58.405  -1.313  29.480  0.00  0.00    -0.191 NA
ATOM     12  O   UNL d   1      58.792  -2.649  29.172  0.00  0.00    -0.242 OA
ENDBRANCH   4   5
ENDBRANCH   1   4
BRANCH   3  13
ATOM     13  C   UNL d   1      57.160   0.071  31.794  0.00  0.00     0.121 C 
BRANCH  13  14
ATOM     14  C   UNL d   1      56.641  -0.385  32.255  0.00  0.00     0.101 C 
BRANCH  14  15
ATOM     15  N   UNL d   1      56.295  -0.077  32.933  0.00  0.00    -0.298 N 
ATOM     16  C   UNL d   1      55.485  -0.188  33.043  0.00  0.00     0.107 A 
ATOM     17  C   UNL d   1      55.128   0.122  33.731  0.00  0.00     0.142 A 
ATOM     18  O   UNL d   1      55.579   0.528  34.282  0.00  0.00    -0.300 OA
ATOM     19  C   UNL d   1      56.387   0.628  34.153  0.00  0.00     0.142 A 
ATOM     20  C   UNL d   1      56.742   0.324  33.478  0.00  0.00     0.107 A 
ENDBRANCH  14  15
ENDBRANCH  13  14
ENDBRANCH   3  13
TORSDOF 5
ENDMDL
