MODEL 1
REMARK VINA RESULT:      23.9      0.000      0.000
REMARK  3 active torsions:
REMARK  status: ('A' for Active; 'I' for Inactive)
REMARK    1  A    between atoms: C_2  and  S_1 
REMARK    2  A    between atoms: N_3  and  S_1 
REMARK    3  A    between atoms: C_9  and  N_3 
ROOT
ATOM      1  S   UNL d   1      46.250 -17.092  44.400  0.00  0.00     0.285 S 
ATOM      2  O   UNL d   1      46.631 -16.623  43.847  0.00  0.00    -0.198 OA
ATOM      3  O   UNL d   1      45.865 -17.567  44.955  0.00  0.00    -0.198 OA
ENDROOT
BRANCH   1   4
ATOM      4  C   UNL d   1      46.240 -17.718  43.860  0.00  0.00     0.105 A 
ATOM      5  C   UNL d   1      46.098 -17.575  43.063  0.00  0.00     0.013 A 
ATOM      6  C   UNL d   1      46.087 -18.193  42.527  0.00  0.00     0.001 A 
ATOM      7  C   UNL d   1      45.944 -18.050  41.723  0.00  0.00     0.000 C 
ATOM      8  C   UNL d   1      46.219 -18.967  42.783  0.00  0.00     0.000 A 
ATOM      9  C   UNL d   1      46.362 -19.113  43.583  0.00  0.00     0.001 A 
ATOM     10  C   UNL d   1      46.210 -19.597  42.247  0.00  0.00     0.000 C 
ATOM     11  C   UNL d   1      46.372 -18.488  44.125  0.00  0.00     0.012 A 
ATOM     12  C   UNL d   1      46.515 -18.635  44.921  0.00  0.00     0.001 C 
ENDBRANCH   1   4
BRANCH   1  13
ATOM     13  N   UNL d   1      46.259 -16.467  44.941  0.00  0.00    -0.159 NA
BRANCH  13  14
ATOM     14  C   UNL d   1      45.855 -15.774  44.772  0.00  0.00     0.089 A 
ATOM     15  C   UNL d   1      45.038 -15.730  44.889  0.00  0.00     0.015 A 
ATOM     16  C   UNL d   1      44.631 -15.039  44.720  0.00  0.00     0.100 A 
ATOM     17  C   UNL d   1      43.925 -14.619  44.692  0.00  0.00     0.029 C 
ATOM     18  C   UNL d   1      43.929 -15.399  44.955  0.00  0.00     0.029 C 
ATOM     19  N   UNL d   1      45.036 -14.386  44.434  0.00  0.00    -0.295 NA
ATOM     20  C   UNL d   1      45.850 -14.422  44.315  0.00  0.00     0.100 A 
ATOM     21  C   UNL d   1      46.257 -15.114  44.484  0.00  0.00     0.015 A 
ATOM     22  C   UNL d   1      46.555 -14.066  44.081  0.00  0.00     0.029 C 
ATOM     23  C   UNL d   1      45.845 -13.638  44.050  0.00  0.00     0.029 C 
ENDBRANCH  13  14
ENDBRANCH   1  13
TORSDOF 3
ENDMDL
