MODEL 1
REMARK VINA RESULT:      21.3      0.000      0.000
REMARK  5 active torsions:
REMARK  status: ('A' for Active; 'I' for Inactive)
REMARK    1  A    between atoms: C_6  and  N_1 
REMARK    2  A    between atoms: C_10  and  C_3 
REMARK    3  A    between atoms: C_7  and  C_6 
REMARK    4  A    between atoms: C_13  and  C_10 
REMARK    5  A    between atoms: C_14  and  C_13 
ROOT
ATOM      1  N   UNL d   1      14.292  12.668  -1.732  0.00  0.00    -0.289 N 
ATOM      2  N   UNL d   1      14.002  13.503  -2.747  0.00  0.00    -0.227 NA
ATOM      3  C   UNL d   1      13.942  12.699  -2.480  0.00  0.00     0.148 A 
ATOM      4  C   UNL d   1      14.558  13.400  -1.532  0.00  0.00     0.083 A 
ATOM      5  C   UNL d   1      14.375  13.927  -2.172  0.00  0.00     0.099 A 
ATOM      6  C   UNL d   1      14.943  13.687  -0.864  0.00  0.00     0.019 A 
ATOM      7  C   UNL d   1      14.608  14.714  -2.069  0.00  0.00     0.021 A 
ATOM      8  C   UNL d   1      15.142  14.461  -0.825  0.00  0.00     0.002 A 
ATOM      9  C   UNL d   1      14.965  14.970  -1.444  0.00  0.00     0.002 A 
ENDROOT
BRANCH   1  10
ATOM     10  C   UNL d   1      14.277  11.949  -1.411  0.00  0.00     0.088 C 
BRANCH  10  11
ATOM     11  C   UNL d   1      14.253  11.838  -0.606  0.00  0.00     0.052 C 
ATOM     12  C   UNL d   1      13.516  11.780  -0.239  0.00  0.00     0.009 C 
ATOM     13 BR   UNL d   1      14.923  11.779  -0.142  0.00  0.00    -0.048 Br
ENDBRANCH  10  11
ENDBRANCH   1  10
BRANCH   3  14
ATOM     14  C   UNL d   1      13.599  12.075  -2.895  0.00  0.00     0.037 C 
BRANCH  14  15
ATOM     15  C   UNL d   1      13.155  12.226  -3.574  0.00  0.00     0.003 C 
BRANCH  15  16
ATOM     16  C   UNL d   1      13.283  11.784  -4.259  0.00  0.00     0.000 C 
ATOM     17  C   UNL d   1      13.117  12.111  -4.997  0.00  0.00     0.000 C 
ENDBRANCH  15  16
ENDBRANCH  14  15
ENDBRANCH   3  14
TORSDOF 5
ENDMDL
