MODEL 1
REMARK VINA RESULT:      -1.5      0.000      0.000
REMARK  5 active torsions:
REMARK  status: ('A' for Active; 'I' for Inactive)
REMARK    1  A    between atoms: N_5  and  S_1 
REMARK    2  A    between atoms: C_7  and  S_1 
REMARK       I    between atoms: C_4  and  N_2 
REMARK    3  A    between atoms: C_3  and  N_11 
REMARK    4  A    between atoms: C_6  and  C_4 
REMARK    5  A    between atoms: N_11  and  C_19 
ROOT
ATOM      1  C   UNL d   1      32.728  18.612 -23.451  0.00  0.00     0.104 A 
ATOM      2  C   UNL d   1      33.171  18.735 -22.750  0.00  0.00     0.014 A 
ATOM      3  C   UNL d   1      32.355  19.272 -23.828  0.00  0.00     0.014 A 
ATOM      4  C   UNL d   1      32.866  20.151 -22.815  0.00  0.00     0.084 A 
ATOM      5  C   UNL d   1      33.241  19.510 -22.430  0.00  0.00     0.020 A 
ATOM      6  C   UNL d   1      32.423  20.031 -23.514  0.00  0.00     0.020 A 
ENDROOT
BRANCH   4   7
ATOM      7  N   UNL d   1      32.935  20.920 -22.497  0.00  0.00    -0.217 NA
BRANCH   7   8
ATOM      8  C   UNL d   1      33.071  21.520 -22.972  0.00  0.00     0.224 C 
ATOM      9  N   UNL d   1      33.013  22.753 -22.475  0.00  0.00    -0.178 NA
ATOM     10  C   UNL d   1      32.846  22.876 -21.721  0.00  0.00     0.287 C 
ATOM     11  O   UNL d   1      32.812  23.608 -21.427  0.00  0.00    -0.265 OA
ATOM     12  S   UNL d   1      33.241  21.409 -23.739  0.00  0.00    -0.037 SA
BRANCH  10  13
ATOM     13  C   UNL d   1      32.710  22.251 -21.246  0.00  0.00     0.087 A 
ATOM     14  S   UNL d   1      33.240  21.852 -20.834  0.00  0.00    -0.082 SA
ATOM     15  C   UNL d   1      32.857  21.278 -20.442  0.00  0.00     0.036 A 
ATOM     16  C   UNL d   1      32.115  21.328 -20.614  0.00  0.00     0.008 A 
ATOM     17  C   UNL d   1      32.008  21.925 -21.110  0.00  0.00     0.012 A 
ENDBRANCH  10  13
ENDBRANCH   7   8
ENDBRANCH   4   7
BRANCH   1  18
ATOM     18  S   UNL d   1      32.659  17.836 -23.771  0.00  0.00     0.271 S 
ATOM     19  O   UNL d   1      32.160  18.123 -24.358  0.00  0.00    -0.200 OA
ATOM     20  O   UNL d   1      33.170  17.542 -23.170  0.00  0.00    -0.200 OA
BRANCH  18  21
ATOM     21  N   UNL d   1      32.591  17.080 -24.084  0.00  0.00    -0.229 N 
ATOM     22  C   UNL d   1      31.842  16.659 -24.025  0.00  0.00     0.092 A 
ATOM     23  C   UNL d   1      31.773  15.899 -24.339  0.00  0.00     0.020 A 
ATOM     24  C   UNL d   1      32.453  15.544 -24.719  0.00  0.00     0.003 A 
ATOM     25  C   UNL d   1      33.162  15.953 -24.769  0.00  0.00     0.020 A 
ATOM     26  C   UNL d   1      33.231  16.723 -24.451  0.00  0.00     0.092 A 
ENDBRANCH  18  21
ENDBRANCH   1  18
TORSDOF 5
ENDMDL
MODEL 2
REMARK VINA RESULT:      -0.3      1.323      5.318
REMARK  5 active torsions:
REMARK  status: ('A' for Active; 'I' for Inactive)
REMARK    1  A    between atoms: N_5  and  S_1 
REMARK    2  A    between atoms: C_7  and  S_1 
REMARK       I    between atoms: C_4  and  N_2 
REMARK    3  A    between atoms: C_3  and  N_11 
REMARK    4  A    between atoms: C_6  and  C_4 
REMARK    5  A    between atoms: N_11  and  C_19 
ROOT
ATOM      1  C   UNL d   1      32.542  20.352 -22.184  0.00  0.00     0.104 A 
ATOM      2  C   UNL d   1      31.845  20.132 -22.594  0.00  0.00     0.014 A 
ATOM      3  C   UNL d   1      33.239  19.880 -22.267  0.00  0.00     0.014 A 
ATOM      4  C   UNL d   1      32.544  18.990 -23.152  0.00  0.00     0.084 A 
ATOM      5  C   UNL d   1      31.846  19.446 -23.082  0.00  0.00     0.020 A 
ATOM      6  C   UNL d   1      33.240  19.208 -22.744  0.00  0.00     0.020 A 
ENDROOT
BRANCH   4   7
ATOM      7  N   UNL d   1      32.544  18.310 -23.636  0.00  0.00    -0.217 NA
BRANCH   7   8
ATOM      8  C   UNL d   1      32.860  18.344 -24.345  0.00  0.00     0.224 C 
ATOM      9  N   UNL d   1      33.057  17.209 -25.012  0.00  0.00    -0.178 NA
ATOM     10  C   UNL d   1      32.860  16.520 -24.700  0.00  0.00     0.287 C 
ATOM     11  O   UNL d   1      32.977  15.847 -25.097  0.00  0.00    -0.265 OA
ATOM     12  S   UNL d   1      33.064  19.037 -24.673  0.00  0.00    -0.037 SA
BRANCH  10  13
ATOM     13  C   UNL d   1      32.537  16.500 -23.972  0.00  0.00     0.087 A 
ATOM     14  S   UNL d   1      32.920  16.480 -23.292  0.00  0.00    -0.082 SA
ATOM     15  C   UNL d   1      32.378  16.465 -22.712  0.00  0.00     0.036 A 
ATOM     16  C   UNL d   1      31.685  16.475 -23.034  0.00  0.00     0.008 A 
ATOM     17  C   UNL d   1      31.768  16.497 -23.813  0.00  0.00     0.012 A 
ENDBRANCH  10  13
ENDBRANCH   7   8
ENDBRANCH   4   7
BRANCH   1  18
ATOM     18  S   UNL d   1      32.541  21.039 -21.696  0.00  0.00     0.271 S 
ATOM     19  O   UNL d   1      32.532  21.514 -22.365  0.00  0.00    -0.200 OA
ATOM     20  O   UNL d   1      32.550  20.551 -21.010  0.00  0.00    -0.200 OA
BRANCH  18  21
ATOM     21  N   UNL d   1      32.540  21.708 -21.221  0.00  0.00    -0.229 N 
ATOM     22  C   UNL d   1      32.922  21.684 -20.449  0.00  0.00     0.092 A 
ATOM     23  C   UNL d   1      32.921  22.356 -19.971  0.00  0.00     0.020 A 
ATOM     24  C   UNL d   1      32.539  23.067 -20.254  0.00  0.00     0.003 A 
ATOM     25  C   UNL d   1      32.178  23.080 -20.991  0.00  0.00     0.020 A 
ATOM     26  C   UNL d   1      32.179  22.399 -21.475  0.00  0.00     0.092 A 
ENDBRANCH  18  21
ENDBRANCH   1  18
TORSDOF 5
ENDMDL
