MODEL 1
REMARK VINA RESULT:      -6.1      0.000      0.000
REMARK  1 active torsions:
REMARK  status: ('A' for Active; 'I' for Inactive)
REMARK    1  A    between atoms: C_6  and  C_1 
ROOT
ATOM      1  C   UNL d   1     -41.490-122.673 -52.773  0.00  0.00     0.111 A 
ATOM      2  N   UNL d   1     -41.993-122.102 -53.083  0.00  0.00    -0.239 NA
ATOM      3  S   UNL d   1     -41.123-123.060 -53.393  0.00  0.00    -0.066 SA
ATOM      4  C   UNL d   1     -41.938-122.134 -53.911  0.00  0.00     0.088 A 
ATOM      5  C   UNL d   1     -41.401-122.726 -54.107  0.00  0.00     0.049 A 
ATOM      6  C   UNL d   1     -42.307-121.703 -54.507  0.00  0.00     0.020 A 
ATOM      7  C   UNL d   1     -41.232-122.886 -54.898  0.00  0.00     0.008 A 
ATOM      8  C   UNL d   1     -41.601-122.455 -55.494  0.00  0.00     0.001 A 
ATOM      9  C   UNL d   1     -42.138-121.863 -55.298  0.00  0.00     0.002 A 
ENDROOT
BRANCH   1  10
ATOM     10  C   UNL d   1     -41.397-122.805 -51.958  0.00  0.00     0.024 A 
ATOM     11  C   UNL d   1     -41.256-122.171 -51.447  0.00  0.00     0.004 A 
ATOM     12  C   UNL d   1     -41.165-122.310 -50.636  0.00  0.00     0.021 A 
ATOM     13  C   UNL d   1     -41.215-123.082 -50.334  0.00  0.00     0.103 A 
ATOM     14  C   UNL d   1     -41.356-123.711 -50.851  0.00  0.00     0.021 A 
ATOM     15  N   UNL d   1     -41.123-123.217 -49.521  0.00  0.00    -0.148 N 
ATOM     16  C   UNL d   1     -41.447-123.573 -51.662  0.00  0.00     0.004 A 
ENDBRANCH   1  10
TORSDOF 1
ENDMDL
MODEL 2
REMARK VINA RESULT:      -5.8      0.976      3.872
REMARK  1 active torsions:
REMARK  status: ('A' for Active; 'I' for Inactive)
REMARK    1  A    between atoms: C_6  and  C_1 
ROOT
ATOM      1  C   UNL d   1     -41.553-122.548 -52.829  0.00  0.00     0.111 A 
ATOM      2  N   UNL d   1     -41.495-123.307 -52.520  0.00  0.00    -0.239 NA
ATOM      3  S   UNL d   1     -41.463-122.011 -52.219  0.00  0.00    -0.066 SA
ATOM      4  C   UNL d   1     -41.366-123.241 -51.703  0.00  0.00     0.088 A 
ATOM      5  C   UNL d   1     -41.345-122.440 -51.512  0.00  0.00     0.049 A 
ATOM      6  C   UNL d   1     -41.265-123.804 -51.111  0.00  0.00     0.020 A 
ATOM      7  C   UNL d   1     -41.223-122.204 -50.733  0.00  0.00     0.008 A 
ATOM      8  C   UNL d   1     -41.123-122.767 -50.141  0.00  0.00     0.001 A 
ATOM      9  C   UNL d   1     -41.143-123.568 -50.331  0.00  0.00     0.002 A 
ENDROOT
BRANCH   1  10
ATOM     10  C   UNL d   1     -41.684-122.393 -53.636  0.00  0.00     0.024 A 
ATOM     11  C   UNL d   1     -41.286-122.829 -54.213  0.00  0.00     0.004 A 
ATOM     12  C   UNL d   1     -41.420-122.669 -55.014  0.00  0.00     0.021 A 
ATOM     13  C   UNL d   1     -41.953-122.073 -55.240  0.00  0.00     0.103 A 
ATOM     14  C   UNL d   1     -42.348-121.641 -54.656  0.00  0.00     0.021 A 
ATOM     15  N   UNL d   1     -42.086-121.916 -56.043  0.00  0.00    -0.148 N 
ATOM     16  C   UNL d   1     -42.214-121.801 -53.855  0.00  0.00     0.004 A 
ENDBRANCH   1  10
TORSDOF 1
ENDMDL
MODEL 3
REMARK VINA RESULT:      -5.2      1.538      4.177
REMARK  1 active torsions:
REMARK  status: ('A' for Active; 'I' for Inactive)
REMARK    1  A    between atoms: C_6  and  C_1 
ROOT
ATOM      1  C   UNL d   1     -41.602-123.159 -50.826  0.00  0.00     0.111 A 
ATOM      2  N   UNL d   1     -42.257-122.846 -50.442  0.00  0.00    -0.239 NA
ATOM      3  S   UNL d   1     -41.123-123.520 -50.271  0.00  0.00    -0.066 SA
ATOM      4  C   UNL d   1     -42.184-123.016 -49.632  0.00  0.00     0.088 A 
ATOM      5  C   UNL d   1     -41.483-123.433 -49.523  0.00  0.00     0.049 A 
ATOM      6  C   UNL d   1     -42.664-122.845 -48.985  0.00  0.00     0.020 A 
ATOM      7  C   UNL d   1     -41.262-123.679 -48.768  0.00  0.00     0.008 A 
ATOM      8  C   UNL d   1     -41.742-123.509 -48.121  0.00  0.00     0.001 A 
ATOM      9  C   UNL d   1     -42.443-123.091 -48.231  0.00  0.00     0.002 A 
ENDROOT
BRANCH   1  10
ATOM     10  C   UNL d   1     -41.483-123.097 -51.647  0.00  0.00     0.024 A 
ATOM     11  C   UNL d   1     -41.493-122.357 -52.014  0.00  0.00     0.004 A 
ATOM     12  C   UNL d   1     -41.373-122.303 -52.831  0.00  0.00     0.021 A 
ATOM     13  C   UNL d   1     -41.243-122.988 -53.283  0.00  0.00     0.103 A 
ATOM     14  C   UNL d   1     -41.234-123.725 -52.908  0.00  0.00     0.021 A 
ATOM     15  N   UNL d   1     -41.123-122.930 -54.102  0.00  0.00    -0.148 N 
ATOM     16  C   UNL d   1     -41.354-123.779 -52.091  0.00  0.00     0.004 A 
ENDBRANCH   1  10
TORSDOF 1
ENDMDL
MODEL 4
REMARK VINA RESULT:      -5.1      1.479      2.340
REMARK  1 active torsions:
REMARK  status: ('A' for Active; 'I' for Inactive)
REMARK    1  A    between atoms: C_6  and  C_1 
ROOT
ATOM      1  C   UNL d   1     -41.657-123.037 -50.751  0.00  0.00     0.111 A 
ATOM      2  N   UNL d   1     -41.621-123.691 -51.246  0.00  0.00    -0.239 NA
ATOM      3  S   UNL d   1     -41.516-122.366 -51.197  0.00  0.00    -0.066 SA
ATOM      4  C   UNL d   1     -41.455-123.422 -52.014  0.00  0.00     0.088 A 
ATOM      5  C   UNL d   1     -41.389-122.602 -51.988  0.00  0.00     0.049 A 
ATOM      6  C   UNL d   1     -41.356-123.817 -52.730  0.00  0.00     0.020 A 
ATOM      7  C   UNL d   1     -41.225-122.178 -52.675  0.00  0.00     0.008 A 
ATOM      8  C   UNL d   1     -41.125-122.573 -53.390  0.00  0.00     0.001 A 
ATOM      9  C   UNL d   1     -41.191-123.393 -53.417  0.00  0.00     0.002 A 
ENDROOT
BRANCH   1  10
ATOM     10  C   UNL d   1     -41.813-123.090 -49.936  0.00  0.00     0.024 A 
ATOM     11  C   UNL d   1     -42.559-122.894 -49.642  0.00  0.00     0.004 A 
ATOM     12  C   UNL d   1     -42.707-122.949 -48.830  0.00  0.00     0.021 A 
ATOM     13  C   UNL d   1     -42.110-123.200 -48.310  0.00  0.00     0.103 A 
ATOM     14  C   UNL d   1     -41.366-123.395 -48.612  0.00  0.00     0.021 A 
ATOM     15  N   UNL d   1     -42.263-123.255 -47.496  0.00  0.00    -0.148 N 
ATOM     16  C   UNL d   1     -41.217-123.339 -49.424  0.00  0.00     0.004 A 
ENDBRANCH   1  10
TORSDOF 1
ENDMDL
