MODEL 1
REMARK VINA RESULT:      62.0      0.000      0.000
REMARK  6 active torsions:
REMARK  status: ('A' for Active; 'I' for Inactive)
REMARK       I    between atoms: C_2  and  N_1 
REMARK    1  A    between atoms: C_3  and  C_2 
REMARK    2  A    between atoms: C_12  and  C_4 
REMARK       I    between atoms: C_5  and  N_8 
REMARK    3  A    between atoms: C_6  and  C_5 
REMARK       I    between atoms: N_9  and  C_6 
REMARK    4  A    between atoms: N_8  and  C_12 
REMARK    5  A    between atoms: C_19  and  N_9 
REMARK    6  A    between atoms: C_21  and  C_19 
ROOT
ATOM      1  C   UNL d   1     -48.876  28.035  34.289  0.00  0.00     0.337 C 
ATOM      2  N   UNL d   1     -48.437  28.504  34.802  0.00  0.00    -0.199 NA
ATOM      3  O   UNL d   1     -49.457  28.381  33.801  0.00  0.00    -0.260 OA
ENDROOT
BRANCH   2   4
ATOM      4  C   UNL d   1     -48.572  29.317  34.833  0.00  0.00     0.146 C 
BRANCH   4   5
ATOM      5  C   UNL d   1     -48.007  29.816  35.192  0.00  0.00     0.190 A 
ATOM      6  N   UNL d   1     -47.836  30.585  34.949  0.00  0.00    -0.250 N 
ATOM      7  C   UNL d   1     -48.139  31.057  34.335  0.00  0.00     0.272 C 
ATOM      8  C   UNL d   1     -47.247  30.870  35.458  0.00  0.00     0.112 A 
ATOM      9  O   UNL d   1     -48.727  30.757  33.836  0.00  0.00    -0.266 OA
ATOM     10  C   UNL d   1     -47.063  30.281  36.002  0.00  0.00     0.144 A 
ATOM     11  O   UNL d   1     -47.544  29.625  35.829  0.00  0.00    -0.285 OA
BRANCH   7  12
ATOM     12  C   UNL d   1     -47.856  31.823  34.222  0.00  0.00     0.086 A 
ATOM     13  S   UNL d   1     -47.165  32.105  33.854  0.00  0.00    -0.082 SA
ATOM     14  C   UNL d   1     -47.176  32.942  33.907  0.00  0.00     0.036 A 
ATOM     15  C   UNL d   1     -47.868  33.159  34.304  0.00  0.00     0.008 A 
ATOM     16  C   UNL d   1     -48.289  32.477  34.499  0.00  0.00     0.012 A 
ENDBRANCH   7  12
ENDBRANCH   4   5
ENDBRANCH   2   4
BRANCH   1  17
ATOM     17  C   UNL d   1     -48.743  27.235  34.258  0.00  0.00     0.337 C 
ATOM     18  N   UNL d   1     -49.294  26.729  33.929  0.00  0.00    -0.202 NA
ATOM     19  O   UNL d   1     -48.034  26.922  34.567  0.00  0.00    -0.260 OA
BRANCH  18  20
ATOM     20  C   UNL d   1     -50.003  27.037  33.621  0.00  0.00     0.102 C 
BRANCH  20  21
ATOM     21  C   UNL d   1     -50.665  26.533  33.540  0.00  0.00     0.019 A 
ATOM     22  C   UNL d   1     -51.415  26.835  33.402  0.00  0.00     0.004 A 
ATOM     23  C   UNL d   1     -52.059  26.324  33.325  0.00  0.00     0.030 A 
ATOM     24  C   UNL d   1     -51.963  25.515  33.385  0.00  0.00     0.140 A 
ATOM     25  C   UNL d   1     -51.216  25.205  33.523  0.00  0.00     0.030 A 
ATOM     26  F   UNL d   1     -52.618  25.008  33.306  0.00  0.00    -0.204 F 
ATOM     27  C   UNL d   1     -50.568  25.706  33.601  0.00  0.00     0.004 A 
ENDBRANCH  20  21
ENDBRANCH  18  20
ENDBRANCH   1  17
TORSDOF 6
ENDMDL
