MODEL 1
REMARK VINA RESULT:      58.9      0.000      0.000
REMARK  7 active torsions:
REMARK  status: ('A' for Active; 'I' for Inactive)
REMARK    1  A    between atoms: S_2  and  C_1 
REMARK    2  A    between atoms: N_7  and  S_2 
REMARK    3  A    between atoms: C_8  and  C_3 
REMARK    4  A    between atoms: C_10  and  C_6 
REMARK    5  A    between atoms: O_21  and  C_8 
REMARK    6  A    between atoms: C_17  and  N_9 
REMARK    7  A    between atoms: O_22  and  C_10 
ROOT
ATOM      1  S   UNL d   1      13.503  14.557  -3.736  0.00  0.00     0.277 S 
ATOM      2  O   UNL d   1      12.864  14.877  -4.148  0.00  0.00    -0.199 OA
ATOM      3  O   UNL d   1      12.886  14.049  -3.674  0.00  0.00    -0.199 OA
ENDROOT
BRANCH   1   4
ATOM      4  C   UNL d   1      13.749  13.904  -3.280  0.00  0.00     0.139 A 
ATOM      5  C   UNL d   1      13.565  13.156  -3.521  0.00  0.00     0.082 A 
ATOM      6  C   UNL d   1      13.874  12.636  -2.972  0.00  0.00     0.018 A 
ATOM      7  C   UNL d   1      13.828  11.780  -2.976  0.00  0.00     0.001 C 
ATOM      8  C   UNL d   1      14.250  13.069  -2.389  0.00  0.00     0.093 A 
ATOM      9  S   UNL d   1      14.180  13.870  -2.569  0.00  0.00    -0.069 SA
BRANCH   5  10
ATOM     10  C   UNL d   1      13.123  12.896  -4.224  0.00  0.00     0.297 C 
ATOM     11  O   UNL d   1      12.807  13.455  -4.751  0.00  0.00    -0.259 OA
BRANCH  10  12
ATOM     12  O   UNL d   1      13.031  12.079  -4.351  0.00  0.00    -0.296 OA
ATOM     13  C   UNL d   1      13.014  11.780  -5.134  0.00  0.00     0.185 C 
ENDBRANCH  10  12
ENDBRANCH   5  10
BRANCH   8  14
ATOM     14  C   UNL d   1      14.639  12.741  -1.724  0.00  0.00     0.302 C 
ATOM     15  O   UNL d   1      15.436  12.889  -1.600  0.00  0.00    -0.259 OA
BRANCH  14  16
ATOM     16  O   UNL d   1      14.191  12.264  -1.197  0.00  0.00    -0.295 OA
ATOM     17  C   UNL d   1      14.488  12.030  -0.467  0.00  0.00     0.185 C 
ENDBRANCH  14  16
ENDBRANCH   8  14
ENDBRANCH   1   4
BRANCH   1  18
ATOM     18  N   UNL d   1      13.752  15.294  -4.060  0.00  0.00    -0.226 N 
ATOM     19  C   UNL d   1      14.274  15.820  -3.643  0.00  0.00     0.111 A 
ATOM     20  C   UNL d   1      14.507  16.538  -3.975  0.00  0.00     0.100 A 
ATOM     21  N   UNL d   1      14.243  16.768  -4.717  0.00  0.00    -0.301 N 
ATOM     22  C   UNL d   1      13.737  16.259  -5.121  0.00  0.00     0.100 A 
ATOM     23  C   UNL d   1      13.488  15.524  -4.802  0.00  0.00     0.111 A 
BRANCH  21  24
ATOM     24  C   UNL d   1      14.458  17.458  -5.054  0.00  0.00     0.064 A 
ATOM     25  C   UNL d   1      15.093  17.903  -4.786  0.00  0.00     0.018 A 
ATOM     26  C   UNL d   1      15.307  18.616  -5.142  0.00  0.00     0.002 A 
ATOM     27  C   UNL d   1      14.877  18.887  -5.777  0.00  0.00     0.000 A 
ATOM     28  C   UNL d   1      14.237  18.449  -6.056  0.00  0.00     0.002 A 
ATOM     29  C   UNL d   1      14.023  17.747  -5.709  0.00  0.00     0.018 A 
ENDBRANCH  21  24
ENDBRANCH   1  18
TORSDOF 7
ENDMDL
