MODEL 1
REMARK VINA RESULT:       5.8      0.000      0.000
REMARK  1 active torsions:
REMARK  status: ('A' for Active; 'I' for Inactive)
REMARK    1  A    between atoms: C_6  and  C_3 
ROOT
ATOM      1  C   UNL d   1      24.279  12.623  -2.454  0.00  0.00     0.018 A 
ATOM      2  C   UNL d   1      24.101  11.913  -2.791  0.00  0.00     0.005 A 
ATOM      3  C   UNL d   1      24.618  13.236  -2.899  0.00  0.00     0.005 A 
ATOM      4  C   UNL d   1      24.592  12.392  -4.041  0.00  0.00     0.196 A 
ATOM      5  C   UNL d   1      24.253  11.779  -3.595  0.00  0.00     0.042 A 
ATOM      6  C   UNL d   1      24.768  13.100  -3.700  0.00  0.00     0.042 A 
ATOM      7  O   UNL d   1      24.741  12.255  -4.837  0.00  0.00    -0.287 OA
ENDROOT
BRANCH   1   8
ATOM      8  C   UNL d   1      24.130  12.760  -1.658  0.00  0.00     0.090 A 
ATOM      9  N   UNL d   1      23.380  12.929  -1.386  0.00  0.00    -0.219 NA
ATOM     10  C   UNL d   1      23.407  13.038  -0.575  0.00  0.00     0.215 A 
ATOM     11  S   UNL d   1      24.154  12.941  -0.333  0.00  0.00    -0.045 SA
ATOM     12  N   UNL d   1      22.782  13.220  -0.054  0.00  0.00    -0.120 N 
ATOM     13  C   UNL d   1      24.625  12.766  -0.997  0.00  0.00     0.058 A 
ENDBRANCH   1   8
TORSDOF 1
ENDMDL
MODEL 2
REMARK VINA RESULT:       7.0     10.136     10.785
REMARK  1 active torsions:
REMARK  status: ('A' for Active; 'I' for Inactive)
REMARK    1  A    between atoms: C_6  and  C_3 
ROOT
ATOM      1  C   UNL d   1      13.861  12.139  -2.300  0.00  0.00     0.018 A 
ATOM      2  C   UNL d   1      14.563  12.518  -2.185  0.00  0.00     0.005 A 
ATOM      3  C   UNL d   1      13.459  11.780  -1.669  0.00  0.00     0.005 A 
ATOM      4  C   UNL d   1      14.499  12.196  -0.797  0.00  0.00     0.196 A 
ATOM      5  C   UNL d   1      14.901  12.557  -1.429  0.00  0.00     0.042 A 
ATOM      6  C   UNL d   1      13.798  11.819  -0.917  0.00  0.00     0.042 A 
ATOM      7  O   UNL d   1      14.838  12.237  -0.049  0.00  0.00    -0.287 OA
ENDROOT
BRANCH   1   8
ATOM      8  C   UNL d   1      13.522  12.099  -3.048  0.00  0.00     0.090 A 
ATOM      9  N   UNL d   1      13.895  12.408  -3.704  0.00  0.00    -0.219 NA
ATOM     10  C   UNL d   1      13.425  12.284  -4.363  0.00  0.00     0.215 A 
ATOM     11  S   UNL d   1      12.769  11.906  -4.136  0.00  0.00    -0.045 SA
ATOM     12  N   UNL d   1      13.572  12.501  -5.154  0.00  0.00    -0.120 N 
ATOM     13  C   UNL d   1      12.809  11.780  -3.313  0.00  0.00     0.058 A 
ENDBRANCH   1   8
TORSDOF 1
ENDMDL
MODEL 3
REMARK VINA RESULT:       8.4      9.915     10.423
REMARK  1 active torsions:
REMARK  status: ('A' for Active; 'I' for Inactive)
REMARK    1  A    between atoms: C_6  and  C_3 
ROOT
ATOM      1  C   UNL d   1      13.700  12.081  -2.381  0.00  0.00     0.018 A 
ATOM      2  C   UNL d   1      14.196  12.468  -2.885  0.00  0.00     0.005 A 
ATOM      3  C   UNL d   1      12.973  11.779  -2.644  0.00  0.00     0.005 A 
ATOM      4  C   UNL d   1      13.261  12.272  -3.943  0.00  0.00     0.196 A 
ATOM      5  C   UNL d   1      13.989  12.574  -3.680  0.00  0.00     0.042 A 
ATOM      6  C   UNL d   1      12.769  11.886  -3.437  0.00  0.00     0.042 A 
ATOM      7  O   UNL d   1      13.060  12.380  -4.733  0.00  0.00    -0.287 OA
ENDROOT
BRANCH   1   8
ATOM      8  C   UNL d   1      13.901  11.973  -1.591  0.00  0.00     0.090 A 
ATOM      9  N   UNL d   1      14.679  11.951  -1.347  0.00  0.00    -0.219 NA
ATOM     10  C   UNL d   1      14.702  11.838  -0.537  0.00  0.00     0.215 A 
ATOM     11  S   UNL d   1      13.960  11.789  -0.268  0.00  0.00    -0.045 SA
ATOM     12  N   UNL d   1      15.369  11.779  -0.039  0.00  0.00    -0.120 N 
ATOM     13  C   UNL d   1      13.440  11.871  -0.915  0.00  0.00     0.058 A 
ENDBRANCH   1   8
TORSDOF 1
ENDMDL
