MODEL 1
REMARK VINA RESULT:      -8.7      0.000      0.000
REMARK  2 active torsions:
REMARK  status: ('A' for Active; 'I' for Inactive)
REMARK    1  A    between atoms: C_6  and  N_2 
REMARK    2  A    between atoms: C_8  and  C_5 
ROOT
ATOM      1  C   UNL d   1     -48.669  11.478  23.467  0.00  0.00     0.265 A 
ATOM      2  N   UNL d   1     -48.578  12.267  23.242  0.00  0.00    -0.275 N 
ATOM      3  C   UNL d   1     -49.863  12.067  23.534  0.00  0.00     0.021 A 
ATOM      4  C   UNL d   1     -49.464  11.354  23.648  0.00  0.00     0.063 A 
ATOM      5  C   UNL d   1     -49.312  12.631  23.283  0.00  0.00     0.067 A 
ATOM      6  O   UNL d   1     -48.066  10.907  23.507  0.00  0.00    -0.267 OA
ATOM      7  C   UNL d   1     -50.670  12.193  23.651  0.00  0.00     0.002 C 
ENDROOT
BRANCH   2   8
ATOM      8  C   UNL d   1     -47.863  12.621  23.016  0.00  0.00     0.067 A 
ATOM      9  C   UNL d   1     -47.361  12.931  23.597  0.00  0.00     0.018 A 
ATOM     10  C   UNL d   1     -46.653  13.284  23.388  0.00  0.00     0.002 A 
ATOM     11  C   UNL d   1     -46.435  13.332  22.588  0.00  0.00     0.000 A 
ATOM     12  C   UNL d   1     -46.943  13.019  22.007  0.00  0.00     0.002 A 
ATOM     13  C   UNL d   1     -45.722  13.686  22.370  0.00  0.00     0.000 C 
ATOM     14  C   UNL d   1     -47.652  12.667  22.224  0.00  0.00     0.018 A 
ENDBRANCH   2   8
BRANCH   5  15
ATOM     15  C   UNL d   1     -49.476  13.419  23.104  0.00  0.00     0.016 A 
ATOM     16  C   UNL d   1     -49.692  13.634  22.334  0.00  0.00     0.002 A 
ATOM     17  C   UNL d   1     -49.856  14.423  22.156  0.00  0.00     0.011 A 
ATOM     18  C   UNL d   1     -49.805  15.002  22.749  0.00  0.00     0.058 A 
ATOM     19  C   UNL d   1     -49.590  14.790  23.517  0.00  0.00     0.011 A 
ATOM     20 CL   UNL d   1     -49.971  15.797  22.565  0.00  0.00    -0.082 Cl
ATOM     21  C   UNL d   1     -49.425  13.999  23.698  0.00  0.00     0.002 A 
ENDBRANCH   5  15
TORSDOF 2
ENDMDL
MODEL 2
REMARK VINA RESULT:      -8.2      1.229      2.874
REMARK  2 active torsions:
REMARK  status: ('A' for Active; 'I' for Inactive)
REMARK    1  A    between atoms: C_6  and  N_2 
REMARK    2  A    between atoms: C_8  and  C_5 
ROOT
ATOM      1  C   UNL d   1     -49.161  11.552  23.469  0.00  0.00     0.265 A 
ATOM      2  N   UNL d   1     -48.821  12.248  23.185  0.00  0.00    -0.275 N 
ATOM      3  C   UNL d   1     -47.837  11.427  23.552  0.00  0.00     0.021 A 
ATOM      4  C   UNL d   1     -48.553  11.044  23.696  0.00  0.00     0.063 A 
ATOM      5  C   UNL d   1     -48.005  12.173  23.235  0.00  0.00     0.067 A 
ATOM      6  O   UNL d   1     -49.975  11.389  23.519  0.00  0.00    -0.267 OA
ATOM      7  C   UNL d   1     -47.086  11.119  23.698  0.00  0.00     0.002 C 
ENDROOT
BRANCH   2   8
ATOM      8  C   UNL d   1     -49.239  12.905  22.900  0.00  0.00     0.067 A 
ATOM      9  C   UNL d   1     -49.441  12.940  22.097  0.00  0.00     0.018 A 
ATOM     10  C   UNL d   1     -49.854  13.582  21.802  0.00  0.00     0.002 A 
ATOM     11  C   UNL d   1     -50.073  14.203  22.309  0.00  0.00     0.000 A 
ATOM     12  C   UNL d   1     -49.868  14.162  23.115  0.00  0.00     0.002 A 
ATOM     13  C   UNL d   1     -50.490  14.853  22.018  0.00  0.00     0.000 C 
ATOM     14  C   UNL d   1     -49.454  13.515  23.404  0.00  0.00     0.018 A 
ENDBRANCH   2   8
BRANCH   5  15
ATOM     15  C   UNL d   1     -47.449  12.738  23.010  0.00  0.00     0.016 A 
ATOM     16  C   UNL d   1     -47.167  12.756  22.231  0.00  0.00     0.002 A 
ATOM     17  C   UNL d   1     -46.610  13.322  22.006  0.00  0.00     0.011 A 
ATOM     18  C   UNL d   1     -46.332  13.875  22.561  0.00  0.00     0.058 A 
ATOM     19  C   UNL d   1     -46.611  13.859  23.336  0.00  0.00     0.011 A 
ATOM     20 CL   UNL d   1     -45.770  14.444  22.329  0.00  0.00    -0.082 Cl
ATOM     21  C   UNL d   1     -47.170  13.292  23.564  0.00  0.00     0.002 A 
ENDBRANCH   5  15
TORSDOF 2
ENDMDL
MODEL 3
REMARK VINA RESULT:      -8.1      1.740      2.658
REMARK  2 active torsions:
REMARK  status: ('A' for Active; 'I' for Inactive)
REMARK    1  A    between atoms: C_6  and  N_2 
REMARK    2  A    between atoms: C_8  and  C_5 
ROOT
ATOM      1  C   UNL d   1     -47.819  15.174  22.538  0.00  0.00     0.265 A 
ATOM      2  N   UNL d   1     -48.002  14.380  22.670  0.00  0.00    -0.275 N 
ATOM      3  C   UNL d   1     -49.146  15.057  22.575  0.00  0.00     0.021 A 
ATOM      4  C   UNL d   1     -48.527  15.593  22.479  0.00  0.00     0.063 A 
ATOM      5  C   UNL d   1     -48.818  14.306  22.693  0.00  0.00     0.067 A 
ATOM      6  O   UNL d   1     -47.056  15.498  22.476  0.00  0.00    -0.267 OA
ATOM      7  C   UNL d   1     -49.950  15.239  22.555  0.00  0.00     0.002 C 
ENDROOT
BRANCH   2   8
ATOM      8  C   UNL d   1     -47.448  13.770  22.763  0.00  0.00     0.067 A 
ATOM      9  C   UNL d   1     -47.168  13.370  22.093  0.00  0.00     0.018 A 
ATOM     10  C   UNL d   1     -46.622  12.766  22.169  0.00  0.00     0.002 A 
ATOM     11  C   UNL d   1     -46.345  12.551  22.922  0.00  0.00     0.000 A 
ATOM     12  C   UNL d   1     -46.629  12.956  23.593  0.00  0.00     0.002 A 
ATOM     13  C   UNL d   1     -45.793  11.943  23.007  0.00  0.00     0.000 C 
ATOM     14  C   UNL d   1     -47.177  13.561  23.508  0.00  0.00     0.018 A 
ENDBRANCH   2   8
BRANCH   5  15
ATOM     15  C   UNL d   1     -49.242  13.608  22.812  0.00  0.00     0.016 A 
ATOM     16  C   UNL d   1     -49.453  13.377  23.579  0.00  0.00     0.002 A 
ATOM     17  C   UNL d   1     -49.876  12.679  23.698  0.00  0.00     0.011 A 
ATOM     18  C   UNL d   1     -50.091  12.207  23.049  0.00  0.00     0.058 A 
ATOM     19  C   UNL d   1     -49.882  12.436  22.285  0.00  0.00     0.011 A 
ATOM     20 CL   UNL d   1     -50.518  11.503  23.174  0.00  0.00    -0.082 Cl
ATOM     21  C   UNL d   1     -49.457  13.136  22.163  0.00  0.00     0.002 A 
ENDBRANCH   5  15
TORSDOF 2
ENDMDL
MODEL 4
REMARK VINA RESULT:      -8.0      1.820      3.484
REMARK  2 active torsions:
REMARK  status: ('A' for Active; 'I' for Inactive)
REMARK    1  A    between atoms: C_6  and  N_2 
REMARK    2  A    between atoms: C_8  and  C_5 
ROOT
ATOM      1  C   UNL d   1     -46.985  14.722  22.585  0.00  0.00     0.265 A 
ATOM      2  N   UNL d   1     -47.672  14.272  22.661  0.00  0.00    -0.275 N 
ATOM      3  C   UNL d   1     -46.629  13.446  22.731  0.00  0.00     0.021 A 
ATOM      4  C   UNL d   1     -46.339  14.211  22.629  0.00  0.00     0.063 A 
ATOM      5  C   UNL d   1     -47.455  13.486  22.751  0.00  0.00     0.067 A 
ATOM      6  O   UNL d   1     -46.947  15.546  22.483  0.00  0.00    -0.267 OA
ATOM      7  C   UNL d   1     -46.174  12.761  22.801  0.00  0.00     0.002 C 
ENDROOT
BRANCH   2   8
ATOM      8  C   UNL d   1     -48.445  14.573  22.648  0.00  0.00     0.067 A 
ATOM      9  C   UNL d   1     -48.794  14.829  23.354  0.00  0.00     0.018 A 
ATOM     10  C   UNL d   1     -49.556  15.128  23.356  0.00  0.00     0.002 A 
ATOM     11  C   UNL d   1     -49.984  15.175  22.646  0.00  0.00     0.000 A 
ATOM     12  C   UNL d   1     -49.629  14.915  21.938  0.00  0.00     0.002 A 
ATOM     13  C   UNL d   1     -50.752  15.474  22.639  0.00  0.00     0.000 C 
ATOM     14  C   UNL d   1     -48.864  14.617  21.944  0.00  0.00     0.018 A 
ENDBRANCH   2   8
BRANCH   5  15
ATOM     15  C   UNL d   1     -47.968  12.847  22.845  0.00  0.00     0.016 A 
ATOM     16  C   UNL d   1     -48.186  12.598  23.604  0.00  0.00     0.002 A 
ATOM     17  C   UNL d   1     -48.698  11.958  23.698  0.00  0.00     0.011 A 
ATOM     18  C   UNL d   1     -48.996  11.563  23.031  0.00  0.00     0.058 A 
ATOM     19  C   UNL d   1     -48.780  11.809  22.274  0.00  0.00     0.011 A 
ATOM     20 CL   UNL d   1     -49.513  10.917  23.130  0.00  0.00    -0.082 Cl
ATOM     21  C   UNL d   1     -48.266  12.451  22.178  0.00  0.00     0.002 A 
ENDBRANCH   5  15
TORSDOF 2
ENDMDL
MODEL 5
REMARK VINA RESULT:      -7.4      1.091      2.656
REMARK  2 active torsions:
REMARK  status: ('A' for Active; 'I' for Inactive)
REMARK    1  A    between atoms: C_6  and  N_2 
REMARK    2  A    between atoms: C_8  and  C_5 
ROOT
ATOM      1  C   UNL d   1     -47.234  11.719  23.279  0.00  0.00     0.265 A 
ATOM      2  N   UNL d   1     -47.787  12.291  23.060  0.00  0.00    -0.275 N 
ATOM      3  C   UNL d   1     -46.575  12.843  22.998  0.00  0.00     0.021 A 
ATOM      4  C   UNL d   1     -46.484  12.060  23.242  0.00  0.00     0.063 A 
ATOM      5  C   UNL d   1     -47.383  12.984  22.886  0.00  0.00     0.067 A 
ATOM      6  O   UNL d   1     -47.401  10.936  23.501  0.00  0.00    -0.267 OA
ATOM      7  C   UNL d   1     -45.966  13.388  22.887  0.00  0.00     0.002 C 
ENDROOT
BRANCH   2   8
ATOM      8  C   UNL d   1     -48.607  12.176  23.024  0.00  0.00     0.067 A 
ATOM      9  C   UNL d   1     -49.067  12.319  23.698  0.00  0.00     0.018 A 
ATOM     10  C   UNL d   1     -49.878  12.209  23.676  0.00  0.00     0.002 A 
ATOM     11  C   UNL d   1     -50.244  11.954  22.975  0.00  0.00     0.000 A 
ATOM     12  C   UNL d   1     -49.777  11.812  22.300  0.00  0.00     0.002 A 
ATOM     13  C   UNL d   1     -51.060  11.841  22.946  0.00  0.00     0.000 C 
ATOM     14  C   UNL d   1     -48.964  11.924  22.329  0.00  0.00     0.018 A 
ENDBRANCH   2   8
BRANCH   5  15
ATOM     15  C   UNL d   1     -47.719  13.697  22.643  0.00  0.00     0.016 A 
ATOM     16  C   UNL d   1     -47.843  13.843  21.837  0.00  0.00     0.002 A 
ATOM     17  C   UNL d   1     -48.180  14.556  21.594  0.00  0.00     0.011 A 
ATOM     18  C   UNL d   1     -48.394  15.128  22.157  0.00  0.00     0.058 A 
ATOM     19  C   UNL d   1     -48.271  14.984  22.960  0.00  0.00     0.011 A 
ATOM     20 CL   UNL d   1     -48.733  15.846  21.907  0.00  0.00    -0.082 Cl
ATOM     21  C   UNL d   1     -47.933  14.269  23.206  0.00  0.00     0.002 A 
ENDBRANCH   5  15
TORSDOF 2
ENDMDL
MODEL 6
REMARK VINA RESULT:      -6.7      8.714     10.190
REMARK  2 active torsions:
REMARK  status: ('A' for Active; 'I' for Inactive)
REMARK    1  A    between atoms: C_6  and  N_2 
REMARK    2  A    between atoms: C_8  and  C_5 
ROOT
ATOM      1  C   UNL d   1     -38.536  13.858  18.283  0.00  0.00     0.265 A 
ATOM      2  N   UNL d   1     -39.169  14.323  18.536  0.00  0.00    -0.275 N 
ATOM      3  C   UNL d   1     -38.537  13.867  19.616  0.00  0.00     0.021 A 
ATOM      4  C   UNL d   1     -38.144  13.576  18.952  0.00  0.00     0.063 A 
ATOM      5  C   UNL d   1     -39.171  14.330  19.356  0.00  0.00     0.067 A 
ATOM      6  O   UNL d   1     -38.327  13.700  17.495  0.00  0.00    -0.267 OA
ATOM      7  C   UNL d   1     -38.331  13.721  20.402  0.00  0.00     0.002 C 
ENDROOT
BRANCH   2   8
ATOM      8  C   UNL d   1     -39.706  14.713  18.037  0.00  0.00     0.067 A 
ATOM      9  C   UNL d   1     -39.523  15.471  17.757  0.00  0.00     0.018 A 
ATOM     10  C   UNL d   1     -40.043  15.867  17.265  0.00  0.00     0.002 A 
ATOM     11  C   UNL d   1     -40.759  15.509  17.044  0.00  0.00     0.000 A 
ATOM     12  C   UNL d   1     -40.938  14.747  17.328  0.00  0.00     0.002 A 
ATOM     13  C   UNL d   1     -41.288  15.902  16.548  0.00  0.00     0.000 C 
ATOM     14  C   UNL d   1     -40.412  14.355  17.822  0.00  0.00     0.018 A 
ENDBRANCH   2   8
BRANCH   5  15
ATOM     15  C   UNL d   1     -39.709  14.727  19.839  0.00  0.00     0.016 A 
ATOM     16  C   UNL d   1     -40.409  14.352  20.076  0.00  0.00     0.002 A 
ATOM     17  C   UNL d   1     -40.947  14.749  20.559  0.00  0.00     0.011 A 
ATOM     18  C   UNL d   1     -40.788  15.525  20.809  0.00  0.00     0.058 A 
ATOM     19  C   UNL d   1     -40.091  15.900  20.574  0.00  0.00     0.011 A 
ATOM     20 CL   UNL d   1     -41.333  15.922  21.296  0.00  0.00    -0.082 Cl
ATOM     21  C   UNL d   1     -39.550  15.503  20.089  0.00  0.00     0.002 A 
ENDBRANCH   5  15
TORSDOF 2
ENDMDL
MODEL 7
REMARK VINA RESULT:      -5.9      9.328     10.643
REMARK  2 active torsions:
REMARK  status: ('A' for Active; 'I' for Inactive)
REMARK    1  A    between atoms: C_6  and  N_2 
REMARK    2  A    between atoms: C_8  and  C_5 
ROOT
ATOM      1  C   UNL d   1     -40.575  15.483  17.974  0.00  0.00     0.265 A 
ATOM      2  N   UNL d   1     -39.979  15.011  18.295  0.00  0.00    -0.275 N 
ATOM      3  C   UNL d   1     -40.577  15.656  19.296  0.00  0.00     0.021 A 
ATOM      4  C   UNL d   1     -40.945  15.883  18.593  0.00  0.00     0.063 A 
ATOM      5  C   UNL d   1     -39.979  15.116  19.108  0.00  0.00     0.067 A 
ATOM      6  O   UNL d   1     -40.770  15.548  17.169  0.00  0.00    -0.267 OA
ATOM      7  C   UNL d   1     -40.773  15.922  20.052  0.00  0.00     0.002 C 
ENDROOT
BRANCH   2   8
ATOM      8  C   UNL d   1     -39.472  14.518  17.860  0.00  0.00     0.067 A 
ATOM      9  C   UNL d   1     -38.770  14.830  17.550  0.00  0.00     0.018 A 
ATOM     10  C   UNL d   1     -38.262  14.355  17.120  0.00  0.00     0.002 A 
ATOM     11  C   UNL d   1     -38.448  13.556  16.992  0.00  0.00     0.000 A 
ATOM     12  C   UNL d   1     -39.155  13.247  17.307  0.00  0.00     0.002 A 
ATOM     13  C   UNL d   1     -37.940  13.072  16.560  0.00  0.00     0.000 C 
ATOM     14  C   UNL d   1     -39.661  13.729  17.737  0.00  0.00     0.018 A 
ENDBRANCH   2   8
BRANCH   5  15
ATOM     15  C   UNL d   1     -39.474  14.749  19.647  0.00  0.00     0.016 A 
ATOM     16  C   UNL d   1     -38.753  15.105  19.847  0.00  0.00     0.002 A 
ATOM     17  C   UNL d   1     -38.247  14.738  20.386  0.00  0.00     0.011 A 
ATOM     18  C   UNL d   1     -38.460  14.012  20.729  0.00  0.00     0.058 A 
ATOM     19  C   UNL d   1     -39.178  13.657  20.531  0.00  0.00     0.011 A 
ATOM     20 CL   UNL d   1     -37.947  13.646  21.273  0.00  0.00    -0.082 Cl
ATOM     21  C   UNL d   1     -39.687  14.023  19.990  0.00  0.00     0.002 A 
ENDBRANCH   5  15
TORSDOF 2
ENDMDL
