MODEL 1
REMARK VINA RESULT:      64.4      0.000      0.000
REMARK  4 active torsions:
REMARK  status: ('A' for Active; 'I' for Inactive)
REMARK    1  A    between atoms: C_2  and  C_1 
REMARK    2  A    between atoms: N_12  and  C_6 
REMARK    3  A    between atoms: C_16  and  N_12 
REMARK    4  A    between atoms: O_25  and  C_17 
ROOT
ATOM      1  C   UNL d   1     -48.451  29.055  34.893  0.00  0.00     0.082 A 
ATOM      2  C   UNL d   1     -48.039  28.908  35.594  0.00  0.00     0.302 A 
ATOM      3  C   UNL d   1     -48.416  29.812  34.536  0.00  0.00     0.009 A 
ATOM      4  O   UNL d   1     -47.587  29.506  35.950  0.00  0.00    -0.273 OA
ATOM      5  C   UNL d   1     -47.964  30.404  34.895  0.00  0.00     0.025 A 
ATOM      6  C   UNL d   1     -47.547  30.255  35.603  0.00  0.00     0.103 A 
ATOM      7  O   UNL d   1     -48.077  28.158  35.944  0.00  0.00    -0.259 OA
ATOM      8  C   UNL d   1     -47.927  31.150  34.544  0.00  0.00     0.026 A 
ATOM      9  C   UNL d   1     -47.101  30.855  35.948  0.00  0.00     0.027 A 
ATOM     10  C   UNL d   1     -47.477  31.744  34.900  0.00  0.00     0.094 A 
ATOM     11  C   UNL d   1     -47.066  31.597  35.598  0.00  0.00     0.026 A 
ENDROOT
BRANCH   1  12
ATOM     12  C   UNL d   1     -48.898  28.460  34.544  0.00  0.00     0.095 A 
ATOM     13  N   UNL d   1     -49.527  28.564  34.034  0.00  0.00    -0.221 NA
ATOM     14  C   UNL d   1     -49.810  27.823  33.820  0.00  0.00     0.194 A 
ATOM     15  S   UNL d   1     -49.352  27.258  34.201  0.00  0.00    -0.046 SA
ATOM     16  C   UNL d   1     -48.781  27.653  34.654  0.00  0.00     0.058 A 
BRANCH  14  17
ATOM     17  N   UNL d   1     -50.442  27.677  33.313  0.00  0.00    -0.221 NA
BRANCH  17  18
ATOM     18  C   UNL d   1     -50.807  26.936  33.326  0.00  0.00     0.084 A 
ATOM     19  C   UNL d   1     -51.633  26.891  33.353  0.00  0.00     0.022 A 
ATOM     20  C   UNL d   1     -52.003  26.162  33.366  0.00  0.00     0.044 A 
ATOM     21  C   UNL d   1     -51.542  25.473  33.350  0.00  0.00     0.196 A 
ATOM     22  C   UNL d   1     -50.717  25.523  33.323  0.00  0.00     0.044 A 
ATOM     23  O   UNL d   1     -51.915  24.735  33.363  0.00  0.00    -0.287 OA
ATOM     24  C   UNL d   1     -50.356  26.259  33.311  0.00  0.00     0.022 A 
ENDBRANCH  17  18
ENDBRANCH  14  17
ENDBRANCH   1  12
BRANCH  10  25
ATOM     25  O   UNL d   1     -47.441  32.487  34.550  0.00  0.00    -0.328 OA
ATOM     26  C   UNL d   1     -47.421  32.555  33.730  0.00  0.00     0.181 C 
ENDBRANCH  10  25
TORSDOF 4
ENDMDL
MODEL 2
REMARK VINA RESULT:      67.0      1.308      5.802
REMARK  4 active torsions:
REMARK  status: ('A' for Active; 'I' for Inactive)
REMARK    1  A    between atoms: C_2  and  C_1 
REMARK    2  A    between atoms: N_12  and  C_6 
REMARK    3  A    between atoms: C_16  and  N_12 
REMARK    4  A    between atoms: O_25  and  C_17 
ROOT
ATOM      1  C   UNL d   1     -50.163  27.407  33.781  0.00  0.00     0.082 A 
ATOM      2  C   UNL d   1     -50.958  27.600  33.659  0.00  0.00     0.302 A 
ATOM      3  C   UNL d   1     -49.915  26.608  33.753  0.00  0.00     0.009 A 
ATOM      4  O   UNL d   1     -51.516  27.005  33.509  0.00  0.00    -0.273 OA
ATOM      5  C   UNL d   1     -50.477  26.019  33.603  0.00  0.00     0.025 A 
ATOM      6  C   UNL d   1     -51.279  26.214  33.481  0.00  0.00     0.103 A 
ATOM      7  O   UNL d   1     -51.197  28.392  33.687  0.00  0.00    -0.259 OA
ATOM      8  C   UNL d   1     -50.235  25.230  33.576  0.00  0.00     0.026 A 
ATOM      9  C   UNL d   1     -51.826  25.617  33.333  0.00  0.00     0.027 A 
ATOM     10  C   UNL d   1     -50.793  24.640  33.426  0.00  0.00     0.094 A 
ATOM     11  C   UNL d   1     -51.584  24.832  33.306  0.00  0.00     0.026 A 
ENDROOT
BRANCH   1  12
ATOM     12  C   UNL d   1     -49.613  27.999  33.929  0.00  0.00     0.095 A 
ATOM     13  N   UNL d   1     -48.934  27.927  34.377  0.00  0.00    -0.221 NA
ATOM     14  C   UNL d   1     -48.548  28.652  34.379  0.00  0.00     0.194 A 
ATOM     15  S   UNL d   1     -48.992  29.176  33.928  0.00  0.00    -0.046 SA
ATOM     16  C   UNL d   1     -49.658  28.770  33.645  0.00  0.00     0.058 A 
BRANCH  14  17
ATOM     17  N   UNL d   1     -47.841  28.820  34.765  0.00  0.00    -0.221 NA
BRANCH  17  18
ATOM     18  C   UNL d   1     -47.691  29.594  35.014  0.00  0.00     0.084 A 
ATOM     19  C   UNL d   1     -47.564  29.744  35.818  0.00  0.00     0.022 A 
ATOM     20  C   UNL d   1     -47.414  30.507  36.073  0.00  0.00     0.044 A 
ATOM     21  C   UNL d   1     -47.392  31.122  35.519  0.00  0.00     0.196 A 
ATOM     22  C   UNL d   1     -47.520  30.968  34.717  0.00  0.00     0.044 A 
ATOM     23  O   UNL d   1     -47.241  31.894  35.776  0.00  0.00    -0.287 OA
ATOM     24  C   UNL d   1     -47.669  30.200  34.471  0.00  0.00     0.022 A 
ENDBRANCH  17  18
ENDBRANCH  14  17
ENDBRANCH   1  12
BRANCH  10  25
ATOM     25  O   UNL d   1     -50.552  23.855  33.399  0.00  0.00    -0.328 OA
ATOM     26  C   UNL d   1     -51.108  23.256  33.308  0.00  0.00     0.181 C 
ENDBRANCH  10  25
TORSDOF 4
ENDMDL
