MODEL 1
REMARK VINA RESULT:      64.0      0.000      0.000
REMARK  9 active torsions:
REMARK  status: ('A' for Active; 'I' for Inactive)
REMARK    1  A    between atoms: C_8  and  S_1 
REMARK    2  A    between atoms: C_2  and  N_3 
REMARK    3  A    between atoms: N_4  and  C_2 
REMARK    4  A    between atoms: C_6  and  C_2 
REMARK    5  A    between atoms: N_3  and  C_5 
REMARK       I    between atoms: C_7  and  N_4 
REMARK    6  A    between atoms: C_5  and  N_9 
REMARK    7  A    between atoms: C_13  and  C_7 
REMARK    8  A    between atoms: N_9  and  C_23 
REMARK    9  A    between atoms: O_29  and  C_24 
ROOT
ATOM      1  C   UNL d   1     -55.730-101.437 -43.730  0.00  0.00     0.238 C 
ENDROOT
BRANCH   1   2
ATOM      2  N   UNL d   1     -55.669-101.703 -42.941  0.00  0.00    -0.188 NA
BRANCH   2   3
ATOM      3  C   UNL d   1     -55.435-102.397 -42.555  0.00  0.00     0.223 C 
ATOM      4  S   UNL d   1     -54.719-102.711 -42.684  0.00  0.00    -0.037 SA
BRANCH   3   5
ATOM      5  N   UNL d   1     -55.974-102.739 -42.038  0.00  0.00    -0.217 NA
BRANCH   5   6
ATOM      6  C   UNL d   1     -55.862-102.714 -41.224  0.00  0.00     0.084 A 
ATOM      7  C   UNL d   1     -56.480-102.826 -40.701  0.00  0.00     0.020 A 
ATOM      8  C   UNL d   1     -56.379-102.804 -39.890  0.00  0.00     0.015 A 
ATOM      9  C   UNL d   1     -55.629-102.663 -39.587  0.00  0.00     0.107 A 
ATOM     10  C   UNL d   1     -54.980-102.545 -40.088  0.00  0.00     0.015 A 
ATOM     11  C   UNL d   1     -55.111-102.573 -40.901  0.00  0.00     0.020 A 
BRANCH   9  12
ATOM     12  S   UNL d   1     -55.517-102.638 -38.756  0.00  0.00     0.302 S 
ATOM     13  O   UNL d   1     -54.734-102.398 -38.871  0.00  0.00    -0.197 OA
ATOM     14  O   UNL d   1     -56.307-102.880 -38.653  0.00  0.00    -0.197 OA
ATOM     15  N   UNL d   1     -55.412-102.615 -37.934  0.00  0.00    -0.043 N 
ENDBRANCH   9  12
ENDBRANCH   5   6
ENDBRANCH   3   5
ENDBRANCH   2   3
ENDBRANCH   1   2
BRANCH   1  16
ATOM     16  N   UNL d   1     -55.969-100.862 -43.845  0.00  0.00    -0.346 NA
ATOM     17  C   UNL d   1     -56.151-100.059 -44.028  0.00  0.00     0.329 C 
ATOM     18  O   UNL d   1     -55.521 -99.537 -44.258  0.00  0.00    -0.251 OA
BRANCH  17  19
ATOM     19  C   UNL d   1     -56.915 -99.815 -43.979  0.00  0.00     0.071 A 
ATOM     20  C   UNL d   1     -57.127 -99.037 -44.325  0.00  0.00     0.008 A 
ATOM     21  C   UNL d   1     -57.912 -98.763 -44.286  0.00  0.00     0.024 A 
ATOM     22  C   UNL d   1     -58.500 -99.234 -43.915  0.00  0.00     0.094 A 
ATOM     23  C   UNL d   1     -58.266 -99.951 -43.605  0.00  0.00     0.024 A 
ATOM     24  C   UNL d   1     -57.480-100.245 -43.634  0.00  0.00     0.008 A 
BRANCH  22  25
ATOM     25  O   UNL d   1     -59.281 -98.932 -43.892  0.00  0.00    -0.328 OA
ATOM     26  C   UNL d   1     -59.785 -98.997 -44.561  0.00  0.00     0.181 C 
ENDBRANCH  22  25
ENDBRANCH  17  19
ENDBRANCH   1  16
BRANCH   1  27
ATOM     27  C   UNL d   1     -55.482-101.920 -44.340  0.00  0.00     0.262 C 
ATOM     28 CL   UNL d   1     -55.229-102.402 -44.950  0.00  0.00    -0.074 Cl
ATOM     29 CL   UNL d   1     -56.230-102.323 -44.327  0.00  0.00    -0.074 Cl
ATOM     30 CL   UNL d   1     -54.755-101.527 -44.349  0.00  0.00    -0.074 Cl
ENDBRANCH   1  27
TORSDOF 9
ENDMDL
MODEL 2
REMARK VINA RESULT:      66.2      1.698      2.288
REMARK  9 active torsions:
REMARK  status: ('A' for Active; 'I' for Inactive)
REMARK    1  A    between atoms: C_8  and  S_1 
REMARK    2  A    between atoms: C_2  and  N_3 
REMARK    3  A    between atoms: N_4  and  C_2 
REMARK    4  A    between atoms: C_6  and  C_2 
REMARK    5  A    between atoms: N_3  and  C_5 
REMARK       I    between atoms: C_7  and  N_4 
REMARK    6  A    between atoms: C_5  and  N_9 
REMARK    7  A    between atoms: C_13  and  C_7 
REMARK    8  A    between atoms: N_9  and  C_23 
REMARK    9  A    between atoms: O_29  and  C_24 
ROOT
ATOM      1  C   UNL d   1     -56.181 -99.791 -44.276  0.00  0.00     0.238 C 
ENDROOT
BRANCH   1   2
ATOM      2  N   UNL d   1     -56.031-100.613 -44.263  0.00  0.00    -0.188 NA
BRANCH   2   3
ATOM      3  C   UNL d   1     -55.401-101.114 -44.453  0.00  0.00     0.223 C 
ATOM      4  S   UNL d   1     -54.778-100.844 -44.861  0.00  0.00    -0.037 SA
BRANCH   3   5
ATOM      5  N   UNL d   1     -55.453-101.894 -44.204  0.00  0.00    -0.217 NA
BRANCH   5   6
ATOM      6  C   UNL d   1     -55.474-102.089 -43.405  0.00  0.00     0.084 A 
ATOM      7  C   UNL d   1     -54.825-102.404 -43.022  0.00  0.00     0.020 A 
ATOM      8  C   UNL d   1     -54.835-102.601 -42.228  0.00  0.00     0.015 A 
ATOM      9  C   UNL d   1     -55.524-102.477 -41.798  0.00  0.00     0.107 A 
ATOM     10  C   UNL d   1     -56.200-102.160 -42.155  0.00  0.00     0.015 A 
ATOM     11  C   UNL d   1     -56.161-101.971 -42.956  0.00  0.00     0.020 A 
BRANCH   9  12
ATOM     12  S   UNL d   1     -55.543-102.676 -40.983  0.00  0.00     0.302 S 
ATOM     13  O   UNL d   1     -54.717-102.724 -40.978  0.00  0.00    -0.197 OA
ATOM     14  O   UNL d   1     -56.374-102.626 -41.002  0.00  0.00    -0.197 OA
ATOM     15  N   UNL d   1     -55.568-102.873 -40.178  0.00  0.00    -0.043 N 
ENDBRANCH   9  12
ENDBRANCH   5   6
ENDBRANCH   3   5
ENDBRANCH   2   3
ENDBRANCH   1   2
BRANCH   1  16
ATOM     16  N   UNL d   1     -56.762 -99.580 -44.140  0.00  0.00    -0.346 NA
ATOM     17  C   UNL d   1     -57.490 -99.295 -43.824  0.00  0.00     0.329 C 
ATOM     18  O   UNL d   1     -57.546 -99.154 -42.988  0.00  0.00    -0.251 OA
BRANCH  17  19
ATOM     19  C   UNL d   1     -58.105 -99.165 -44.325  0.00  0.00     0.071 A 
ATOM     20  C   UNL d   1     -57.938 -99.116 -45.185  0.00  0.00     0.008 A 
ATOM     21  C   UNL d   1     -58.560 -98.983 -45.723  0.00  0.00     0.024 A 
ATOM     22  C   UNL d   1     -59.345 -98.896 -45.439  0.00  0.00     0.094 A 
ATOM     23  C   UNL d   1     -59.461 -98.948 -44.633  0.00  0.00     0.024 A 
ATOM     24  C   UNL d   1     -58.848 -99.081 -44.076  0.00  0.00     0.008 A 
BRANCH  22  25
ATOM     25  O   UNL d   1     -59.949 -98.763 -46.004  0.00  0.00    -0.328 OA
ATOM     26  C   UNL d   1     -59.843 -98.990 -46.805  0.00  0.00     0.181 C 
ENDBRANCH  22  25
ENDBRANCH  17  19
ENDBRANCH   1  16
BRANCH   1  27
ATOM     27  C   UNL d   1     -55.577 -99.274 -44.463  0.00  0.00     0.262 C 
ATOM     28 CL   UNL d   1     -54.972 -98.755 -44.645  0.00  0.00    -0.074 Cl
ATOM     29 CL   UNL d   1     -55.729 -99.393 -45.290  0.00  0.00    -0.074 Cl
ATOM     30 CL   UNL d   1     -55.431 -99.160 -43.657  0.00  0.00    -0.074 Cl
ENDBRANCH   1  27
TORSDOF 9
ENDMDL
