MODEL 1
REMARK VINA RESULT:      20.0      0.000      0.000
REMARK  2 active torsions:
REMARK  status: ('A' for Active; 'I' for Inactive)
REMARK    1  A    between atoms: C_10  and  N_1 
REMARK    2  A    between atoms: C_6  and  C_7 
ROOT
ATOM      1  N   UNL d   1     -51.388  24.927  33.350  0.00  0.00    -0.288 N 
ATOM      2  C   UNL d   1     -50.610  24.638  33.364  0.00  0.00     0.183 A 
ATOM      3  N   UNL d   1     -50.092  25.290  33.363  0.00  0.00    -0.224 NA
ATOM      4  C   UNL d   1     -51.351  25.754  33.341  0.00  0.00     0.083 A 
ATOM      5  C   UNL d   1     -50.556  25.977  33.349  0.00  0.00     0.099 A 
ATOM      6  C   UNL d   1     -50.941  27.353  33.328  0.00  0.00     0.066 A 
ATOM      7  C   UNL d   1     -50.353  26.778  33.342  0.00  0.00     0.027 A 
ATOM      8  C   UNL d   1     -51.942  26.333  33.327  0.00  0.00     0.019 A 
ATOM      9  C   UNL d   1     -51.736  27.130  33.320  0.00  0.00     0.008 A 
ENDROOT
BRANCH   1  10
ATOM     10  C   UNL d   1     -52.071  24.476  33.346  0.00  0.00     0.066 A 
ATOM     11  C   UNL d   1     -52.022  23.651  33.380  0.00  0.00     0.018 A 
ATOM     12  C   UNL d   1     -52.699  23.197  33.376  0.00  0.00     0.002 A 
ATOM     13  C   UNL d   1     -53.449  23.557  33.339  0.00  0.00     0.000 A 
ATOM     14  C   UNL d   1     -53.497  24.378  33.306  0.00  0.00     0.002 A 
ATOM     15  C   UNL d   1     -52.808  24.840  33.310  0.00  0.00     0.018 A 
ENDBRANCH   1  10
BRANCH   6  16
ATOM     16  C   UNL d   1     -50.737  28.150  33.321  0.00  0.00     0.211 C 
ATOM     17  O   UNL d   1     -49.942  28.373  33.328  0.00  0.00    -0.644 OA
ATOM     18  O   UNL d   1     -51.328  28.734  33.308  0.00  0.00    -0.644 OA
ENDBRANCH   6  16
TORSDOF 2
ENDMDL
MODEL 2
REMARK VINA RESULT:      21.5      1.099      1.809
REMARK  2 active torsions:
REMARK  status: ('A' for Active; 'I' for Inactive)
REMARK    1  A    between atoms: C_10  and  N_1 
REMARK    2  A    between atoms: C_6  and  C_7 
ROOT
ATOM      1  N   UNL d   1     -52.710  25.416  33.311  0.00  0.00    -0.288 N 
ATOM      2  C   UNL d   1     -53.102  26.147  33.307  0.00  0.00     0.183 A 
ATOM      3  N   UNL d   1     -52.527  26.749  33.307  0.00  0.00    -0.224 NA
ATOM      4  C   UNL d   1     -51.895  25.565  33.315  0.00  0.00     0.083 A 
ATOM      5  C   UNL d   1     -51.783  26.382  33.312  0.00  0.00     0.099 A 
ATOM      6  C   UNL d   1     -50.367  26.187  33.319  0.00  0.00     0.066 A 
ATOM      7  C   UNL d   1     -51.016  26.692  33.314  0.00  0.00     0.027 A 
ATOM      8  C   UNL d   1     -51.242  25.058  33.320  0.00  0.00     0.019 A 
ATOM      9  C   UNL d   1     -50.480  25.370  33.322  0.00  0.00     0.008 A 
ENDROOT
BRANCH   1  10
ATOM     10  C   UNL d   1     -53.065  24.678  33.313  0.00  0.00     0.066 A 
ATOM     11  C   UNL d   1     -53.889  24.616  33.321  0.00  0.00     0.018 A 
ATOM     12  C   UNL d   1     -54.247  23.883  33.322  0.00  0.00     0.002 A 
ATOM     13  C   UNL d   1     -53.788  23.188  33.315  0.00  0.00     0.000 A 
ATOM     14  C   UNL d   1     -52.968  23.252  33.307  0.00  0.00     0.002 A 
ATOM     15  C   UNL d   1     -52.603  23.997  33.306  0.00  0.00     0.018 A 
ENDBRANCH   1  10
BRANCH   6  16
ATOM     16  C   UNL d   1     -49.605  26.498  33.321  0.00  0.00     0.211 C 
ATOM     17  O   UNL d   1     -49.492  27.315  33.329  0.00  0.00    -0.644 OA
ATOM     18  O   UNL d   1     -48.947  25.991  33.316  0.00  0.00    -0.644 OA
ENDBRANCH   6  16
TORSDOF 2
ENDMDL
