MODEL 1
REMARK VINA RESULT:      -2.4      0.000      0.000
REMARK  4 active torsions:
REMARK  status: ('A' for Active; 'I' for Inactive)
REMARK    1  A    between atoms: C_4  and  C_1 
REMARK    2  A    between atoms: C_12  and  N_2 
REMARK    3  A    between atoms: C_11  and  N_5 
REMARK    4  A    between atoms: C_14  and  C_12 
ROOT
ATOM      1  C   UNL d   1      58.463   0.247  31.471  0.00  0.00     0.149 A 
ATOM      2  N   UNL d   1      58.726   0.120  30.685  0.00  0.00    -0.289 N 
ATOM      3  N   UNL d   1      59.114   0.476  31.927  0.00  0.00    -0.227 NA
ATOM      4  C   UNL d   1      59.544   0.276  30.669  0.00  0.00     0.083 A 
ATOM      5  C   UNL d   1      59.787   0.495  31.429  0.00  0.00     0.099 A 
ATOM      6  C   UNL d   1      60.101   0.244  30.050  0.00  0.00     0.019 A 
ATOM      7  C   UNL d   1      60.573   0.682  31.580  0.00  0.00     0.021 A 
ATOM      8  C   UNL d   1      60.893   0.434  30.207  0.00  0.00     0.002 A 
ATOM      9  C   UNL d   1      61.129   0.652  30.970  0.00  0.00     0.002 A 
ENDROOT
BRANCH   1  10
ATOM     10  C   UNL d   1      57.688   0.156  31.736  0.00  0.00     0.057 A 
ATOM     11  C   UNL d   1      57.411  -0.435  32.235  0.00  0.00     0.081 A 
ATOM     12  N   UNL d   1      56.599  -0.309  32.352  0.00  0.00    -0.298 N 
ATOM     13  C   UNL d   1      56.379   0.360  31.925  0.00  0.00     0.261 A 
ATOM     14  C   UNL d   1      57.051   0.649  31.542  0.00  0.00     0.065 A 
ATOM     15  O   UNL d   1      55.625   0.682  31.885  0.00  0.00    -0.267 OA
BRANCH  12  16
ATOM     16  C   UNL d   1      56.100  -0.774  32.817  0.00  0.00     0.071 C 
ATOM     17  C   UNL d   1      55.628  -1.330  33.188  0.00  0.00     0.023 C 
ATOM     18  C   UNL d   1      55.938  -1.547  32.596  0.00  0.00     0.023 C 
ATOM     19  C   UNL d   1      55.769  -0.455  33.502  0.00  0.00     0.023 C 
ENDBRANCH  12  16
ENDBRANCH   1  10
BRANCH   2  20
ATOM     20  C   UNL d   1      58.263  -0.113  30.051  0.00  0.00     0.082 C 
BRANCH  20  21
ATOM     21  C   UNL d   1      58.453  -0.798  29.626  0.00  0.00     0.018 A 
ATOM     22  C   UNL d   1      58.802  -0.732  28.881  0.00  0.00     0.002 A 
ATOM     23  C   UNL d   1      58.993  -1.409  28.455  0.00  0.00     0.000 A 
ATOM     24  C   UNL d   1      58.836  -2.151  28.774  0.00  0.00     0.000 A 
ATOM     25  C   UNL d   1      58.486  -2.212  29.522  0.00  0.00     0.000 A 
ATOM     26  C   UNL d   1      58.298  -1.537  29.940  0.00  0.00     0.002 A 
ENDBRANCH  20  21
ENDBRANCH   2  20
TORSDOF 4
ENDMDL
MODEL 2
REMARK VINA RESULT:      -0.7      1.351      3.891
REMARK  4 active torsions:
REMARK  status: ('A' for Active; 'I' for Inactive)
REMARK    1  A    between atoms: C_4  and  C_1 
REMARK    2  A    between atoms: C_12  and  N_2 
REMARK    3  A    between atoms: C_11  and  N_5 
REMARK    4  A    between atoms: C_14  and  C_12 
ROOT
ATOM      1  C   UNL d   1      58.045   0.364  31.973  0.00  0.00     0.149 A 
ATOM      2  N   UNL d   1      57.364   0.358  32.462  0.00  0.00    -0.289 N 
ATOM      3  N   UNL d   1      58.708   0.470  32.456  0.00  0.00    -0.227 NA
ATOM      4  C   UNL d   1      57.619   0.462  33.247  0.00  0.00     0.083 A 
ATOM      5  C   UNL d   1      58.444   0.532  33.249  0.00  0.00     0.099 A 
ATOM      6  C   UNL d   1      57.200   0.503  33.966  0.00  0.00     0.019 A 
ATOM      7  C   UNL d   1      58.854   0.641  33.954  0.00  0.00     0.021 A 
ATOM      8  C   UNL d   1      57.617   0.612  34.674  0.00  0.00     0.002 A 
ATOM      9  C   UNL d   1      58.442   0.681  34.668  0.00  0.00     0.002 A 
ENDROOT
BRANCH   1  10
ATOM     10  C   UNL d   1      58.047   0.277  31.153  0.00  0.00     0.057 A 
ATOM     11  C   UNL d   1      58.540  -0.213  30.717  0.00  0.00     0.081 A 
ATOM     12  N   UNL d   1      58.347  -0.121  29.916  0.00  0.00    -0.298 N 
ATOM     13  C   UNL d   1      57.733   0.426  29.861  0.00  0.00     0.261 A 
ATOM     14  C   UNL d   1      57.546   0.674  30.626  0.00  0.00     0.065 A 
ATOM     15  O   UNL d   1      57.372   0.680  29.169  0.00  0.00    -0.267 OA
BRANCH  12  16
ATOM     16  C   UNL d   1      58.707  -0.511  29.284  0.00  0.00     0.071 C 
ATOM     17  C   UNL d   1      58.994  -1.004  28.697  0.00  0.00     0.023 C 
ATOM     18  C   UNL d   1      58.538  -1.301  29.140  0.00  0.00     0.023 C 
ATOM     19  C   UNL d   1      59.235  -0.102  28.801  0.00  0.00     0.023 C 
ENDBRANCH  12  16
ENDBRANCH   1  10
BRANCH   2  20
ATOM     20  C   UNL d   1      56.589   0.266  32.211  0.00  0.00     0.082 C 
BRANCH  20  21
ATOM     21  C   UNL d   1      56.108  -0.317  32.549  0.00  0.00     0.018 A 
ATOM     22  C   UNL d   1      55.453  -0.094  33.000  0.00  0.00     0.002 A 
ATOM     23  C   UNL d   1      54.973  -0.670  33.339  0.00  0.00     0.000 A 
ATOM     24  C   UNL d   1      55.147  -1.467  33.226  0.00  0.00     0.000 A 
ATOM     25  C   UNL d   1      55.805  -1.685  32.773  0.00  0.00     0.000 A 
ATOM     26  C   UNL d   1      56.278  -1.110  32.440  0.00  0.00     0.002 A 
ENDBRANCH  20  21
ENDBRANCH   2  20
TORSDOF 4
ENDMDL
