MODEL 1
REMARK VINA RESULT:      -5.9      0.000      0.000
REMARK  2 active torsions:
REMARK  status: ('A' for Active; 'I' for Inactive)
REMARK    1  A    between atoms: C_6  and  C_1 
REMARK    2  A    between atoms: C_8  and  C_5 
ROOT
ATOM      1  C   UNL d   1     -41.846-122.364 -54.505  0.00  0.00     0.169 A 
ATOM      2  C   UNL d   1     -41.870-122.141 -53.700  0.00  0.00     0.048 A 
ATOM      3  N   UNL d   1     -41.164-123.273 -53.792  0.00  0.00    -0.148 NA
ATOM      4  N   UNL d   1     -41.406-123.068 -54.554  0.00  0.00    -0.142 NA
ATOM      5  C   UNL d   1     -41.458-122.691 -53.269  0.00  0.00     0.105 A 
ENDROOT
BRANCH   5   6
ATOM      6  C   UNL d   1     -41.349-122.679 -52.472  0.00  0.00     0.019 A 
ATOM      7  C   UNL d   1     -41.235-123.385 -52.062  0.00  0.00     0.002 A 
ATOM      8  C   UNL d   1     -41.123-123.387 -51.244  0.00  0.00     0.000 A 
ATOM      9  C   UNL d   1     -41.126-122.666 -50.842  0.00  0.00     0.000 A 
ATOM     10  C   UNL d   1     -41.239-121.951 -51.245  0.00  0.00     0.000 A 
ATOM     11  C   UNL d   1     -41.350-121.965 -52.057  0.00  0.00     0.002 A 
ENDBRANCH   5   6
BRANCH   1  12
ATOM     12  C   UNL d   1     -42.199-121.947 -55.106  0.00  0.00     0.231 C 
ATOM     13  O   UNL d   1     -41.781-121.568 -55.674  0.00  0.00    -0.643 OA
ATOM     14  O   UNL d   1     -43.019-121.897 -55.154  0.00  0.00    -0.643 OA
ENDBRANCH   1  12
TORSDOF 2
ENDMDL
MODEL 2
REMARK VINA RESULT:      -5.6      1.894      3.334
REMARK  2 active torsions:
REMARK  status: ('A' for Active; 'I' for Inactive)
REMARK    1  A    between atoms: C_6  and  C_1 
REMARK    2  A    between atoms: C_8  and  C_5 
ROOT
ATOM      1  C   UNL d   1     -41.338-122.700 -52.085  0.00  0.00     0.169 A 
ATOM      2  C   UNL d   1     -41.485-122.211 -52.746  0.00  0.00     0.048 A 
ATOM      3  N   UNL d   1     -41.527-123.481 -53.159  0.00  0.00    -0.148 NA
ATOM      4  N   UNL d   1     -41.366-123.488 -52.349  0.00  0.00    -0.142 NA
ATOM      5  C   UNL d   1     -41.599-122.684 -53.395  0.00  0.00     0.105 A 
ENDROOT
BRANCH   5   6
ATOM      6  C   UNL d   1     -41.756-122.429 -54.142  0.00  0.00     0.019 A 
ATOM      7  C   UNL d   1     -42.434-121.983 -54.291  0.00  0.00     0.002 A 
ATOM      8  C   UNL d   1     -42.607-121.715 -55.052  0.00  0.00     0.000 A 
ATOM      9  C   UNL d   1     -42.086-121.901 -55.666  0.00  0.00     0.000 A 
ATOM     10  C   UNL d   1     -41.402-122.348 -55.527  0.00  0.00     0.000 A 
ATOM     11  C   UNL d   1     -41.244-122.608 -54.764  0.00  0.00     0.002 A 
ENDBRANCH   5   6
BRANCH   1  12
ATOM     12  C   UNL d   1     -41.197-122.424 -51.334  0.00  0.00     0.231 C 
ATOM     13  O   UNL d   1     -41.123-121.645 -51.166  0.00  0.00    -0.643 OA
ATOM     14  O   UNL d   1     -41.125-122.948 -50.703  0.00  0.00    -0.643 OA
ENDBRANCH   1  12
TORSDOF 2
ENDMDL
MODEL 3
REMARK VINA RESULT:      -5.2      2.195      3.381
REMARK  2 active torsions:
REMARK  status: ('A' for Active; 'I' for Inactive)
REMARK    1  A    between atoms: C_6  and  C_1 
REMARK    2  A    between atoms: C_8  and  C_5 
ROOT
ATOM      1  C   UNL d   1     -41.512-122.430 -51.565  0.00  0.00     0.169 A 
ATOM      2  C   UNL d   1     -41.722-122.745 -52.309  0.00  0.00     0.048 A 
ATOM      3  N   UNL d   1     -41.127-121.567 -52.517  0.00  0.00    -0.148 NA
ATOM      4  N   UNL d   1     -41.142-121.697 -51.702  0.00  0.00    -0.142 NA
ATOM      5  C   UNL d   1     -41.490-122.223 -52.885  0.00  0.00     0.105 A 
ENDROOT
BRANCH   5   6
ATOM      6  C   UNL d   1     -41.590-122.320 -53.677  0.00  0.00     0.019 A 
ATOM      7  C   UNL d   1     -41.141-122.880 -54.083  0.00  0.00     0.002 A 
ATOM      8  C   UNL d   1     -41.234-122.990 -54.896  0.00  0.00     0.000 A 
ATOM      9  C   UNL d   1     -41.788-122.527 -55.297  0.00  0.00     0.000 A 
ATOM     10  C   UNL d   1     -42.245-121.963 -54.898  0.00  0.00     0.000 A 
ATOM     11  C   UNL d   1     -42.141-121.865 -54.090  0.00  0.00     0.002 A 
ENDBRANCH   5   6
BRANCH   1  12
ATOM     12  C   UNL d   1     -41.656-122.797 -50.855  0.00  0.00     0.231 C 
ATOM     13  O   UNL d   1     -42.309-122.650 -50.416  0.00  0.00    -0.643 OA
ATOM     14  O   UNL d   1     -41.123-123.347 -50.553  0.00  0.00    -0.643 OA
ENDBRANCH   1  12
TORSDOF 2
ENDMDL
MODEL 4
REMARK VINA RESULT:      -5.0      2.126      2.893
REMARK  2 active torsions:
REMARK  status: ('A' for Active; 'I' for Inactive)
REMARK    1  A    between atoms: C_6  and  C_1 
REMARK    2  A    between atoms: C_8  and  C_5 
ROOT
ATOM      1  C   UNL d   1     -41.492-122.705 -51.867  0.00  0.00     0.169 A 
ATOM      2  C   UNL d   1     -41.600-122.461 -51.076  0.00  0.00     0.048 A 
ATOM      3  N   UNL d   1     -41.895-123.762 -51.147  0.00  0.00    -0.148 NA
ATOM      4  N   UNL d   1     -41.677-123.515 -51.904  0.00  0.00    -0.142 NA
ATOM      5  C   UNL d   1     -41.843-123.101 -50.640  0.00  0.00     0.105 A 
ENDROOT
BRANCH   5   6
ATOM      6  C   UNL d   1     -42.007-123.099 -49.853  0.00  0.00     0.019 A 
ATOM      7  C   UNL d   1     -42.731-122.807 -49.585  0.00  0.00     0.002 A 
ATOM      8  C   UNL d   1     -42.913-122.800 -48.779  0.00  0.00     0.000 A 
ATOM      9  C   UNL d   1     -42.354-123.091 -48.244  0.00  0.00     0.000 A 
ATOM     10  C   UNL d   1     -41.625-123.386 -48.504  0.00  0.00     0.000 A 
ATOM     11  C   UNL d   1     -41.459-123.387 -49.307  0.00  0.00     0.002 A 
ENDBRANCH   5   6
BRANCH   1  12
ATOM     12  C   UNL d   1     -41.250-122.215 -52.468  0.00  0.00     0.231 C 
ATOM     13  O   UNL d   1     -41.123-121.432 -52.364  0.00  0.00    -0.643 OA
ATOM     14  O   UNL d   1     -41.123-122.514 -53.225  0.00  0.00    -0.643 OA
ENDBRANCH   1  12
TORSDOF 2
ENDMDL
MODEL 5
REMARK VINA RESULT:      -4.3      3.681      4.721
REMARK  2 active torsions:
REMARK  status: ('A' for Active; 'I' for Inactive)
REMARK    1  A    between atoms: C_6  and  C_1 
REMARK    2  A    between atoms: C_8  and  C_5 
ROOT
ATOM      1  C   UNL d   1     -42.304-123.155 -48.765  0.00  0.00     0.169 A 
ATOM      2  C   UNL d   1     -41.745-123.013 -49.369  0.00  0.00     0.048 A 
ATOM      3  N   UNL d   1     -42.963-122.954 -49.916  0.00  0.00    -0.148 NA
ATOM      4  N   UNL d   1     -43.059-123.117 -49.112  0.00  0.00    -0.142 NA
ATOM      5  C   UNL d   1     -42.144-122.891 -50.065  0.00  0.00     0.105 A 
ENDROOT
BRANCH   5   6
ATOM      6  C   UNL d   1     -41.808-122.737 -50.779  0.00  0.00     0.019 A 
ATOM      7  C   UNL d   1     -41.784-121.963 -51.063  0.00  0.00     0.002 A 
ATOM      8  C   UNL d   1     -41.442-121.790 -51.795  0.00  0.00     0.000 A 
ATOM      9  C   UNL d   1     -41.123-122.408 -52.239  0.00  0.00     0.000 A 
ATOM     10  C   UNL d   1     -41.142-123.189 -51.962  0.00  0.00     0.000 A 
ATOM     11  C   UNL d   1     -41.485-123.345 -51.234  0.00  0.00     0.002 A 
ENDBRANCH   5   6
BRANCH   1  12
ATOM     12  C   UNL d   1     -42.112-123.300 -47.989  0.00  0.00     0.231 C 
ATOM     13  O   UNL d   1     -41.468-122.983 -47.635  0.00  0.00    -0.643 OA
ATOM     14  O   UNL d   1     -42.585-123.791 -47.527  0.00  0.00    -0.643 OA
ENDBRANCH   1  12
TORSDOF 2
ENDMDL
