MODEL 1
REMARK VINA RESULT:      -0.5      0.000      0.000
REMARK  5 active torsions:
REMARK  status: ('A' for Active; 'I' for Inactive)
REMARK    1  A    between atoms: N_12  and  C_4 
REMARK    2  A    between atoms: C_19  and  N_5 
REMARK    3  A    between atoms: C_11  and  S_18 
REMARK    4  A    between atoms: S_18  and  C_21 
REMARK    5  A    between atoms: C_21  and  C_19 
ROOT
ATOM      1  C   UNL d   1      29.850  16.994 -24.155  0.00  0.00     0.191 A 
ATOM      2  C   UNL d   1      30.327  17.611 -24.420  0.00  0.00     0.174 A 
ATOM      3  N   UNL d   1      30.341  16.404 -23.860  0.00  0.00    -0.042 NA
ATOM      4  C   UNL d   1      31.114  16.651 -23.940  0.00  0.00     0.722 A 
ATOM      5  N   UNL d   1      31.114  17.402 -24.289  0.00  0.00    -0.132 N 
ATOM      6  N   UNL d   1      29.029  17.052 -24.218  0.00  0.00    -0.239 N 
ATOM      7  C   UNL d   1      28.686  17.727 -24.546  0.00  0.00     0.358 A 
ATOM      8  N   UNL d   1      29.163  18.344 -24.811  0.00  0.00    -0.152 NA
ATOM      9  C   UNL d   1      29.985  18.287 -24.748  0.00  0.00     0.303 A 
ATOM     10  O   UNL d   1      27.863  17.781 -24.607  0.00  0.00    -0.244 OA
ATOM     11  O   UNL d   1      30.462  18.904 -25.013  0.00  0.00    -0.263 OA
ATOM     12  C   UNL d   1      28.556  16.441 -23.955  0.00  0.00     0.105 C 
ENDROOT
BRANCH   5  13
ATOM     13  C   UNL d   1      31.779  17.861 -24.472  0.00  0.00     0.105 C 
BRANCH  13  14
ATOM     14  C   UNL d   1      31.915  18.575 -24.072  0.00  0.00     0.058 C 
BRANCH  14  15
ATOM     15  S   UNL d   1      32.698  18.809 -23.900  0.00  0.00    -0.041 SA
BRANCH  15  16
ATOM     16  C   UNL d   1      32.823  19.464 -23.409  0.00  0.00     0.215 A 
ATOM     17  N   UNL d   1      32.907  19.370 -22.601  0.00  0.00    -0.214 NA
ATOM     18  C   UNL d   1      33.021  20.103 -22.271  0.00  0.00     0.107 A 
ATOM     19  C   UNL d   1      33.136  20.330 -21.481  0.00  0.00     0.021 A 
ATOM     20  C   UNL d   1      33.012  20.662 -22.856  0.00  0.00     0.120 A 
ATOM     21  C   UNL d   1      33.241  21.132 -21.295  0.00  0.00     0.002 A 
ATOM     22  C   UNL d   1      33.231  21.687 -21.883  0.00  0.00     0.002 A 
ATOM     23  C   UNL d   1      33.116  21.452 -22.667  0.00  0.00     0.026 A 
ATOM     24  O   UNL d   1      32.887  20.262 -23.578  0.00  0.00    -0.283 OA
ENDBRANCH  15  16
ENDBRANCH  14  15
ENDBRANCH  13  14
ENDBRANCH   5  13
BRANCH   4  25
ATOM     25  N   UNL d   1      31.804  16.253 -23.726  0.00  0.00    -0.139 N 
ATOM     26  C   UNL d   1      32.030  16.217 -22.926  0.00  0.00     0.098 A 
ATOM     27  C   UNL d   1      32.720  15.818 -22.713  0.00  0.00     0.020 A 
ATOM     28  C   UNL d   1      33.184  15.459 -23.285  0.00  0.00     0.003 A 
ATOM     29  C   UNL d   1      32.957  15.497 -24.076  0.00  0.00     0.020 A 
ATOM     30  C   UNL d   1      32.268  15.893 -24.299  0.00  0.00     0.098 A 
ENDBRANCH   4  25
TORSDOF 5
ENDMDL
MODEL 2
REMARK VINA RESULT:       0.8      2.281      5.741
REMARK  5 active torsions:
REMARK  status: ('A' for Active; 'I' for Inactive)
REMARK    1  A    between atoms: N_12  and  C_4 
REMARK    2  A    between atoms: C_19  and  N_5 
REMARK    3  A    between atoms: C_11  and  S_18 
REMARK    4  A    between atoms: S_18  and  C_21 
REMARK    5  A    between atoms: C_21  and  C_19 
ROOT
ATOM      1  C   UNL d   1      32.298  22.426 -21.438  0.00  0.00     0.191 A 
ATOM      2  C   UNL d   1      32.686  21.746 -21.697  0.00  0.00     0.174 A 
ATOM      3  N   UNL d   1      32.215  22.929 -22.084  0.00  0.00    -0.042 NA
ATOM      4  C   UNL d   1      32.547  22.567 -22.735  0.00  0.00     0.722 A 
ATOM      5  N   UNL d   1      32.842  21.830 -22.502  0.00  0.00    -0.132 N 
ATOM      6  N   UNL d   1      32.073  22.496 -20.648  0.00  0.00    -0.239 N 
ATOM      7  C   UNL d   1      32.235  21.886 -20.115  0.00  0.00     0.358 A 
ATOM      8  N   UNL d   1      32.622  21.207 -20.374  0.00  0.00    -0.152 NA
ATOM      9  C   UNL d   1      32.849  21.136 -21.165  0.00  0.00     0.303 A 
ATOM     10  O   UNL d   1      32.006  21.961 -19.324  0.00  0.00    -0.244 OA
ATOM     11  O   UNL d   1      33.237  20.456 -21.423  0.00  0.00    -0.263 OA
ATOM     12  C   UNL d   1      31.688  23.169 -20.392  0.00  0.00     0.105 C 
ENDROOT
BRANCH   5  13
ATOM     13  C   UNL d   1      33.225  21.276 -22.985  0.00  0.00     0.105 C 
BRANCH  13  14
ATOM     14  C   UNL d   1      32.802  20.636 -23.299  0.00  0.00     0.058 C 
BRANCH  14  15
ATOM     15  S   UNL d   1      33.175  20.119 -23.840  0.00  0.00    -0.041 SA
BRANCH  15  16
ATOM     16  C   UNL d   1      32.876  19.353 -23.936  0.00  0.00     0.215 A 
ATOM     17  N   UNL d   1      33.058  18.913 -24.601  0.00  0.00    -0.214 NA
ATOM     18  C   UNL d   1      32.688  18.193 -24.540  0.00  0.00     0.107 A 
ATOM     19  C   UNL d   1      32.682  17.540 -25.052  0.00  0.00     0.021 A 
ATOM     20  C   UNL d   1      32.272  18.168 -23.846  0.00  0.00     0.120 A 
ATOM     21  C   UNL d   1      32.249  16.863 -24.849  0.00  0.00     0.002 A 
ATOM     22  C   UNL d   1      31.835  16.841 -24.154  0.00  0.00     0.002 A 
ATOM     23  C   UNL d   1      31.846  17.496 -23.650  0.00  0.00     0.026 A 
ATOM     24  O   UNL d   1      32.388  18.899 -23.461  0.00  0.00    -0.283 OA
ENDBRANCH  15  16
ENDBRANCH  14  15
ENDBRANCH  13  14
ENDBRANCH   5  13
BRANCH   4  25
ATOM     25  N   UNL d   1      32.599  22.850 -23.508  0.00  0.00    -0.139 N 
ATOM     26  C   UNL d   1      33.186  23.405 -23.706  0.00  0.00     0.098 A 
ATOM     27  C   UNL d   1      33.237  23.688 -24.480  0.00  0.00     0.020 A 
ATOM     28  C   UNL d   1      32.713  23.425 -25.052  0.00  0.00     0.003 A 
ATOM     29  C   UNL d   1      32.133  22.875 -24.852  0.00  0.00     0.020 A 
ATOM     30  C   UNL d   1      32.074  22.587 -24.080  0.00  0.00     0.098 A 
ENDBRANCH   4  25
TORSDOF 5
ENDMDL
