MODEL 1
REMARK VINA RESULT:      72.1      0.000      0.000
REMARK  3 active torsions:
REMARK  status: ('A' for Active; 'I' for Inactive)
REMARK    1  A    between atoms: C_11  and  C_4 
REMARK       I    between atoms: C_6  and  N_8 
REMARK    2  A    between atoms: C_9  and  C_6 
REMARK    3  A    between atoms: N_8  and  C_19 
ROOT
ATOM      1  C   UNL d   1     -50.476  25.311  33.470  0.00  0.00     0.021 A 
ATOM      2  C   UNL d   1     -49.461  26.317  33.625  0.00  0.00     0.085 A 
ATOM      3  C   UNL d   1     -50.257  26.101  33.588  0.00  0.00     0.021 A 
ATOM      4  C   UNL d   1     -49.887  24.727  33.387  0.00  0.00     0.002 A 
ATOM      5  C   UNL d   1     -49.090  24.938  33.423  0.00  0.00     0.002 A 
ATOM      6  C   UNL d   1     -48.871  25.734  33.543  0.00  0.00     0.019 A 
ENDROOT
BRANCH   2   7
ATOM      7  N   UNL d   1     -49.252  27.104  33.743  0.00  0.00    -0.208 NA
ATOM      8  C   UNL d   1     -48.909  27.350  34.458  0.00  0.00     0.279 C 
ATOM      9  O   UNL d   1     -48.776  26.787  35.059  0.00  0.00    -0.265 OA
BRANCH   8  10
ATOM     10  C   UNL d   1     -48.699  28.137  34.577  0.00  0.00     0.060 A 
ATOM     11  C   UNL d   1     -48.065  28.326  35.062  0.00  0.00     0.031 A 
ATOM     12  C   UNL d   1     -47.863  29.105  35.176  0.00  0.00     0.119 A 
ATOM     13  O   UNL d   1     -47.260  29.466  35.626  0.00  0.00    -0.300 OA
ATOM     14  C   UNL d   1     -48.290  29.706  34.807  0.00  0.00     0.119 A 
ATOM     15  C   UNL d   1     -47.326  30.285  35.528  0.00  0.00     0.304 A 
ATOM     16  O   UNL d   1     -47.962  30.433  35.023  0.00  0.00    -0.300 OA
ATOM     17  C   UNL d   1     -48.927  29.521  34.320  0.00  0.00     0.026 A 
ATOM     18  C   UNL d   1     -49.134  28.730  34.203  0.00  0.00     0.007 A 
ENDBRANCH   8  10
ENDBRANCH   2   7
BRANCH   1  19
ATOM     19  C   UNL d   1     -51.272  25.095  33.433  0.00  0.00     0.118 A 
ATOM     20  N   UNL d   1     -51.568  24.328  33.403  0.00  0.00    -0.059 NA
ATOM     21  C   UNL d   1     -52.396  24.375  33.371  0.00  0.00     0.735 A 
ATOM     22  N   UNL d   1     -52.605  25.174  33.380  0.00  0.00    -0.136 N 
ATOM     23  N   UNL d   1     -52.974  23.787  33.334  0.00  0.00    -0.059 NA
ATOM     24  C   UNL d   1     -51.912  25.621  33.418  0.00  0.00     0.118 A 
ATOM     25  C   UNL d   1     -53.408  25.382  33.352  0.00  0.00     0.100 A 
ATOM     26  C   UNL d   1     -53.989  24.806  33.316  0.00  0.00     0.041 A 
ATOM     27  C   UNL d   1     -53.770  24.003  33.307  0.00  0.00     0.119 A 
ENDBRANCH   1  19
TORSDOF 3
ENDMDL
MODEL 2
REMARK VINA RESULT:      74.0      2.551      6.356
REMARK  3 active torsions:
REMARK  status: ('A' for Active; 'I' for Inactive)
REMARK    1  A    between atoms: C_11  and  C_4 
REMARK       I    between atoms: C_6  and  N_8 
REMARK    2  A    between atoms: C_9  and  C_6 
REMARK    3  A    between atoms: N_8  and  C_19 
ROOT
ATOM      1  C   UNL d   1     -47.945  30.350  34.936  0.00  0.00     0.021 A 
ATOM      2  C   UNL d   1     -48.561  29.052  34.969  0.00  0.00     0.085 A 
ATOM      3  C   UNL d   1     -48.497  29.806  34.642  0.00  0.00     0.021 A 
ATOM      4  C   UNL d   1     -47.448  30.132  35.569  0.00  0.00     0.002 A 
ATOM      5  C   UNL d   1     -47.508  29.378  35.899  0.00  0.00     0.002 A 
ATOM      6  C   UNL d   1     -48.064  28.832  35.603  0.00  0.00     0.019 A 
ENDROOT
BRANCH   2   7
ATOM      7  N   UNL d   1     -49.112  28.518  34.671  0.00  0.00    -0.208 NA
ATOM      8  C   UNL d   1     -48.886  27.748  34.460  0.00  0.00     0.279 C 
ATOM      9  O   UNL d   1     -48.090  27.518  34.553  0.00  0.00    -0.265 OA
BRANCH   8  10
ATOM     10  C   UNL d   1     -49.437  27.213  34.162  0.00  0.00     0.060 A 
ATOM     11  C   UNL d   1     -50.235  27.401  34.160  0.00  0.00     0.031 A 
ATOM     12  C   UNL d   1     -50.773  26.869  33.864  0.00  0.00     0.119 A 
ATOM     13  O   UNL d   1     -51.604  26.898  33.788  0.00  0.00    -0.300 OA
ATOM     14  C   UNL d   1     -50.523  26.142  33.567  0.00  0.00     0.119 A 
ATOM     15  C   UNL d   1     -51.853  26.188  33.444  0.00  0.00     0.304 A 
ATOM     16  O   UNL d   1     -51.185  25.721  33.308  0.00  0.00    -0.300 OA
ATOM     17  C   UNL d   1     -49.723  25.949  33.567  0.00  0.00     0.026 A 
ATOM     18  C   UNL d   1     -49.174  26.488  33.867  0.00  0.00     0.007 A 
ENDBRANCH   8  10
ENDBRANCH   2   7
BRANCH   1  19
ATOM     19  C   UNL d   1     -47.881  31.105  34.609  0.00  0.00     0.118 A 
ATOM     20  N   UNL d   1     -47.225  31.601  34.650  0.00  0.00    -0.059 NA
ATOM     21  C   UNL d   1     -47.410  32.301  34.245  0.00  0.00     0.735 A 
ATOM     22  N   UNL d   1     -48.180  32.233  33.957  0.00  0.00    -0.136 N 
ATOM     23  N   UNL d   1     -46.966  32.985  34.110  0.00  0.00    -0.059 NA
ATOM     24  C   UNL d   1     -48.474  31.494  34.181  0.00  0.00     0.118 A 
ATOM     25  C   UNL d   1     -48.508  32.862  33.526  0.00  0.00     0.100 A 
ATOM     26  C   UNL d   1     -48.076  33.543  33.387  0.00  0.00     0.041 A 
ATOM     27  C   UNL d   1     -47.300  33.605  33.681  0.00  0.00     0.119 A 
ENDBRANCH   1  19
TORSDOF 3
ENDMDL
