MODEL 1
REMARK VINA RESULT:     -11.3      0.000      0.000
REMARK  4 active torsions:
REMARK  status: ('A' for Active; 'I' for Inactive)
REMARK    1  A    between atoms: C_7  and  C_1 
REMARK    2  A    between atoms: C_6  and  N_2 
REMARK    3  A    between atoms: C_8  and  C_6 
REMARK    4  A    between atoms: C_9  and  C_7 
ROOT
ATOM      1  C   UNL d   1      52.190  32.435  52.981  0.00  0.00     0.148 A 
ATOM      2  N   UNL d   1      52.956  32.392  53.175  0.00  0.00    -0.289 N 
ATOM      3  N   UNL d   1      51.844  31.727  52.934  0.00  0.00    -0.227 NA
ATOM      4  C   UNL d   1      53.143  31.556  53.269  0.00  0.00     0.083 A 
ATOM      5  C   UNL d   1      52.469  31.154  53.123  0.00  0.00     0.099 A 
ATOM      6  C   UNL d   1      53.811  31.136  53.459  0.00  0.00     0.019 A 
ATOM      7  C   UNL d   1      52.419  30.304  53.158  0.00  0.00     0.021 A 
ATOM      8  C   UNL d   1      53.827  30.325  53.509  0.00  0.00     0.002 A 
ATOM      9  C   UNL d   1      53.154  29.922  53.364  0.00  0.00     0.002 A 
ENDROOT
BRANCH   2  10
ATOM     10  C   UNL d   1      53.357  33.073  53.237  0.00  0.00     0.082 C 
BRANCH  10  11
ATOM     11  C   UNL d   1      53.841  33.232  53.857  0.00  0.00     0.018 A 
ATOM     12  C   UNL d   1      54.651  33.304  53.718  0.00  0.00     0.002 A 
ATOM     13  C   UNL d   1      55.190  33.468  54.339  0.00  0.00     0.000 A 
ATOM     14  C   UNL d   1      54.867  33.557  55.108  0.00  0.00     0.000 A 
ATOM     15  C   UNL d   1      54.057  33.485  55.247  0.00  0.00     0.000 A 
ATOM     16  C   UNL d   1      55.407  33.723  55.734  0.00  0.00     0.000 C 
ATOM     17  C   UNL d   1      53.571  33.325  54.616  0.00  0.00     0.002 A 
ENDBRANCH  10  11
ENDBRANCH   2  10
BRANCH   1  18
ATOM     18  C   UNL d   1      52.208  33.238  52.940  0.00  0.00     0.037 C 
BRANCH  18  19
ATOM     19  C   UNL d   1      51.530  33.644  52.701  0.00  0.00     0.003 A 
ATOM     20  C   UNL d   1      50.902  33.746  53.229  0.00  0.00     0.000 A 
ATOM     21  C   UNL d   1      50.223  34.151  52.990  0.00  0.00     0.000 A 
ATOM     22  C   UNL d   1      50.172  34.454  52.225  0.00  0.00     0.000 A 
ATOM     23  C   UNL d   1      50.797  34.361  51.675  0.00  0.00     0.000 A 
ATOM     24  C   UNL d   1      51.478  33.947  51.936  0.00  0.00     0.000 A 
ENDBRANCH  18  19
ENDBRANCH   1  18
TORSDOF 4
ENDMDL
MODEL 2
REMARK VINA RESULT:     -10.7      0.656      2.723
REMARK  4 active torsions:
REMARK  status: ('A' for Active; 'I' for Inactive)
REMARK    1  A    between atoms: C_7  and  C_1 
REMARK    2  A    between atoms: C_6  and  N_2 
REMARK    3  A    between atoms: C_8  and  C_6 
REMARK    4  A    between atoms: C_9  and  C_7 
ROOT
ATOM      1  C   UNL d   1      52.535  33.570  53.581  0.00  0.00     0.148 A 
ATOM      2  N   UNL d   1      53.069  32.987  53.541  0.00  0.00    -0.289 N 
ATOM      3  N   UNL d   1      52.729  34.129  54.105  0.00  0.00    -0.227 NA
ATOM      4  C   UNL d   1      53.691  33.180  54.105  0.00  0.00     0.083 A 
ATOM      5  C   UNL d   1      53.486  33.871  54.446  0.00  0.00     0.099 A 
ATOM      6  C   UNL d   1      54.385  32.826  54.335  0.00  0.00     0.019 A 
ATOM      7  C   UNL d   1      53.959  34.255  55.041  0.00  0.00     0.021 A 
ATOM      8  C   UNL d   1      54.880  33.142  54.897  0.00  0.00     0.002 A 
ATOM      9  C   UNL d   1      54.674  33.833  55.238  0.00  0.00     0.002 A 
ENDROOT
BRANCH   2  10
ATOM     10  C   UNL d   1      52.927  32.397  53.031  0.00  0.00     0.082 C 
BRANCH  10  11
ATOM     11  C   UNL d   1      53.015  31.624  53.234  0.00  0.00     0.018 A 
ATOM     12  C   UNL d   1      53.635  31.196  52.899  0.00  0.00     0.002 A 
ATOM     13  C   UNL d   1      53.761  30.388  53.085  0.00  0.00     0.000 A 
ATOM     14  C   UNL d   1      53.226  30.036  53.626  0.00  0.00     0.000 A 
ATOM     15  C   UNL d   1      52.605  30.464  53.961  0.00  0.00     0.000 A 
ATOM     16  C   UNL d   1      53.350  29.224  53.814  0.00  0.00     0.000 C 
ATOM     17  C   UNL d   1      52.521  31.245  53.753  0.00  0.00     0.002 A 
ENDBRANCH  10  11
ENDBRANCH   2  10
BRANCH   1  18
ATOM     18  C   UNL d   1      52.068  33.231  53.022  0.00  0.00     0.037 C 
BRANCH  18  19
ATOM     19  C   UNL d   1      51.423  33.653  52.727  0.00  0.00     0.003 A 
ATOM     20  C   UNL d   1      51.472  34.023  51.990  0.00  0.00     0.000 A 
ATOM     21  C   UNL d   1      50.827  34.446  51.695  0.00  0.00     0.000 A 
ATOM     22  C   UNL d   1      50.132  34.499  52.137  0.00  0.00     0.000 A 
ATOM     23  C   UNL d   1      50.062  34.131  52.886  0.00  0.00     0.000 A 
ATOM     24  C   UNL d   1      50.728  33.706  53.169  0.00  0.00     0.000 A 
ENDBRANCH  18  19
ENDBRANCH   1  18
TORSDOF 4
ENDMDL
MODEL 3
REMARK VINA RESULT:     -10.7      0.724      3.118
REMARK  4 active torsions:
REMARK  status: ('A' for Active; 'I' for Inactive)
REMARK    1  A    between atoms: C_7  and  C_1 
REMARK    2  A    between atoms: C_6  and  N_2 
REMARK    3  A    between atoms: C_8  and  C_6 
REMARK    4  A    between atoms: C_9  and  C_7 
ROOT
ATOM      1  C   UNL d   1      52.632  31.947  53.263  0.00  0.00     0.148 A 
ATOM      2  N   UNL d   1      53.097  32.586  53.315  0.00  0.00    -0.289 N 
ATOM      3  N   UNL d   1      51.877  32.128  53.118  0.00  0.00    -0.227 NA
ATOM      4  C   UNL d   1      52.593  33.273  53.189  0.00  0.00     0.083 A 
ATOM      5  C   UNL d   1      51.854  32.995  53.070  0.00  0.00     0.099 A 
ATOM      6  C   UNL d   1      52.712  34.076  53.170  0.00  0.00     0.019 A 
ATOM      7  C   UNL d   1      51.185  33.502  52.923  0.00  0.00     0.021 A 
ATOM      8  C   UNL d   1      52.115  34.610  53.035  0.00  0.00     0.002 A 
ATOM      9  C   UNL d   1      51.376  34.333  52.916  0.00  0.00     0.002 A 
ENDROOT
BRANCH   2  10
ATOM     10  C   UNL d   1      53.867  32.467  53.460  0.00  0.00     0.082 C 
BRANCH  10  11
ATOM     11  C   UNL d   1      54.267  32.877  54.023  0.00  0.00     0.018 A 
ATOM     12  C   UNL d   1      54.921  33.325  53.797  0.00  0.00     0.002 A 
ATOM     13  C   UNL d   1      55.365  33.767  54.354  0.00  0.00     0.000 A 
ATOM     14  C   UNL d   1      55.112  33.733  55.153  0.00  0.00     0.000 A 
ATOM     15  C   UNL d   1      54.457  33.286  55.380  0.00  0.00     0.000 A 
ATOM     16  C   UNL d   1      55.556  34.177  55.715  0.00  0.00     0.000 C 
ATOM     17  C   UNL d   1      54.056  32.872  54.807  0.00  0.00     0.002 A 
ENDBRANCH  10  11
ENDBRANCH   2  10
BRANCH   1  18
ATOM     18  C   UNL d   1      53.245  31.445  53.399  0.00  0.00     0.037 C 
BRANCH  18  19
ATOM     19  C   UNL d   1      53.109  30.631  53.381  0.00  0.00     0.003 A 
ATOM     20  C   UNL d   1      52.929  30.258  52.665  0.00  0.00     0.000 A 
ATOM     21  C   UNL d   1      52.793  29.444  52.646  0.00  0.00     0.000 A 
ATOM     22  C   UNL d   1      52.836  29.002  53.342  0.00  0.00     0.000 A 
ATOM     23  C   UNL d   1      53.016  29.361  54.077  0.00  0.00     0.000 A 
ATOM     24  C   UNL d   1      53.152  30.189  54.076  0.00  0.00     0.000 A 
ENDBRANCH  18  19
ENDBRANCH   1  18
TORSDOF 4
ENDMDL
MODEL 4
REMARK VINA RESULT:     -10.4      0.763      3.920
REMARK  4 active torsions:
REMARK  status: ('A' for Active; 'I' for Inactive)
REMARK    1  A    between atoms: C_7  and  C_1 
REMARK    2  A    between atoms: C_6  and  N_2 
REMARK    3  A    between atoms: C_8  and  C_6 
REMARK    4  A    between atoms: C_9  and  C_7 
ROOT
ATOM      1  C   UNL d   1      53.334  32.248  53.847  0.00  0.00     0.148 A 
ATOM      2  N   UNL d   1      53.042  32.925  53.559  0.00  0.00    -0.289 N 
ATOM      3  N   UNL d   1      53.800  32.357  54.475  0.00  0.00    -0.227 NA
ATOM      4  C   UNL d   1      53.350  33.559  54.053  0.00  0.00     0.083 A 
ATOM      5  C   UNL d   1      53.809  33.215  54.608  0.00  0.00     0.099 A 
ATOM      6  C   UNL d   1      53.271  34.368  54.063  0.00  0.00     0.019 A 
ATOM      7  C   UNL d   1      54.220  33.656  55.210  0.00  0.00     0.021 A 
ATOM      8  C   UNL d   1      53.638  34.843  54.611  0.00  0.00     0.002 A 
ATOM      9  C   UNL d   1      54.097  34.499  55.166  0.00  0.00     0.002 A 
ENDROOT
BRANCH   2  10
ATOM     10  C   UNL d   1      52.566  32.878  52.927  0.00  0.00     0.082 C 
BRANCH  10  11
ATOM     11  C   UNL d   1      51.893  33.312  52.863  0.00  0.00     0.018 A 
ATOM     12  C   UNL d   1      51.839  33.872  52.259  0.00  0.00     0.002 A 
ATOM     13  C   UNL d   1      51.154  34.345  52.159  0.00  0.00     0.000 A 
ATOM     14  C   UNL d   1      50.526  34.222  52.701  0.00  0.00     0.000 A 
ATOM     15  C   UNL d   1      50.580  33.662  53.305  0.00  0.00     0.000 A 
ATOM     16  C   UNL d   1      49.837  34.696  52.602  0.00  0.00     0.000 C 
ATOM     17  C   UNL d   1      51.262  33.226  53.365  0.00  0.00     0.002 A 
ENDBRANCH  10  11
ENDBRANCH   2  10
BRANCH   1  18
ATOM     18  C   UNL d   1      52.957  31.806  53.290  0.00  0.00     0.037 C 
BRANCH  18  19
ATOM     19  C   UNL d   1      53.057  30.987  53.293  0.00  0.00     0.003 A 
ATOM     20  C   UNL d   1      53.780  30.657  53.068  0.00  0.00     0.000 A 
ATOM     21  C   UNL d   1      53.879  29.837  53.071  0.00  0.00     0.000 A 
ATOM     22  C   UNL d   1      53.256  29.347  53.300  0.00  0.00     0.000 A 
ATOM     23  C   UNL d   1      52.515  29.662  53.531  0.00  0.00     0.000 A 
ATOM     24  C   UNL d   1      52.433  30.496  53.521  0.00  0.00     0.000 A 
ENDBRANCH  18  19
ENDBRANCH   1  18
TORSDOF 4
ENDMDL
MODEL 5
REMARK VINA RESULT:     -10.3      0.603      3.430
REMARK  4 active torsions:
REMARK  status: ('A' for Active; 'I' for Inactive)
REMARK    1  A    between atoms: C_7  and  C_1 
REMARK    2  A    between atoms: C_6  and  N_2 
REMARK    3  A    between atoms: C_8  and  C_6 
REMARK    4  A    between atoms: C_9  and  C_7 
ROOT
ATOM      1  C   UNL d   1      53.772  32.300  54.011  0.00  0.00     0.148 A 
ATOM      2  N   UNL d   1      53.265  32.355  53.406  0.00  0.00    -0.289 N 
ATOM      3  N   UNL d   1      53.893  31.555  54.244  0.00  0.00    -0.227 NA
ATOM      4  C   UNL d   1      53.019  31.552  53.213  0.00  0.00     0.083 A 
ATOM      5  C   UNL d   1      53.399  31.068  53.720  0.00  0.00     0.099 A 
ATOM      6  C   UNL d   1      52.520  31.223  52.663  0.00  0.00     0.019 A 
ATOM      7  C   UNL d   1      53.306  30.221  53.713  0.00  0.00     0.021 A 
ATOM      8  C   UNL d   1      52.389  30.422  52.606  0.00  0.00     0.002 A 
ATOM      9  C   UNL d   1      52.769  29.938  53.114  0.00  0.00     0.002 A 
ENDROOT
BRANCH   2  10
ATOM     10  C   UNL d   1      53.104  33.080  53.128  0.00  0.00     0.082 C 
BRANCH  10  11
ATOM     11  C   UNL d   1      52.353  33.344  53.027  0.00  0.00     0.018 A 
ATOM     12  C   UNL d   1      52.142  33.669  52.299  0.00  0.00     0.002 A 
ATOM     13  C   UNL d   1      51.368  33.956  52.153  0.00  0.00     0.000 A 
ATOM     14  C   UNL d   1      50.817  33.897  52.783  0.00  0.00     0.000 A 
ATOM     15  C   UNL d   1      51.028  33.572  53.512  0.00  0.00     0.000 A 
ATOM     16  C   UNL d   1      50.039  34.185  52.640  0.00  0.00     0.000 C 
ATOM     17  C   UNL d   1      51.789  33.306  53.609  0.00  0.00     0.002 A 
ENDBRANCH  10  11
ENDBRANCH   2  10
BRANCH   1  18
ATOM     18  C   UNL d   1      53.880  33.096  54.041  0.00  0.00     0.037 C 
BRANCH  18  19
ATOM     19  C   UNL d   1      54.464  33.404  54.536  0.00  0.00     0.003 A 
ATOM     20  C   UNL d   1      54.317  33.491  55.345  0.00  0.00     0.000 A 
ATOM     21  C   UNL d   1      54.901  33.799  55.841  0.00  0.00     0.000 A 
ATOM     22  C   UNL d   1      55.633  34.019  55.529  0.00  0.00     0.000 A 
ATOM     23  C   UNL d   1      55.801  33.939  54.712  0.00  0.00     0.000 A 
ATOM     24  C   UNL d   1      55.195  33.624  54.225  0.00  0.00     0.000 A 
ENDBRANCH  18  19
ENDBRANCH   1  18
TORSDOF 4
ENDMDL
MODEL 6
REMARK VINA RESULT:      -8.9      0.817      3.847
REMARK  4 active torsions:
REMARK  status: ('A' for Active; 'I' for Inactive)
REMARK    1  A    between atoms: C_7  and  C_1 
REMARK    2  A    between atoms: C_6  and  N_2 
REMARK    3  A    between atoms: C_8  and  C_6 
REMARK    4  A    between atoms: C_9  and  C_7 
ROOT
ATOM      1  C   UNL d   1      53.226  33.280  53.991  0.00  0.00     0.148 A 
ATOM      2  N   UNL d   1      52.970  32.729  53.484  0.00  0.00    -0.289 N 
ATOM      3  N   UNL d   1      52.691  33.844  54.129  0.00  0.00    -0.227 NA
ATOM      4  C   UNL d   1      52.170  32.952  53.257  0.00  0.00     0.083 A 
ATOM      5  C   UNL d   1      52.001  33.627  53.648  0.00  0.00     0.099 A 
ATOM      6  C   UNL d   1      51.604  32.637  52.767  0.00  0.00     0.019 A 
ATOM      7  C   UNL d   1      51.255  34.033  53.574  0.00  0.00     0.021 A 
ATOM      8  C   UNL d   1      50.874  32.977  52.655  0.00  0.00     0.002 A 
ATOM      9  C   UNL d   1      50.705  33.652  53.045  0.00  0.00     0.002 A 
ENDROOT
BRANCH   2  10
ATOM     10  C   UNL d   1      53.466  32.137  53.307  0.00  0.00     0.082 C 
BRANCH  10  11
ATOM     11  C   UNL d   1      53.247  31.365  53.355  0.00  0.00     0.018 A 
ATOM     12  C   UNL d   1      53.140  30.940  52.656  0.00  0.00     0.002 A 
ATOM     13  C   UNL d   1      52.912  30.134  52.663  0.00  0.00     0.000 A 
ATOM     14  C   UNL d   1      52.798  29.779  53.415  0.00  0.00     0.000 A 
ATOM     15  C   UNL d   1      52.905  30.203  54.114  0.00  0.00     0.000 A 
ATOM     16  C   UNL d   1      52.569  28.968  53.424  0.00  0.00     0.000 C 
ATOM     17  C   UNL d   1      53.126  30.983  54.060  0.00  0.00     0.002 A 
ENDBRANCH  10  11
ENDBRANCH   2  10
BRANCH   1  18
ATOM     18  C   UNL d   1      53.939  32.919  54.080  0.00  0.00     0.037 C 
BRANCH  18  19
ATOM     19  C   UNL d   1      54.528  33.296  54.519  0.00  0.00     0.003 A 
ATOM     20  C   UNL d   1      55.171  33.646  54.135  0.00  0.00     0.000 A 
ATOM     21  C   UNL d   1      55.760  34.023  54.574  0.00  0.00     0.000 A 
ATOM     22  C   UNL d   1      55.707  34.050  55.397  0.00  0.00     0.000 A 
ATOM     23  C   UNL d   1      55.064  33.701  55.806  0.00  0.00     0.000 A 
ATOM     24  C   UNL d   1      54.476  33.323  55.342  0.00  0.00     0.000 A 
ENDBRANCH  18  19
ENDBRANCH   1  18
TORSDOF 4
ENDMDL
