MODEL 1
REMARK VINA RESULT:      -4.4      0.000      0.000
REMARK  3 active torsions:
REMARK  status: ('A' for Active; 'I' for Inactive)
REMARK    1  A    between atoms: N_6  and  C_1 
REMARK    2  A    between atoms: C_14  and  N_4 
REMARK    3  A    between atoms: C_7  and  N_6 
ROOT
ATOM      1  C   UNL d   1      57.834   0.323  31.230  0.00  0.00     0.157 A 
ATOM      2  C   UNL d   1      57.061   0.133  31.449  0.00  0.00     0.298 A 
ATOM      3  N   UNL d   1      57.765   0.403  32.505  0.00  0.00    -0.238 N 
ATOM      4  N   UNL d   1      57.006   0.179  32.233  0.00  0.00    -0.209 N 
ATOM      5  C   UNL d   1      58.219   0.474  31.849  0.00  0.00     0.104 A 
ATOM      6  O   UNL d   1      56.442  -0.073  30.929  0.00  0.00    -0.263 OA
ATOM      7  C   UNL d   1      58.032   0.535  33.287  0.00  0.00     0.120 C 
ATOM      8  C   UNL d   1      58.991   0.682  31.866  0.00  0.00     0.022 C 
ENDROOT
BRANCH   1   9
ATOM      9  N   UNL d   1      58.147   0.348  30.470  0.00  0.00    -0.239 NA
BRANCH   9  10
ATOM     10  C   UNL d   1      58.419  -0.329  30.128  0.00  0.00     0.082 A 
ATOM     11  C   UNL d   1      59.042  -0.315  29.557  0.00  0.00     0.021 A 
ATOM     12  C   UNL d   1      59.324  -0.998  29.204  0.00  0.00     0.040 A 
ATOM     13  C   UNL d   1      59.370   0.408  29.354  0.00  0.00     0.002 A 
ATOM     14  C   UNL d   1      59.931  -0.972  28.650  0.00  0.00     0.003 A 
ATOM     15  C   UNL d   1      58.996  -1.721  29.407  0.00  0.00     0.196 A 
ATOM     16  C   UNL d   1      60.250  -0.235  28.457  0.00  0.00     0.000 A 
ATOM     17  C   UNL d   1      59.977   0.448  28.801  0.00  0.00     0.000 A 
ATOM     18  C   UNL d   1      58.387  -1.759  29.962  0.00  0.00     0.044 A 
ATOM     19  O   UNL d   1      59.296  -2.431  29.035  0.00  0.00    -0.287 OA
ATOM     20  C   UNL d   1      58.096  -1.042  30.328  0.00  0.00     0.022 A 
ENDBRANCH   9  10
ENDBRANCH   1   9
BRANCH   4  21
ATOM     21  C   UNL d   1      56.334   0.033  32.680  0.00  0.00     0.085 A 
ATOM     22  C   UNL d   1      55.908   0.680  33.009  0.00  0.00     0.019 A 
ATOM     23  C   UNL d   1      55.226   0.544  33.464  0.00  0.00     0.002 A 
ATOM     24  C   UNL d   1      54.950  -0.228  33.604  0.00  0.00     0.000 A 
ATOM     25  C   UNL d   1      55.366  -0.877  33.282  0.00  0.00     0.002 A 
ATOM     26  C   UNL d   1      56.049  -0.733  32.827  0.00  0.00     0.019 A 
ENDBRANCH   4  21
TORSDOF 3
ENDMDL
MODEL 2
REMARK VINA RESULT:      -4.1      1.261      4.576
REMARK  3 active torsions:
REMARK  status: ('A' for Active; 'I' for Inactive)
REMARK    1  A    between atoms: N_6  and  C_1 
REMARK    2  A    between atoms: C_14  and  N_4 
REMARK    3  A    between atoms: C_7  and  N_6 
ROOT
ATOM      1  C   UNL d   1      57.956   0.382  30.863  0.00  0.00     0.157 A 
ATOM      2  C   UNL d   1      58.750   0.173  30.778  0.00  0.00     0.298 A 
ATOM      3  N   UNL d   1      58.212   0.346  29.610  0.00  0.00    -0.238 N 
ATOM      4  N   UNL d   1      58.919   0.148  30.010  0.00  0.00    -0.209 N 
ATOM      5  C   UNL d   1      57.667   0.476  30.182  0.00  0.00     0.104 A 
ATOM      6  O   UNL d   1      59.283   0.015  31.400  0.00  0.00    -0.263 OA
ATOM      7  C   UNL d   1      58.064   0.407  28.788  0.00  0.00     0.120 C 
ATOM      8  C   UNL d   1      56.909   0.682  30.034  0.00  0.00     0.022 C 
ENDROOT
BRANCH   1   9
ATOM      9  N   UNL d   1      57.535   0.476  31.563  0.00  0.00    -0.239 NA
BRANCH   9  10
ATOM     10  C   UNL d   1      57.103  -0.139  31.855  0.00  0.00     0.082 A 
ATOM     11  C   UNL d   1      56.713  -0.088  32.603  0.00  0.00     0.021 A 
ATOM     12  C   UNL d   1      56.273  -0.709  32.906  0.00  0.00     0.040 A 
ATOM     13  C   UNL d   1      56.783   0.605  33.034  0.00  0.00     0.002 A 
ATOM     14  C   UNL d   1      55.898  -0.648  33.636  0.00  0.00     0.003 A 
ATOM     15  C   UNL d   1      56.203  -1.402  32.476  0.00  0.00     0.196 A 
ATOM     16  C   UNL d   1      55.979   0.058  34.057  0.00  0.00     0.000 A 
ATOM     17  C   UNL d   1      56.414   0.678  33.764  0.00  0.00     0.000 A 
ATOM     18  C   UNL d   1      56.575  -1.474  31.743  0.00  0.00     0.044 A 
ATOM     19  O   UNL d   1      55.741  -2.046  32.798  0.00  0.00    -0.287 OA
ATOM     20  C   UNL d   1      57.034  -0.823  31.430  0.00  0.00     0.022 A 
ENDBRANCH   9  10
ENDBRANCH   1   9
BRANCH   4  21
ATOM     21  C   UNL d   1      59.648  -0.037  29.681  0.00  0.00     0.085 A 
ATOM     22  C   UNL d   1      59.835  -0.841  29.516  0.00  0.00     0.019 A 
ATOM     23  C   UNL d   1      60.569  -1.040  29.183  0.00  0.00     0.002 A 
ATOM     24  C   UNL d   1      61.133  -0.455  29.006  0.00  0.00     0.000 A 
ATOM     25  C   UNL d   1      60.958   0.346  29.167  0.00  0.00     0.002 A 
ATOM     26  C   UNL d   1      60.220   0.538  29.500  0.00  0.00     0.019 A 
ENDBRANCH   4  21
TORSDOF 3
ENDMDL
MODEL 3
REMARK VINA RESULT:      -3.4      1.347      4.517
REMARK  3 active torsions:
REMARK  status: ('A' for Active; 'I' for Inactive)
REMARK    1  A    between atoms: N_6  and  C_1 
REMARK    2  A    between atoms: C_14  and  N_4 
REMARK    3  A    between atoms: C_7  and  N_6 
ROOT
ATOM      1  C   UNL d   1      57.433   0.665  31.949  0.00  0.00     0.157 A 
ATOM      2  C   UNL d   1      57.533   0.646  31.130  0.00  0.00     0.298 A 
ATOM      3  N   UNL d   1      58.690   0.647  31.716  0.00  0.00    -0.238 N 
ATOM      4  N   UNL d   1      58.304   0.635  30.974  0.00  0.00    -0.209 N 
ATOM      5  C   UNL d   1      58.108   0.665  32.265  0.00  0.00     0.104 A 
ATOM      6  O   UNL d   1      56.921   0.640  30.563  0.00  0.00    -0.263 OA
ATOM      7  C   UNL d   1      59.509   0.642  31.890  0.00  0.00     0.120 C 
ATOM      8  C   UNL d   1      58.242   0.681  33.053  0.00  0.00     0.022 C 
ENDROOT
BRANCH   1   9
ATOM      9  N   UNL d   1      56.725   0.682  32.366  0.00  0.00    -0.239 NA
BRANCH   9  10
ATOM     10  C   UNL d   1      56.360  -0.010  32.562  0.00  0.00     0.082 A 
ATOM     11  C   UNL d   1      55.730  -0.033  33.126  0.00  0.00     0.021 A 
ATOM     12  C   UNL d   1      55.355  -0.732  33.330  0.00  0.00     0.040 A 
ATOM     13  C   UNL d   1      55.493   0.669  33.475  0.00  0.00     0.002 A 
ATOM     14  C   UNL d   1      54.743  -0.742  33.880  0.00  0.00     0.003 A 
ATOM     15  C   UNL d   1      55.592  -1.433  32.980  0.00  0.00     0.196 A 
ATOM     16  C   UNL d   1      54.517  -0.025  34.222  0.00  0.00     0.000 A 
ATOM     17  C   UNL d   1      54.884   0.673  34.026  0.00  0.00     0.000 A 
ATOM     18  C   UNL d   1      56.205  -1.435  32.427  0.00  0.00     0.044 A 
ATOM     19  O   UNL d   1      55.196  -2.160  33.198  0.00  0.00    -0.287 OA
ATOM     20  C   UNL d   1      56.594  -0.702  32.217  0.00  0.00     0.022 A 
ENDBRANCH   9  10
ENDBRANCH   1   9
BRANCH   4  21
ATOM     21  C   UNL d   1      58.647   0.615  30.229  0.00  0.00     0.085 A 
ATOM     22  C   UNL d   1      58.158   0.679  29.547  0.00  0.00     0.019 A 
ATOM     23  C   UNL d   1      58.494   0.660  28.788  0.00  0.00     0.002 A 
ATOM     24  C   UNL d   1      59.315   0.578  28.684  0.00  0.00     0.000 A 
ATOM     25  C   UNL d   1      59.810   0.514  29.354  0.00  0.00     0.002 A 
ATOM     26  C   UNL d   1      59.466   0.533  30.112  0.00  0.00     0.019 A 
ENDBRANCH   4  21
TORSDOF 3
ENDMDL
MODEL 4
REMARK VINA RESULT:      -2.0      1.308      2.122
REMARK  3 active torsions:
REMARK  status: ('A' for Active; 'I' for Inactive)
REMARK    1  A    between atoms: N_6  and  C_1 
REMARK    2  A    between atoms: C_14  and  N_4 
REMARK    3  A    between atoms: C_7  and  N_6 
ROOT
ATOM      1  C   UNL d   1      58.497  -0.617  30.067  0.00  0.00     0.157 A 
ATOM      2  C   UNL d   1      58.237  -0.717  30.844  0.00  0.00     0.298 A 
ATOM      3  N   UNL d   1      57.472   0.130  30.228  0.00  0.00    -0.238 N 
ATOM      4  N   UNL d   1      57.605  -0.261  30.955  0.00  0.00    -0.209 N 
ATOM      5  C   UNL d   1      58.046  -0.128  29.732  0.00  0.00     0.104 A 
ATOM      6  O   UNL d   1      58.583  -1.217  31.415  0.00  0.00    -0.263 OA
ATOM      7  C   UNL d   1      56.877   0.682  30.021  0.00  0.00     0.120 C 
ATOM      8  C   UNL d   1      58.118   0.113  28.974  0.00  0.00     0.022 C 
ENDROOT
BRANCH   1   9
ATOM      9  N   UNL d   1      59.138  -0.981  29.704  0.00  0.00    -0.239 NA
BRANCH   9  10
ATOM     10  C   UNL d   1      59.059  -1.725  29.403  0.00  0.00     0.082 A 
ATOM     11  C   UNL d   1      59.727  -2.166  29.132  0.00  0.00     0.021 A 
ATOM     12  C   UNL d   1      59.653  -2.922  28.825  0.00  0.00     0.040 A 
ATOM     13  C   UNL d   1      60.468  -1.821  29.180  0.00  0.00     0.002 A 
ATOM     14  C   UNL d   1      60.311  -3.341  28.564  0.00  0.00     0.003 A 
ATOM     15  C   UNL d   1      58.912  -3.267  28.777  0.00  0.00     0.196 A 
ATOM     16  C   UNL d   1      61.051  -2.978  28.620  0.00  0.00     0.000 A 
ATOM     17  C   UNL d   1      61.133  -2.229  28.923  0.00  0.00     0.000 A 
ATOM     18  C   UNL d   1      58.245  -2.855  29.035  0.00  0.00     0.044 A 
ATOM     19  O   UNL d   1      58.842  -4.057  28.455  0.00  0.00    -0.287 OA
ATOM     20  C   UNL d   1      58.327  -2.065  29.355  0.00  0.00     0.022 A 
ENDBRANCH   9  10
ENDBRANCH   1   9
BRANCH   4  21
ATOM     21  C   UNL d   1      57.173  -0.193  31.649  0.00  0.00     0.085 A 
ATOM     22  C   UNL d   1      56.649  -0.813  31.872  0.00  0.00     0.019 A 
ATOM     23  C   UNL d   1      56.207  -0.755  32.573  0.00  0.00     0.002 A 
ATOM     24  C   UNL d   1      56.271  -0.088  33.067  0.00  0.00     0.000 A 
ATOM     25  C   UNL d   1      56.788   0.533  32.853  0.00  0.00     0.002 A 
ATOM     26  C   UNL d   1      57.228   0.467  32.150  0.00  0.00     0.019 A 
ENDBRANCH   4  21
TORSDOF 3
ENDMDL
