MODEL 1
REMARK VINA RESULT:      -0.5      0.000      0.000
REMARK  7 active torsions:
REMARK  status: ('A' for Active; 'I' for Inactive)
REMARK    1  A    between atoms: N_4  and  C_1 
REMARK    2  A    between atoms: N_8  and  C_1 
REMARK    3  A    between atoms: C_2  and  C_3 
REMARK    4  A    between atoms: C_5  and  C_2 
REMARK    5  A    between atoms: N_6  and  C_2 
REMARK    6  A    between atoms: C_3  and  N_4 
REMARK    7  A    between atoms: C_14  and  N_8 
ROOT
ATOM      1  C   UNL d   1     -41.679-123.214 -50.560  0.00  0.00     0.100 C 
ATOM      2  C   UNL d   1     -41.123-123.817 -50.539  0.00  0.00     0.022 C 
ENDROOT
BRANCH   1   3
ATOM      3  C   UNL d   1     -42.088-123.009 -49.874  0.00  0.00     0.088 C 
BRANCH   3   4
ATOM      4  C   UNL d   1     -41.716-123.061 -49.139  0.00  0.00     0.047 A 
ATOM      5  S   UNL d   1     -41.504-123.757 -48.740  0.00  0.00    -0.085 SA
ATOM      6  C   UNL d   1     -41.147-123.548 -48.027  0.00  0.00     0.035 A 
ATOM      7  C   UNL d   1     -41.131-122.722 -47.971  0.00  0.00     0.007 A 
ATOM      8  C   UNL d   1     -41.485-122.414 -48.661  0.00  0.00     0.009 A 
ENDBRANCH   3   4
BRANCH   3   9
ATOM      9  N   UNL d   1     -42.875-122.747 -49.917  0.00  0.00    -0.299 N 
ATOM     10  C   UNL d   1     -43.488-123.290 -49.912  0.00  0.00     0.107 A 
ATOM     11  C   UNL d   1     -44.272-123.041 -49.955  0.00  0.00     0.142 A 
ATOM     12  O   UNL d   1     -44.453-122.228 -50.004  0.00  0.00    -0.300 OA
ATOM     13  C   UNL d   1     -43.827-121.679 -50.009  0.00  0.00     0.142 A 
ATOM     14  C   UNL d   1     -43.043-121.938 -49.966  0.00  0.00     0.107 A 
ENDBRANCH   3   9
ENDBRANCH   1   3
BRANCH   1  15
ATOM     15  N   UNL d   1     -41.834-122.811 -51.260  0.00  0.00    -0.216 NA
BRANCH  15  16
ATOM     16  C   UNL d   1     -41.379-122.967 -51.938  0.00  0.00     0.221 C 
ATOM     17  S   UNL d   1     -41.126-123.737 -52.088  0.00  0.00    -0.037 SA
BRANCH  16  18
ATOM     18  N   UNL d   1     -41.184-122.354 -52.452  0.00  0.00    -0.217 NA
BRANCH  18  19
ATOM     19  C   UNL d   1     -41.500-122.329 -53.215  0.00  0.00     0.084 A 
ATOM     20  C   UNL d   1     -41.275-122.904 -53.773  0.00  0.00     0.021 A 
ATOM     21  C   UNL d   1     -41.589-122.873 -54.521  0.00  0.00     0.031 A 
ATOM     22  C   UNL d   1     -42.127-122.281 -54.733  0.00  0.00     0.140 A 
ATOM     23  C   UNL d   1     -42.348-121.713 -54.178  0.00  0.00     0.031 A 
ATOM     24  F   UNL d   1     -42.442-122.260 -55.502  0.00  0.00    -0.204 F 
ATOM     25  C   UNL d   1     -42.034-121.739 -53.421  0.00  0.00     0.021 A 
ENDBRANCH  18  19
ENDBRANCH  16  18
ENDBRANCH  15  16
ENDBRANCH   1  15
TORSDOF 7
ENDMDL
