MODEL 1
REMARK VINA RESULT:      -3.8      0.000      0.000
REMARK  6 active torsions:
REMARK  status: ('A' for Active; 'I' for Inactive)
REMARK    1  A    between atoms: S_6  and  C_2 
REMARK    2  A    between atoms: C_9  and  S_6 
REMARK    3  A    between atoms: C_7  and  C_9 
REMARK    4  A    between atoms: C_8  and  C_7 
REMARK    5  A    between atoms: O_12  and  C_15 
REMARK    6  A    between atoms: C_18  and  O_12 
ROOT
ATOM      1  C   UNL d   1      57.878   0.103  31.211  0.00  0.00     0.040 A 
ATOM      2  C   UNL d   1      57.797  -0.691  31.020  0.00  0.00     0.005 A 
ATOM      3  C   UNL d   1      58.124   0.646  30.619  0.00  0.00     0.005 A 
ATOM      4  C   UNL d   1      58.197  -0.427  29.673  0.00  0.00     0.100 A 
ATOM      5  C   UNL d   1      57.954  -0.959  30.259  0.00  0.00     0.025 A 
ATOM      6  C   UNL d   1      58.280   0.375  29.859  0.00  0.00     0.025 A 
ENDROOT
BRANCH   1   7
ATOM      7  C   UNL d   1      57.722   0.369  31.967  0.00  0.00     0.202 C 
ATOM      8  O   UNL d   1      58.339   0.682  32.425  0.00  0.00    -0.286 OA
BRANCH   7   9
ATOM      9  C   UNL d   1      56.957   0.327  32.273  0.00  0.00     0.080 C 
BRANCH   9  10
ATOM     10  S   UNL d   1      56.834   0.417  33.090  0.00  0.00    -0.043 SA
BRANCH  10  11
ATOM     11  C   UNL d   1      56.073   0.336  33.406  0.00  0.00     0.233 A 
ATOM     12  N   UNL d   1      55.794   0.681  34.098  0.00  0.00    -0.029 NA
ATOM     13  C   UNL d   1      55.009   0.455  34.203  0.00  0.00     0.788 A 
ATOM     14  N   UNL d   1      54.805  -0.029  33.575  0.00  0.00     0.050 NA
ATOM     15  N   UNL d   1      54.524   0.682  34.832  0.00  0.00     0.064 N 
ATOM     16  N   UNL d   1      55.452  -0.108  33.079  0.00  0.00    -0.105 NA
ENDBRANCH  10  11
ENDBRANCH   9  10
ENDBRANCH   7   9
ENDBRANCH   1   7
BRANCH   4  17
ATOM     17  O   UNL d   1      58.356  -0.687  28.908  0.00  0.00    -0.307 OA
BRANCH  17  18
ATOM     18  C   UNL d   1      59.006  -1.180  28.768  0.00  0.00     0.100 A 
ATOM     19  C   UNL d   1      58.909  -1.990  28.727  0.00  0.00     0.025 A 
ATOM     20  C   UNL d   1      59.551  -2.475  28.589  0.00  0.00     0.002 A 
ATOM     21  C   UNL d   1      60.306  -2.148  28.488  0.00  0.00     0.000 A 
ATOM     22  C   UNL d   1      60.407  -1.328  28.528  0.00  0.00     0.002 A 
ATOM     23  C   UNL d   1      59.756  -0.840  28.669  0.00  0.00     0.025 A 
ENDBRANCH  17  18
ENDBRANCH   4  17
TORSDOF 6
ENDMDL
MODEL 2
REMARK VINA RESULT:      -3.7      1.223      1.884
REMARK  6 active torsions:
REMARK  status: ('A' for Active; 'I' for Inactive)
REMARK    1  A    between atoms: S_6  and  C_2 
REMARK    2  A    between atoms: C_9  and  S_6 
REMARK    3  A    between atoms: C_7  and  C_9 
REMARK    4  A    between atoms: C_8  and  C_7 
REMARK    5  A    between atoms: O_12  and  C_15 
REMARK    6  A    between atoms: C_18  and  O_12 
ROOT
ATOM      1  C   UNL d   1      58.412  -0.233  29.858  0.00  0.00     0.040 A 
ATOM      2  C   UNL d   1      59.196  -0.014  29.963  0.00  0.00     0.005 A 
ATOM      3  C   UNL d   1      58.227  -0.866  29.336  0.00  0.00     0.005 A 
ATOM      4  C   UNL d   1      59.621  -1.029  29.050  0.00  0.00     0.100 A 
ATOM      5  C   UNL d   1      59.799  -0.406  29.565  0.00  0.00     0.025 A 
ATOM      6  C   UNL d   1      58.833  -1.255  28.940  0.00  0.00     0.025 A 
ENDROOT
BRANCH   1   7
ATOM      7  C   UNL d   1      57.812   0.155  30.253  0.00  0.00     0.202 C 
ATOM      8  O   UNL d   1      57.315   0.671  29.835  0.00  0.00    -0.286 OA
BRANCH   7   9
ATOM      9  C   UNL d   1      57.702   0.036  31.062  0.00  0.00     0.080 C 
BRANCH   9  10
ATOM     10  S   UNL d   1      57.110   0.458  31.464  0.00  0.00    -0.043 SA
BRANCH  10  11
ATOM     11  C   UNL d   1      56.810   0.170  32.181  0.00  0.00     0.233 A 
ATOM     12  N   UNL d   1      56.228  -0.403  32.270  0.00  0.00    -0.029 NA
ATOM     13  C   UNL d   1      56.100  -0.521  33.075  0.00  0.00     0.788 A 
ATOM     14  N   UNL d   1      56.604  -0.019  33.481  0.00  0.00     0.050 NA
ATOM     15  N   UNL d   1      55.559  -1.051  33.402  0.00  0.00     0.064 N 
ATOM     16  N   UNL d   1      57.045   0.410  32.940  0.00  0.00    -0.105 NA
ENDBRANCH  10  11
ENDBRANCH   9  10
ENDBRANCH   7   9
ENDBRANCH   1   7
BRANCH   4  17
ATOM     17  O   UNL d   1      60.220  -1.426  28.648  0.00  0.00    -0.307 OA
BRANCH  17  18
ATOM     18  C   UNL d   1      60.371  -2.222  28.816  0.00  0.00     0.100 A 
ATOM     19  C   UNL d   1      59.935  -2.811  28.455  0.00  0.00     0.025 A 
ATOM     20  C   UNL d   1      60.086  -3.596  28.622  0.00  0.00     0.002 A 
ATOM     21  C   UNL d   1      60.683  -3.801  29.158  0.00  0.00     0.000 A 
ATOM     22  C   UNL d   1      61.127  -3.207  29.525  0.00  0.00     0.002 A 
ATOM     23  C   UNL d   1      60.973  -2.414  29.355  0.00  0.00     0.025 A 
ENDBRANCH  17  18
ENDBRANCH   4  17
TORSDOF 6
ENDMDL
MODEL 3
REMARK VINA RESULT:      -3.7      1.132      1.528
REMARK  6 active torsions:
REMARK  status: ('A' for Active; 'I' for Inactive)
REMARK    1  A    between atoms: S_6  and  C_2 
REMARK    2  A    between atoms: C_9  and  S_6 
REMARK    3  A    between atoms: C_7  and  C_9 
REMARK    4  A    between atoms: C_8  and  C_7 
REMARK    5  A    between atoms: O_12  and  C_15 
REMARK    6  A    between atoms: C_18  and  O_12 
ROOT
ATOM      1  C   UNL d   1      57.414  -0.420  31.300  0.00  0.00     0.040 A 
ATOM      2  C   UNL d   1      57.967   0.136  31.543  0.00  0.00     0.005 A 
ATOM      3  C   UNL d   1      57.354  -0.613  30.485  0.00  0.00     0.005 A 
ATOM      4  C   UNL d   1      58.404   0.317  30.193  0.00  0.00     0.100 A 
ATOM      5  C   UNL d   1      58.460   0.505  30.998  0.00  0.00     0.025 A 
ATOM      6  C   UNL d   1      57.848  -0.243  29.943  0.00  0.00     0.025 A 
ENDROOT
BRANCH   1   7
ATOM      7  C   UNL d   1      56.924  -0.786  31.842  0.00  0.00     0.202 C 
ATOM      8  O   UNL d   1      56.997  -1.602  31.971  0.00  0.00    -0.286 OA
BRANCH   7   9
ATOM      9  C   UNL d   1      56.363  -0.347  32.257  0.00  0.00     0.080 C 
BRANCH   9  10
ATOM     10  S   UNL d   1      56.002  -0.672  32.931  0.00  0.00    -0.043 SA
BRANCH  10  11
ATOM     11  C   UNL d   1      55.564  -0.188  33.441  0.00  0.00     0.233 A 
ATOM     12  N   UNL d   1      55.672  -0.112  34.252  0.00  0.00    -0.029 NA
ATOM     13  C   UNL d   1      55.119   0.426  34.540  0.00  0.00     0.788 A 
ATOM     14  N   UNL d   1      54.670   0.681  33.904  0.00  0.00     0.050 NA
ATOM     15  N   UNL d   1      55.039   0.659  35.327  0.00  0.00     0.064 N 
ATOM     16  N   UNL d   1      54.936   0.309  33.224  0.00  0.00    -0.105 NA
ENDBRANCH  10  11
ENDBRANCH   9  10
ENDBRANCH   7   9
ENDBRANCH   1   7
BRANCH   4  17
ATOM     17  O   UNL d   1      58.894   0.682  29.641  0.00  0.00    -0.307 OA
BRANCH  17  18
ATOM     18  C   UNL d   1      59.609   0.326  29.427  0.00  0.00     0.100 A 
ATOM     19  C   UNL d   1      60.319   0.637  29.686  0.00  0.00     0.025 A 
ATOM     20  C   UNL d   1      61.024   0.284  29.473  0.00  0.00     0.002 A 
ATOM     21  C   UNL d   1      61.024  -0.392  28.993  0.00  0.00     0.000 A 
ATOM     22  C   UNL d   1      60.308  -0.708  28.730  0.00  0.00     0.002 A 
ATOM     23  C   UNL d   1      59.596  -0.350  28.946  0.00  0.00     0.025 A 
ENDBRANCH  17  18
ENDBRANCH   4  17
TORSDOF 6
ENDMDL
MODEL 4
REMARK VINA RESULT:      -2.8      3.577      5.567
REMARK  6 active torsions:
REMARK  status: ('A' for Active; 'I' for Inactive)
REMARK    1  A    between atoms: S_6  and  C_2 
REMARK    2  A    between atoms: C_9  and  S_6 
REMARK    3  A    between atoms: C_7  and  C_9 
REMARK    4  A    between atoms: C_8  and  C_7 
REMARK    5  A    between atoms: O_12  and  C_15 
REMARK    6  A    between atoms: C_18  and  O_12 
ROOT
ATOM      1  C   UNL d   1      58.197  -0.505  29.921  0.00  0.00     0.040 A 
ATOM      2  C   UNL d   1      58.181  -0.893  30.645  0.00  0.00     0.005 A 
ATOM      3  C   UNL d   1      57.952   0.297  29.877  0.00  0.00     0.005 A 
ATOM      4  C   UNL d   1      57.686   0.286  31.285  0.00  0.00     0.100 A 
ATOM      5  C   UNL d   1      57.928  -0.504  31.324  0.00  0.00     0.025 A 
ATOM      6  C   UNL d   1      57.700   0.682  30.558  0.00  0.00     0.025 A 
ENDROOT
BRANCH   1   7
ATOM      7  C   UNL d   1      58.448  -0.891  29.246  0.00  0.00     0.202 C 
ATOM      8  O   UNL d   1      58.132  -0.673  28.511  0.00  0.00    -0.286 OA
BRANCH   7   9
ATOM      9  C   UNL d   1      59.011  -1.492  29.296  0.00  0.00     0.080 C 
BRANCH   9  10
ATOM     10  S   UNL d   1      59.417  -1.733  28.613  0.00  0.00    -0.043 SA
BRANCH  10  11
ATOM     11  C   UNL d   1      59.975  -2.345  28.656  0.00  0.00     0.233 A 
ATOM     12  N   UNL d   1      59.849  -3.133  28.459  0.00  0.00    -0.029 NA
ATOM     13  C   UNL d   1      60.549  -3.547  28.586  0.00  0.00     0.788 A 
ATOM     14  N   UNL d   1      61.106  -3.014  28.861  0.00  0.00     0.050 NA
ATOM     15  N   UNL d   1      60.659  -4.355  28.455  0.00  0.00     0.064 N 
ATOM     16  N   UNL d   1      60.762  -2.271  28.907  0.00  0.00    -0.105 NA
ENDBRANCH  10  11
ENDBRANCH   9  10
ENDBRANCH   7   9
ENDBRANCH   1   7
BRANCH   4  17
ATOM     17  O   UNL d   1      57.432   0.682  31.961  0.00  0.00    -0.307 OA
BRANCH  17  18
ATOM     18  C   UNL d   1      56.811   0.371  32.411  0.00  0.00     0.100 A 
ATOM     19  C   UNL d   1      56.035   0.508  32.195  0.00  0.00     0.025 A 
ATOM     20  C   UNL d   1      55.424   0.200  32.641  0.00  0.00     0.002 A 
ATOM     21  C   UNL d   1      55.587  -0.253  33.316  0.00  0.00     0.000 A 
ATOM     22  C   UNL d   1      56.372  -0.393  33.536  0.00  0.00     0.002 A 
ATOM     23  C   UNL d   1      56.988  -0.081  33.084  0.00  0.00     0.025 A 
ENDBRANCH  17  18
ENDBRANCH   4  17
TORSDOF 6
ENDMDL
MODEL 5
REMARK VINA RESULT:      -1.8      9.495     10.501
REMARK  6 active torsions:
REMARK  status: ('A' for Active; 'I' for Inactive)
REMARK    1  A    between atoms: S_6  and  C_2 
REMARK    2  A    between atoms: C_9  and  S_6 
REMARK    3  A    between atoms: C_7  and  C_9 
REMARK    4  A    between atoms: C_8  and  C_7 
REMARK    5  A    between atoms: O_12  and  C_15 
REMARK    6  A    between atoms: C_18  and  O_12 
ROOT
ATOM      1  C   UNL d   1      58.589  -9.546  32.931  0.00  0.00     0.040 A 
ATOM      2  C   UNL d   1      59.365  -9.289  33.002  0.00  0.00     0.005 A 
ATOM      3  C   UNL d   1      58.176  -9.806  33.615  0.00  0.00     0.005 A 
ATOM      4  C   UNL d   1      59.337  -9.539  34.410  0.00  0.00     0.100 A 
ATOM      5  C   UNL d   1      59.740  -9.284  33.734  0.00  0.00     0.025 A 
ATOM      6  C   UNL d   1      58.554  -9.799  34.344  0.00  0.00     0.025 A 
ENDROOT
BRANCH   1   7
ATOM      7  C   UNL d   1      58.215  -9.552  32.204  0.00  0.00     0.202 C 
ATOM      8  O   UNL d   1      57.430  -9.291  32.147  0.00  0.00    -0.286 OA
BRANCH   7   9
ATOM      9  C   UNL d   1      58.616  -9.815  31.533  0.00  0.00     0.080 C 
BRANCH   9  10
ATOM     10  S   UNL d   1      58.231  -9.817  30.797  0.00  0.00    -0.043 SA
BRANCH  10  11
ATOM     11  C   UNL d   1      58.665  -9.705  30.101  0.00  0.00     0.233 A 
ATOM     12  N   UNL d   1      59.477  -9.589  30.047  0.00  0.00    -0.029 NA
ATOM     13  C   UNL d   1      59.676  -9.502  29.253  0.00  0.00     0.788 A 
ATOM     14  N   UNL d   1      58.986  -9.566  28.817  0.00  0.00     0.050 NA
ATOM     15  N   UNL d   1      60.437  -9.375  28.960  0.00  0.00     0.064 N 
ATOM     16  N   UNL d   1      58.359  -9.691  29.330  0.00  0.00    -0.105 NA
ENDBRANCH  10  11
ENDBRANCH   9  10
ENDBRANCH   7   9
ENDBRANCH   1   7
BRANCH   4  17
ATOM     17  O   UNL d   1      59.706  -9.536  35.146  0.00  0.00    -0.307 OA
BRANCH  17  18
ATOM     18  C   UNL d   1      59.926  -8.819  35.494  0.00  0.00     0.100 A 
ATOM     19  C   UNL d   1      60.695  -8.548  35.432  0.00  0.00     0.025 A 
ATOM     20  C   UNL d   1      60.911  -7.840  35.776  0.00  0.00     0.002 A 
ATOM     21  C   UNL d   1      60.351  -7.390  36.190  0.00  0.00     0.000 A 
ATOM     22  C   UNL d   1      59.573  -7.661  36.254  0.00  0.00     0.002 A 
ATOM     23  C   UNL d   1      59.356  -8.378  35.905  0.00  0.00     0.025 A 
ENDBRANCH  17  18
ENDBRANCH   4  17
TORSDOF 6
ENDMDL
