MODEL 1
REMARK VINA RESULT:      -8.5      0.000      0.000
REMARK  5 active torsions:
REMARK  status: ('A' for Active; 'I' for Inactive)
REMARK    1  A    between atoms: N_4  and  C_2 
REMARK    2  A    between atoms: S_8  and  C_3 
REMARK    3  A    between atoms: C_10  and  S_8 
REMARK    4  A    between atoms: C_9  and  C_10 
REMARK    5  A    between atoms: C_12  and  C_9 
ROOT
ATOM      1  N   UNL d   1      52.502  33.669  53.130  0.00  0.00    -0.203 NA
ATOM      2  C   UNL d   1      52.004  34.332  53.193  0.00  0.00     0.152 A 
ATOM      3  C   UNL d   1      53.200  33.650  53.545  0.00  0.00     0.196 A 
ATOM      4  C   UNL d   1      52.193  34.944  53.646  0.00  0.00     0.057 A 
ATOM      5  N   UNL d   1      53.398  34.293  54.021  0.00  0.00    -0.221 NA
ATOM      6  C   UNL d   1      52.900  34.956  54.084  0.00  0.00     0.087 A 
ATOM      7  C   UNL d   1      53.072  35.620  54.556  0.00  0.00     0.021 C 
ENDROOT
BRANCH   3   8
ATOM      8  S   UNL d   1      53.713  33.015  53.507  0.00  0.00    -0.045 SA
BRANCH   8   9
ATOM      9  C   UNL d   1      53.404  32.252  53.553  0.00  0.00     0.080 C 
BRANCH   9  10
ATOM     10  C   UNL d   1      53.883  31.570  53.458  0.00  0.00     0.202 C 
ATOM     11  O   UNL d   1      54.694  31.618  53.361  0.00  0.00    -0.286 OA
BRANCH  10  12
ATOM     12  C   UNL d   1      53.477  30.863  53.472  0.00  0.00     0.040 A 
ATOM     13  C   UNL d   1      53.624  30.321  54.115  0.00  0.00     0.003 A 
ATOM     14  C   UNL d   1      53.245  29.631  54.153  0.00  0.00     0.000 A 
ATOM     15  C   UNL d   1      52.698  29.414  53.574  0.00  0.00     0.000 A 
ATOM     16  C   UNL d   1      52.553  29.924  52.960  0.00  0.00     0.000 A 
ATOM     17  C   UNL d   1      52.930  30.646  52.893  0.00  0.00     0.003 A 
ENDBRANCH  10  12
ENDBRANCH   9  10
ENDBRANCH   8   9
ENDBRANCH   3   8
BRANCH   2  18
ATOM     18  N   UNL d   1      51.285  34.327  52.752  0.00  0.00    -0.285 N 
ATOM     19  C   UNL d   1      51.294  34.284  51.969  0.00  0.00     0.108 A 
ATOM     20  C   UNL d   1      50.589  34.278  51.514  0.00  0.00     0.142 A 
ATOM     21  O   UNL d   1      49.868  34.319  51.951  0.00  0.00    -0.300 OA
ATOM     22  C   UNL d   1      49.900  34.361  52.734  0.00  0.00     0.142 A 
ATOM     23  C   UNL d   1      50.571  34.368  53.175  0.00  0.00     0.108 A 
ENDBRANCH   2  18
TORSDOF 5
ENDMDL
MODEL 2
REMARK VINA RESULT:      -8.3      1.335      4.290
REMARK  5 active torsions:
REMARK  status: ('A' for Active; 'I' for Inactive)
REMARK    1  A    between atoms: N_4  and  C_2 
REMARK    2  A    between atoms: S_8  and  C_3 
REMARK    3  A    between atoms: C_10  and  S_8 
REMARK    4  A    between atoms: C_9  and  C_10 
REMARK    5  A    between atoms: C_12  and  C_9 
ROOT
ATOM      1  N   UNL d   1      52.911  32.299  53.692  0.00  0.00    -0.203 NA
ATOM      2  C   UNL d   1      53.516  31.736  53.596  0.00  0.00     0.152 A 
ATOM      3  C   UNL d   1      53.098  33.087  53.735  0.00  0.00     0.196 A 
ATOM      4  C   UNL d   1      54.268  31.951  53.546  0.00  0.00     0.057 A 
ATOM      5  N   UNL d   1      53.889  33.313  53.683  0.00  0.00    -0.221 NA
ATOM      6  C   UNL d   1      54.494  32.751  53.586  0.00  0.00     0.087 A 
ATOM      7  C   UNL d   1      55.302  32.946  53.530  0.00  0.00     0.021 C 
ENDROOT
BRANCH   3   8
ATOM      8  S   UNL d   1      52.529  33.667  53.829  0.00  0.00    -0.045 SA
BRANCH   8   9
ATOM      9  C   UNL d   1      51.988  33.794  53.220  0.00  0.00     0.080 C 
BRANCH   9  10
ATOM     10  C   UNL d   1      51.529  34.494  53.170  0.00  0.00     0.202 C 
ATOM     11  O   UNL d   1      51.710  35.164  53.602  0.00  0.00    -0.286 OA
BRANCH  10  12
ATOM     12  C   UNL d   1      50.895  34.450  52.659  0.00  0.00     0.040 A 
ATOM     13  C   UNL d   1      50.110  34.571  52.973  0.00  0.00     0.003 A 
ATOM     14  C   UNL d   1      49.479  34.534  52.502  0.00  0.00     0.000 A 
ATOM     15  C   UNL d   1      49.559  34.379  51.696  0.00  0.00     0.000 A 
ATOM     16  C   UNL d   1      50.301  34.263  51.390  0.00  0.00     0.000 A 
ATOM     17  C   UNL d   1      50.975  34.295  51.853  0.00  0.00     0.003 A 
ENDBRANCH  10  12
ENDBRANCH   9  10
ENDBRANCH   8   9
ENDBRANCH   3   8
BRANCH   2  18
ATOM     18  N   UNL d   1      53.294  30.924  53.554  0.00  0.00    -0.285 N 
ATOM     19  C   UNL d   1      53.482  30.425  54.128  0.00  0.00     0.108 A 
ATOM     20  C   UNL d   1      53.270  29.613  54.103  0.00  0.00     0.142 A 
ATOM     21  O   UNL d   1      52.840  29.366  53.420  0.00  0.00    -0.300 OA
ATOM     22  C   UNL d   1      52.670  29.895  52.865  0.00  0.00     0.142 A 
ATOM     23  C   UNL d   1      52.870  30.672  52.884  0.00  0.00     0.108 A 
ENDBRANCH   2  18
TORSDOF 5
ENDMDL
MODEL 3
REMARK VINA RESULT:      -7.8      1.519      4.545
REMARK  5 active torsions:
REMARK  status: ('A' for Active; 'I' for Inactive)
REMARK    1  A    between atoms: N_4  and  C_2 
REMARK    2  A    between atoms: S_8  and  C_3 
REMARK    3  A    between atoms: C_10  and  S_8 
REMARK    4  A    between atoms: C_9  and  C_10 
REMARK    5  A    between atoms: C_12  and  C_9 
ROOT
ATOM      1  N   UNL d   1      53.326  32.932  53.429  0.00  0.00    -0.203 NA
ATOM      2  C   UNL d   1      53.792  32.498  53.964  0.00  0.00     0.152 A 
ATOM      3  C   UNL d   1      52.844  32.540  52.906  0.00  0.00     0.196 A 
ATOM      4  C   UNL d   1      53.777  31.714  53.975  0.00  0.00     0.057 A 
ATOM      5  N   UNL d   1      52.828  31.716  52.919  0.00  0.00    -0.221 NA
ATOM      6  C   UNL d   1      53.294  31.282  53.453  0.00  0.00     0.087 A 
ATOM      7  C   UNL d   1      53.301  30.450  53.491  0.00  0.00     0.021 C 
ENDROOT
BRANCH   3   8
ATOM      8  S   UNL d   1      52.372  32.934  52.367  0.00  0.00    -0.045 SA
BRANCH   8   9
ATOM      9  C   UNL d   1      51.794  33.450  52.649  0.00  0.00     0.080 C 
BRANCH   9  10
ATOM     10  C   UNL d   1      51.421  34.015  52.154  0.00  0.00     0.202 C 
ATOM     11  O   UNL d   1      51.743  34.246  51.438  0.00  0.00    -0.286 OA
BRANCH  10  12
ATOM     12  C   UNL d   1      50.719  34.312  52.444  0.00  0.00     0.040 A 
ATOM     13  C   UNL d   1      50.036  34.314  51.931  0.00  0.00     0.003 A 
ATOM     14  C   UNL d   1      49.344  34.595  52.185  0.00  0.00     0.000 A 
ATOM     15  C   UNL d   1      49.261  34.893  52.950  0.00  0.00     0.000 A 
ATOM     16  C   UNL d   1      49.906  34.894  53.443  0.00  0.00     0.000 A 
ATOM     17  C   UNL d   1      50.636  34.610  53.209  0.00  0.00     0.003 A 
ENDBRANCH  10  12
ENDBRANCH   9  10
ENDBRANCH   8   9
ENDBRANCH   3   8
BRANCH   2  18
ATOM     18  N   UNL d   1      54.284  32.929  54.496  0.00  0.00    -0.285 N 
ATOM     19  C   UNL d   1      54.104  32.982  55.257  0.00  0.00     0.108 A 
ATOM     20  C   UNL d   1      54.581  33.407  55.801  0.00  0.00     0.142 A 
ATOM     21  O   UNL d   1      55.269  33.776  55.478  0.00  0.00    -0.300 OA
ATOM     22  C   UNL d   1      55.416  33.700  54.710  0.00  0.00     0.142 A 
ATOM     23  C   UNL d   1      54.963  33.295  54.185  0.00  0.00     0.108 A 
ENDBRANCH   2  18
TORSDOF 5
ENDMDL
MODEL 4
REMARK VINA RESULT:      -7.7      1.414      2.484
REMARK  5 active torsions:
REMARK  status: ('A' for Active; 'I' for Inactive)
REMARK    1  A    between atoms: N_4  and  C_2 
REMARK    2  A    between atoms: S_8  and  C_3 
REMARK    3  A    between atoms: C_10  and  S_8 
REMARK    4  A    between atoms: C_9  and  C_10 
REMARK    5  A    between atoms: C_12  and  C_9 
ROOT
ATOM      1  N   UNL d   1      52.671  33.288  53.372  0.00  0.00    -0.203 NA
ATOM      2  C   UNL d   1      52.327  33.980  53.679  0.00  0.00     0.152 A 
ATOM      3  C   UNL d   1      52.238  32.809  52.880  0.00  0.00     0.196 A 
ATOM      4  C   UNL d   1      51.590  34.182  53.505  0.00  0.00     0.057 A 
ATOM      5  N   UNL d   1      51.463  33.022  52.696  0.00  0.00    -0.221 NA
ATOM      6  C   UNL d   1      51.120  33.713  53.004  0.00  0.00     0.087 A 
ATOM      7  C   UNL d   1      50.340  33.956  52.838  0.00  0.00     0.021 C 
ENDROOT
BRANCH   3   8
ATOM      8  S   UNL d   1      52.544  32.122  52.559  0.00  0.00    -0.045 SA
BRANCH   8   9
ATOM      9  C   UNL d   1      52.660  31.471  53.053  0.00  0.00     0.080 C 
BRANCH   9  10
ATOM     10  C   UNL d   1      52.927  30.732  52.761  0.00  0.00     0.202 C 
ATOM     11  O   UNL d   1      53.035  30.593  51.963  0.00  0.00    -0.286 OA
BRANCH  10  12
ATOM     12  C   UNL d   1      53.070  30.170  53.335  0.00  0.00     0.040 A 
ATOM     13  C   UNL d   1      52.481  29.566  53.468  0.00  0.00     0.003 A 
ATOM     14  C   UNL d   1      52.593  29.010  54.016  0.00  0.00     0.000 A 
ATOM     15  C   UNL d   1      53.278  28.998  54.475  0.00  0.00     0.000 A 
ATOM     16  C   UNL d   1      53.842  29.569  54.355  0.00  0.00     0.000 A 
ATOM     17  C   UNL d   1      53.755  30.158  53.795  0.00  0.00     0.003 A 
ENDBRANCH  10  12
ENDBRANCH   9  10
ENDBRANCH   8   9
ENDBRANCH   3   8
BRANCH   2  18
ATOM     18  N   UNL d   1      52.799  34.460  54.188  0.00  0.00    -0.285 N 
ATOM     19  C   UNL d   1      53.194  34.144  54.787  0.00  0.00     0.108 A 
ATOM     20  C   UNL d   1      53.668  34.606  55.303  0.00  0.00     0.142 A 
ATOM     21  O   UNL d   1      53.693  35.434  55.138  0.00  0.00    -0.300 OA
ATOM     22  C   UNL d   1      53.283  35.713  54.529  0.00  0.00     0.142 A 
ATOM     23  C   UNL d   1      52.828  35.276  54.032  0.00  0.00     0.108 A 
ENDBRANCH   2  18
TORSDOF 5
ENDMDL
MODEL 5
REMARK VINA RESULT:      -7.0      1.451      4.820
REMARK  5 active torsions:
REMARK  status: ('A' for Active; 'I' for Inactive)
REMARK    1  A    between atoms: N_4  and  C_2 
REMARK    2  A    between atoms: S_8  and  C_3 
REMARK    3  A    between atoms: C_10  and  S_8 
REMARK    4  A    between atoms: C_9  and  C_10 
REMARK    5  A    between atoms: C_12  and  C_9 
ROOT
ATOM      1  N   UNL d   1      51.877  33.383  52.797  0.00  0.00    -0.203 NA
ATOM      2  C   UNL d   1      52.546  33.273  53.278  0.00  0.00     0.152 A 
ATOM      3  C   UNL d   1      51.563  34.126  52.710  0.00  0.00     0.196 A 
ATOM      4  C   UNL d   1      52.884  33.874  53.651  0.00  0.00     0.057 A 
ATOM      5  N   UNL d   1      51.918  34.758  53.102  0.00  0.00    -0.221 NA
ATOM      6  C   UNL d   1      52.588  34.648  53.582  0.00  0.00     0.087 A 
ATOM      7  C   UNL d   1      52.969  35.265  53.991  0.00  0.00     0.021 C 
ENDROOT
BRANCH   3   8
ATOM      8  S   UNL d   1      50.905  34.271  52.245  0.00  0.00    -0.045 SA
BRANCH   8   9
ATOM      9  C   UNL d   1      50.223  34.564  52.605  0.00  0.00     0.080 C 
BRANCH   9  10
ATOM     10  C   UNL d   1      49.500  34.648  52.188  0.00  0.00     0.202 C 
ATOM     11  O   UNL d   1      49.356  34.257  51.484  0.00  0.00    -0.286 OA
BRANCH  10  12
ATOM     12  C   UNL d   1      48.959  35.146  52.540  0.00  0.00     0.040 A 
ATOM     13  C   UNL d   1      48.322  35.457  52.064  0.00  0.00     0.003 A 
ATOM     14  C   UNL d   1      47.785  35.941  52.379  0.00  0.00     0.000 A 
ATOM     15  C   UNL d   1      47.823  36.159  53.174  0.00  0.00     0.000 A 
ATOM     16  C   UNL d   1      48.425  35.867  53.633  0.00  0.00     0.000 A 
ATOM     17  C   UNL d   1      48.997  35.364  53.335  0.00  0.00     0.003 A 
ENDBRANCH  10  12
ENDBRANCH   9  10
ENDBRANCH   8   9
ENDBRANCH   3   8
BRANCH   2  18
ATOM     18  N   UNL d   1      52.853  32.490  53.352  0.00  0.00    -0.285 N 
ATOM     19  C   UNL d   1      52.553  31.900  52.932  0.00  0.00     0.108 A 
ATOM     20  C   UNL d   1      52.845  31.115  52.992  0.00  0.00     0.142 A 
ATOM     21  O   UNL d   1      53.483  31.000  53.534  0.00  0.00    -0.300 OA
ATOM     22  C   UNL d   1      53.755  31.617  53.937  0.00  0.00     0.142 A 
ATOM     23  C   UNL d   1      53.480  32.369  53.883  0.00  0.00     0.108 A 
ENDBRANCH   2  18
TORSDOF 5
ENDMDL
MODEL 6
REMARK VINA RESULT:      -5.7      1.823      5.001
REMARK  5 active torsions:
REMARK  status: ('A' for Active; 'I' for Inactive)
REMARK    1  A    between atoms: N_4  and  C_2 
REMARK    2  A    between atoms: S_8  and  C_3 
REMARK    3  A    between atoms: C_10  and  S_8 
REMARK    4  A    between atoms: C_9  and  C_10 
REMARK    5  A    between atoms: C_12  and  C_9 
ROOT
ATOM      1  N   UNL d   1      51.692  34.306  53.079  0.00  0.00    -0.203 NA
ATOM      2  C   UNL d   1      52.282  33.932  53.531  0.00  0.00     0.152 A 
ATOM      3  C   UNL d   1      51.259  33.872  52.548  0.00  0.00     0.196 A 
ATOM      4  C   UNL d   1      52.431  33.166  53.455  0.00  0.00     0.057 A 
ATOM      5  N   UNL d   1      51.415  33.067  52.468  0.00  0.00    -0.221 NA
ATOM      6  C   UNL d   1      52.005  32.694  52.919  0.00  0.00     0.087 A 
ATOM      7  C   UNL d   1      52.187  31.883  52.863  0.00  0.00     0.021 C 
ENDROOT
BRANCH   3   8
ATOM      8  S   UNL d   1      50.671  34.206  52.087  0.00  0.00    -0.045 SA
BRANCH   8   9
ATOM      9  C   UNL d   1      49.996  34.501  52.458  0.00  0.00     0.080 C 
BRANCH   9  10
ATOM     10  C   UNL d   1      49.309  34.716  52.029  0.00  0.00     0.202 C 
ATOM     11  O   UNL d   1      49.169  34.448  51.269  0.00  0.00    -0.286 OA
BRANCH  10  12
ATOM     12  C   UNL d   1      48.797  35.210  52.428  0.00  0.00     0.040 A 
ATOM     13  C   UNL d   1      48.129  35.532  52.006  0.00  0.00     0.003 A 
ATOM     14  C   UNL d   1      47.619  36.012  52.367  0.00  0.00     0.000 A 
ATOM     15  C   UNL d   1      47.716  36.216  53.160  0.00  0.00     0.000 A 
ATOM     16  C   UNL d   1      48.349  35.915  53.569  0.00  0.00     0.000 A 
ATOM     17  C   UNL d   1      48.895  35.415  53.222  0.00  0.00     0.003 A 
ENDBRANCH  10  12
ENDBRANCH   9  10
ENDBRANCH   8   9
ENDBRANCH   3   8
BRANCH   2  18
ATOM     18  N   UNL d   1      52.718  34.406  54.076  0.00  0.00    -0.285 N 
ATOM     19  C   UNL d   1      53.047  34.087  54.712  0.00  0.00     0.108 A 
ATOM     20  C   UNL d   1      53.484  34.543  55.265  0.00  0.00     0.142 A 
ATOM     21  O   UNL d   1      53.547  35.368  55.095  0.00  0.00    -0.300 OA
ATOM     22  C   UNL d   1      53.203  35.650  54.448  0.00  0.00     0.142 A 
ATOM     23  C   UNL d   1      52.784  35.219  53.915  0.00  0.00     0.108 A 
ENDBRANCH   2  18
TORSDOF 5
ENDMDL
MODEL 7
REMARK VINA RESULT:      -5.5      2.276      3.173
REMARK  5 active torsions:
REMARK  status: ('A' for Active; 'I' for Inactive)
REMARK    1  A    between atoms: N_4  and  C_2 
REMARK    2  A    between atoms: S_8  and  C_3 
REMARK    3  A    between atoms: C_10  and  S_8 
REMARK    4  A    between atoms: C_9  and  C_10 
REMARK    5  A    between atoms: C_12  and  C_9 
ROOT
ATOM      1  N   UNL d   1      50.848  34.793  53.018  0.00  0.00    -0.203 NA
ATOM      2  C   UNL d   1      50.179  34.352  52.798  0.00  0.00     0.152 A 
ATOM      3  C   UNL d   1      51.523  34.409  53.253  0.00  0.00     0.196 A 
ATOM      4  C   UNL d   1      50.184  33.568  52.811  0.00  0.00     0.057 A 
ATOM      5  N   UNL d   1      51.529  33.585  53.267  0.00  0.00    -0.221 NA
ATOM      6  C   UNL d   1      50.859  33.143  53.046  0.00  0.00     0.087 A 
ATOM      7  C   UNL d   1      50.833  32.311  53.049  0.00  0.00     0.021 C 
ENDROOT
BRANCH   3   8
ATOM      8  S   UNL d   1      52.200  34.810  53.476  0.00  0.00    -0.045 SA
BRANCH   8   9
ATOM      9  C   UNL d   1      52.762  34.416  53.933  0.00  0.00     0.080 C 
BRANCH   9  10
ATOM     10  C   UNL d   1      53.384  34.821  54.322  0.00  0.00     0.202 C 
ATOM     11  O   UNL d   1      53.414  35.638  54.361  0.00  0.00    -0.286 OA
BRANCH  10  12
ATOM     12  C   UNL d   1      53.951  34.338  54.655  0.00  0.00     0.040 A 
ATOM     13  C   UNL d   1      54.673  34.199  54.222  0.00  0.00     0.003 A 
ATOM     14  C   UNL d   1      55.238  33.736  54.520  0.00  0.00     0.000 A 
ATOM     15  C   UNL d   1      55.146  33.375  55.256  0.00  0.00     0.000 A 
ATOM     16  C   UNL d   1      54.463  33.502  55.674  0.00  0.00     0.000 A 
ATOM     17  C   UNL d   1      53.860  33.976  55.391  0.00  0.00     0.003 A 
ENDBRANCH  10  12
ENDBRANCH   9  10
ENDBRANCH   8   9
ENDBRANCH   3   8
BRANCH   2  18
ATOM     18  N   UNL d   1      49.490  34.776  52.559  0.00  0.00    -0.285 N 
ATOM     19  C   UNL d   1      49.220  34.724  51.824  0.00  0.00     0.108 A 
ATOM     20  C   UNL d   1      48.537  35.139  51.569  0.00  0.00     0.142 A 
ATOM     21  O   UNL d   1      48.157  35.617  52.152  0.00  0.00    -0.300 OA
ATOM     22  C   UNL d   1      48.457  35.644  52.876  0.00  0.00     0.142 A 
ATOM     23  C   UNL d   1      49.110  35.250  53.127  0.00  0.00     0.108 A 
ENDBRANCH   2  18
TORSDOF 5
ENDMDL
