MODEL 1
REMARK VINA RESULT:       5.0      0.000      0.000
REMARK  6 active torsions:
REMARK  status: ('A' for Active; 'I' for Inactive)
REMARK    1  A    between atoms: S_6  and  C_1 
REMARK    2  A    between atoms: C_15  and  S_6 
REMARK    3  A    between atoms: C_8  and  O_11 
REMARK    4  A    between atoms: C_10  and  C_15 
REMARK    5  A    between atoms: C_16  and  C_10 
REMARK    6  A    between atoms: O_11  and  C_16 
ROOT
ATOM      1  C   UNL d   1      45.854 -16.369  44.583  0.00  0.00     0.040 C 
ENDROOT
BRANCH   1   2
ATOM      2  C   UNL d   1      45.733 -17.168  44.746  0.00  0.00     0.034 C 
BRANCH   2   3
ATOM      3  C   UNL d   1      46.320 -17.719  44.555  0.00  0.00     0.123 C 
BRANCH   3   4
ATOM      4  O   UNL d   1      46.436 -17.921  43.764  0.00  0.00    -0.305 OA
BRANCH   4   5
ATOM      5  C   UNL d   1      46.506 -18.711  43.546  0.00  0.00     0.100 A 
ATOM      6  C   UNL d   1      46.522 -18.920  42.748  0.00  0.00     0.025 A 
ATOM      7  C   UNL d   1      46.593 -19.722  42.533  0.00  0.00     0.002 A 
ATOM      8  C   UNL d   1      46.609 -19.931  41.736  0.00  0.00     0.000 C 
ATOM      9  C   UNL d   1      46.647 -20.303  43.117  0.00  0.00     0.000 A 
ATOM     10  C   UNL d   1      46.630 -20.083  43.921  0.00  0.00     0.002 A 
ATOM     11  C   UNL d   1      46.560 -19.290  44.138  0.00  0.00     0.025 A 
ENDBRANCH   4   5
ENDBRANCH   3   4
ENDBRANCH   2   3
ENDBRANCH   1   2
BRANCH   1  12
ATOM     12  S   UNL d   1      45.383 -15.802  44.955  0.00  0.00    -0.048 SA
BRANCH  12  13
ATOM     13  C   UNL d   1      45.392 -15.020  44.697  0.00  0.00     0.194 A 
ATOM     14  N   UNL d   1      44.838 -14.656  44.197  0.00  0.00    -0.220 NA
ATOM     15  C   UNL d   1      45.070 -13.865  44.089  0.00  0.00     0.101 A 
ATOM     16  C   UNL d   1      44.732 -13.252  43.652  0.00  0.00     0.021 A 
ATOM     17  C   UNL d   1      45.770 -13.731  44.520  0.00  0.00     0.101 A 
ATOM     18  C   UNL d   1      45.085 -12.508  43.642  0.00  0.00     0.002 A 
ATOM     19  C   UNL d   1      45.779 -12.375  44.069  0.00  0.00     0.002 A 
ATOM     20  C   UNL d   1      46.117 -12.986  44.506  0.00  0.00     0.021 A 
ATOM     21  N   UNL d   1      45.971 -14.450  44.900  0.00  0.00    -0.220 NA
ENDBRANCH  12  13
ENDBRANCH   1  12
TORSDOF 6
ENDMDL
MODEL 2
REMARK VINA RESULT:       5.8      1.556      5.606
REMARK  6 active torsions:
REMARK  status: ('A' for Active; 'I' for Inactive)
REMARK    1  A    between atoms: S_6  and  C_1 
REMARK    2  A    between atoms: C_15  and  S_6 
REMARK    3  A    between atoms: C_8  and  O_11 
REMARK    4  A    between atoms: C_10  and  C_15 
REMARK    5  A    between atoms: C_16  and  C_10 
REMARK    6  A    between atoms: O_11  and  C_16 
ROOT
ATOM      1  C   UNL d   1      45.920 -16.584  44.401  0.00  0.00     0.040 C 
ENDROOT
BRANCH   1   2
ATOM      2  C   UNL d   1      45.815 -15.972  44.942  0.00  0.00     0.034 C 
BRANCH   2   3
ATOM      3  C   UNL d   1      45.963 -15.190  44.712  0.00  0.00     0.123 C 
BRANCH   3   4
ATOM      4  O   UNL d   1      45.325 -14.678  44.605  0.00  0.00    -0.305 OA
BRANCH   4   5
ATOM      5  C   UNL d   1      45.455 -13.904  44.361  0.00  0.00     0.100 A 
ATOM      6  C   UNL d   1      44.909 -13.528  43.870  0.00  0.00     0.025 A 
ATOM      7  C   UNL d   1      45.046 -12.743  43.625  0.00  0.00     0.002 A 
ATOM      8  C   UNL d   1      44.500 -12.368  43.135  0.00  0.00     0.000 C 
ATOM      9  C   UNL d   1      45.725 -12.346  43.874  0.00  0.00     0.000 A 
ATOM     10  C   UNL d   1      46.271 -12.732  44.370  0.00  0.00     0.002 A 
ATOM     11  C   UNL d   1      46.139 -13.510  44.615  0.00  0.00     0.025 A 
ENDBRANCH   4   5
ENDBRANCH   3   4
ENDBRANCH   2   3
ENDBRANCH   1   2
BRANCH   1  12
ATOM     12  S   UNL d   1      45.891 -17.367  44.662  0.00  0.00    -0.048 SA
BRANCH  12  13
ATOM     13  C   UNL d   1      46.063 -17.985  44.145  0.00  0.00     0.194 A 
ATOM     14  N   UNL d   1      46.198 -17.925  43.328  0.00  0.00    -0.220 NA
ATOM     15  C   UNL d   1      46.349 -18.687  43.036  0.00  0.00     0.101 A 
ATOM     16  C   UNL d   1      46.518 -18.957  42.273  0.00  0.00     0.021 A 
ATOM     17  C   UNL d   1      46.309 -19.228  43.668  0.00  0.00     0.101 A 
ATOM     18  C   UNL d   1      46.647 -19.759  42.139  0.00  0.00     0.002 A 
ATOM     19  C   UNL d   1      46.607 -20.295  42.765  0.00  0.00     0.002 A 
ATOM     20  C   UNL d   1      46.439 -20.027  43.526  0.00  0.00     0.021 A 
ATOM     21  N   UNL d   1      46.131 -18.791  44.360  0.00  0.00    -0.220 NA
ENDBRANCH  12  13
ENDBRANCH   1  12
TORSDOF 6
ENDMDL
