MODEL 1
REMARK VINA RESULT:      -7.8      0.000      0.000
REMARK  5 active torsions:
REMARK  status: ('A' for Active; 'I' for Inactive)
REMARK    1  A    between atoms: O_8  and  C_7 
REMARK    2  A    between atoms: C_10  and  O_8 
REMARK    3  A    between atoms: C_9  and  C_10 
REMARK    4  A    between atoms: O_17  and  C_9 
REMARK    5  A    between atoms: C_21  and  O_17 
ROOT
ATOM      1  C   UNL d   1     -49.207  14.271  22.936  0.00  0.00     0.009 A 
ATOM      2  C   UNL d   1     -49.672  13.624  23.125  0.00  0.00     0.046 A 
ATOM      3  C   UNL d   1     -49.551  15.020  22.862  0.00  0.00     0.064 A 
ATOM      4  C   UNL d   1     -50.354  15.112  22.978  0.00  0.00     0.300 A 
ATOM      5  C   UNL d   1     -50.476  13.716  23.242  0.00  0.00     0.105 A 
ATOM      6  O   UNL d   1     -50.820  14.456  23.170  0.00  0.00    -0.273 OA
ATOM      7  C   UNL d   1     -49.320  12.880  23.197  0.00  0.00     0.102 A 
ATOM      8  C   UNL d   1     -50.943  13.053  23.434  0.00  0.00     0.025 A 
ATOM      9  C   UNL d   1     -49.794  12.225  23.390  0.00  0.00     0.025 A 
ATOM     10  O   UNL d   1     -50.706  15.869  22.904  0.00  0.00    -0.259 OA
ATOM     11  C   UNL d   1     -50.598  12.317  23.506  0.00  0.00     0.004 A 
ATOM     12  C   UNL d   1     -48.395  14.178  22.819  0.00  0.00     0.000 A 
ATOM     13  C   UNL d   1     -49.085  15.671  22.672  0.00  0.00     0.005 A 
ATOM     14  C   UNL d   1     -51.064  11.658  23.698  0.00  0.00     0.000 C 
ATOM     15  C   UNL d   1     -47.917  14.828  22.626  0.00  0.00     0.000 A 
ATOM     16  C   UNL d   1     -48.273  15.578  22.554  0.00  0.00     0.000 A 
ENDROOT
BRANCH   7  17
ATOM     17  O   UNL d   1     -48.517  12.788  23.081  0.00  0.00    -0.302 OA
BRANCH  17  18
ATOM     18  C   UNL d   1     -48.214  12.052  22.856  0.00  0.00     0.163 C 
ATOM     19  C   UNL d   1     -48.563  11.638  22.223  0.00  0.00     0.032 C 
BRANCH  18  20
ATOM     20  C   UNL d   1     -47.569  11.732  23.257  0.00  0.00     0.323 C 
ATOM     21  O   UNL d   1     -47.656  11.044  23.690  0.00  0.00    -0.257 OA
BRANCH  20  22
ATOM     22  O   UNL d   1     -46.840  12.116  23.213  0.00  0.00    -0.270 OA
BRANCH  22  23
ATOM     23  C   UNL d   1     -46.137  11.668  23.250  0.00  0.00     0.126 C 
ATOM     24  C   UNL d   1     -45.432  12.001  23.024  0.00  0.00     0.029 C 
ENDBRANCH  22  23
ENDBRANCH  20  22
ENDBRANCH  18  20
ENDBRANCH  17  18
ENDBRANCH   7  17
TORSDOF 5
ENDMDL
MODEL 2
REMARK VINA RESULT:      -7.8      1.225      4.162
REMARK  5 active torsions:
REMARK  status: ('A' for Active; 'I' for Inactive)
REMARK    1  A    between atoms: O_8  and  C_7 
REMARK    2  A    between atoms: C_10  and  O_8 
REMARK    3  A    between atoms: C_9  and  C_10 
REMARK    4  A    between atoms: O_17  and  C_9 
REMARK    5  A    between atoms: C_21  and  O_17 
ROOT
ATOM      1  C   UNL d   1     -47.573  12.470  23.262  0.00  0.00     0.009 A 
ATOM      2  C   UNL d   1     -47.473  13.254  23.046  0.00  0.00     0.046 A 
ATOM      3  C   UNL d   1     -46.914  11.978  23.348  0.00  0.00     0.064 A 
ATOM      4  C   UNL d   1     -46.165  12.275  23.216  0.00  0.00     0.300 A 
ATOM      5  C   UNL d   1     -46.723  13.551  22.914  0.00  0.00     0.105 A 
ATOM      6  O   UNL d   1     -46.068  13.067  22.998  0.00  0.00    -0.273 OA
ATOM      7  C   UNL d   1     -48.137  13.739  22.963  0.00  0.00     0.102 A 
ATOM      8  C   UNL d   1     -46.629  14.350  22.695  0.00  0.00     0.025 A 
ATOM      9  C   UNL d   1     -48.033  14.533  22.743  0.00  0.00     0.025 A 
ATOM     10  O   UNL d   1     -45.494  11.779  23.302  0.00  0.00    -0.259 OA
ATOM     11  C   UNL d   1     -47.283  14.830  22.612  0.00  0.00     0.004 A 
ATOM     12  C   UNL d   1     -48.330  12.171  23.395  0.00  0.00     0.000 A 
ATOM     13  C   UNL d   1     -47.013  11.190  23.565  0.00  0.00     0.005 A 
ATOM     14  C   UNL d   1     -47.187  15.626  22.393  0.00  0.00     0.000 C 
ATOM     15  C   UNL d   1     -48.441  11.378  23.615  0.00  0.00     0.000 A 
ATOM     16  C   UNL d   1     -47.770  10.890  23.698  0.00  0.00     0.000 A 
ENDROOT
BRANCH   7  17
ATOM     17  O   UNL d   1     -48.887  13.442  23.094  0.00  0.00    -0.302 OA
BRANCH  17  18
ATOM     18  C   UNL d   1     -49.528  13.959  23.169  0.00  0.00     0.163 C 
ATOM     19  C   UNL d   1     -49.434  14.677  23.581  0.00  0.00     0.032 C 
BRANCH  18  20
ATOM     20  C   UNL d   1     -50.256  13.762  22.837  0.00  0.00     0.323 C 
ATOM     21  O   UNL d   1     -50.828  13.396  23.291  0.00  0.00    -0.257 OA
BRANCH  20  22
ATOM     22  O   UNL d   1     -50.395  13.941  22.043  0.00  0.00    -0.270 OA
BRANCH  22  23
ATOM     23  C   UNL d   1     -50.980  13.519  21.624  0.00  0.00     0.126 C 
ATOM     24  C   UNL d   1     -51.064  13.630  20.824  0.00  0.00     0.029 C 
ENDBRANCH  22  23
ENDBRANCH  20  22
ENDBRANCH  18  20
ENDBRANCH  17  18
ENDBRANCH   7  17
TORSDOF 5
ENDMDL
MODEL 3
REMARK VINA RESULT:      -7.5      1.095      1.569
REMARK  5 active torsions:
REMARK  status: ('A' for Active; 'I' for Inactive)
REMARK    1  A    between atoms: O_8  and  C_7 
REMARK    2  A    between atoms: C_10  and  O_8 
REMARK    3  A    between atoms: C_9  and  C_10 
REMARK    4  A    between atoms: O_17  and  C_9 
REMARK    5  A    between atoms: C_21  and  O_17 
ROOT
ATOM      1  C   UNL d   1     -48.954  14.254  22.965  0.00  0.00     0.009 A 
ATOM      2  C   UNL d   1     -48.940  13.455  23.148  0.00  0.00     0.046 A 
ATOM      3  C   UNL d   1     -49.654  14.685  23.051  0.00  0.00     0.064 A 
ATOM      4  C   UNL d   1     -50.331  14.314  23.319  0.00  0.00     0.300 A 
ATOM      5  C   UNL d   1     -49.617  13.084  23.416  0.00  0.00     0.105 A 
ATOM      6  O   UNL d   1     -50.313  13.508  23.503  0.00  0.00    -0.273 OA
ATOM      7  C   UNL d   1     -48.236  13.032  23.059  0.00  0.00     0.102 A 
ATOM      8  C   UNL d   1     -49.595  12.271  23.601  0.00  0.00     0.025 A 
ATOM      9  C   UNL d   1     -48.225  12.222  23.246  0.00  0.00     0.025 A 
ATOM     10  O   UNL d   1     -51.042  14.748  23.407  0.00  0.00    -0.259 OA
ATOM     11  C   UNL d   1     -48.901  11.851  23.514  0.00  0.00     0.004 A 
ATOM     12  C   UNL d   1     -48.270  14.629  22.695  0.00  0.00     0.000 A 
ATOM     13  C   UNL d   1     -49.670  15.488  22.867  0.00  0.00     0.005 A 
ATOM     14  C   UNL d   1     -48.882  11.041  23.698  0.00  0.00     0.000 C 
ATOM     15  C   UNL d   1     -48.276  15.437  22.507  0.00  0.00     0.000 A 
ATOM     16  C   UNL d   1     -48.987  15.863  22.597  0.00  0.00     0.000 A 
ENDROOT
BRANCH   7  17
ATOM     17  O   UNL d   1     -47.559  13.404  22.792  0.00  0.00    -0.302 OA
BRANCH  17  18
ATOM     18  C   UNL d   1     -46.821  13.046  22.900  0.00  0.00     0.163 C 
ATOM     19  C   UNL d   1     -46.615  12.744  23.649  0.00  0.00     0.032 C 
BRANCH  18  20
ATOM     20  C   UNL d   1     -46.295  12.989  22.269  0.00  0.00     0.323 C 
ATOM     21  O   UNL d   1     -46.572  12.830  21.517  0.00  0.00    -0.257 OA
BRANCH  20  22
ATOM     22  O   UNL d   1     -45.488  13.095  22.410  0.00  0.00    -0.270 OA
BRANCH  22  23
ATOM     23  C   UNL d   1     -44.950  13.034  21.777  0.00  0.00     0.126 C 
ATOM     24  C   UNL d   1     -44.152  13.000  21.925  0.00  0.00     0.029 C 
ENDBRANCH  22  23
ENDBRANCH  20  22
ENDBRANCH  18  20
ENDBRANCH  17  18
ENDBRANCH   7  17
TORSDOF 5
ENDMDL
MODEL 4
REMARK VINA RESULT:      -7.5      1.259      3.758
REMARK  5 active torsions:
REMARK  status: ('A' for Active; 'I' for Inactive)
REMARK    1  A    between atoms: O_8  and  C_7 
REMARK    2  A    between atoms: C_10  and  O_8 
REMARK    3  A    between atoms: C_9  and  C_10 
REMARK    4  A    between atoms: O_17  and  C_9 
REMARK    5  A    between atoms: C_21  and  O_17 
ROOT
ATOM      1  C   UNL d   1     -46.826  12.902  22.989  0.00  0.00     0.009 A 
ATOM      2  C   UNL d   1     -47.506  12.482  23.167  0.00  0.00     0.046 A 
ATOM      3  C   UNL d   1     -46.085  12.553  23.098  0.00  0.00     0.064 A 
ATOM      4  C   UNL d   1     -46.033  11.788  23.381  0.00  0.00     0.300 A 
ATOM      5  C   UNL d   1     -47.454  11.717  23.450  0.00  0.00     0.105 A 
ATOM      6  O   UNL d   1     -46.722  11.367  23.559  0.00  0.00    -0.273 OA
ATOM      7  C   UNL d   1     -48.243  12.839  23.055  0.00  0.00     0.102 A 
ATOM      8  C   UNL d   1     -48.151  11.296  23.629  0.00  0.00     0.025 A 
ATOM      9  C   UNL d   1     -48.932  12.411  23.236  0.00  0.00     0.025 A 
ATOM     10  O   UNL d   1     -45.283  11.430  23.492  0.00  0.00    -0.259 OA
ATOM     11  C   UNL d   1     -48.880  11.646  23.520  0.00  0.00     0.004 A 
ATOM     12  C   UNL d   1     -46.878  13.674  22.703  0.00  0.00     0.000 A 
ATOM     13  C   UNL d   1     -45.399  12.973  22.920  0.00  0.00     0.005 A 
ATOM     14  C   UNL d   1     -49.573  11.225  23.698  0.00  0.00     0.000 C 
ATOM     15  C   UNL d   1     -46.194  14.107  22.521  0.00  0.00     0.000 A 
ATOM     16  C   UNL d   1     -45.452  13.745  22.633  0.00  0.00     0.000 A 
ENDROOT
BRANCH   7  17
ATOM     17  O   UNL d   1     -48.295  13.604  22.772  0.00  0.00    -0.302 OA
BRANCH  17  18
ATOM     18  C   UNL d   1     -48.994  14.035  22.872  0.00  0.00     0.163 C 
ATOM     19  C   UNL d   1     -49.333  14.101  23.630  0.00  0.00     0.032 C 
BRANCH  18  20
ATOM     20  C   UNL d   1     -49.351  14.396  22.223  0.00  0.00     0.323 C 
ATOM     21  O   UNL d   1     -49.198  15.181  22.056  0.00  0.00    -0.257 OA
BRANCH  20  22
ATOM     22  O   UNL d   1     -49.864  13.953  21.751  0.00  0.00    -0.270 OA
BRANCH  22  23
ATOM     23  C   UNL d   1     -50.587  14.288  21.505  0.00  0.00     0.126 C 
ATOM     24  C   UNL d   1     -51.064  13.884  20.987  0.00  0.00     0.029 C 
ENDBRANCH  22  23
ENDBRANCH  20  22
ENDBRANCH  18  20
ENDBRANCH  17  18
ENDBRANCH   7  17
TORSDOF 5
ENDMDL
MODEL 5
REMARK VINA RESULT:      -7.4      0.933      2.606
REMARK  5 active torsions:
REMARK  status: ('A' for Active; 'I' for Inactive)
REMARK    1  A    between atoms: O_8  and  C_7 
REMARK    2  A    between atoms: C_10  and  O_8 
REMARK    3  A    between atoms: C_9  and  C_10 
REMARK    4  A    between atoms: O_17  and  C_9 
REMARK    5  A    between atoms: C_21  and  O_17 
ROOT
ATOM      1  C   UNL d   1     -49.114  12.820  23.296  0.00  0.00     0.009 A 
ATOM      2  C   UNL d   1     -48.615  13.438  23.096  0.00  0.00     0.046 A 
ATOM      3  C   UNL d   1     -49.930  12.944  23.334  0.00  0.00     0.064 A 
ATOM      4  C   UNL d   1     -50.237  13.684  23.173  0.00  0.00     0.300 A 
ATOM      5  C   UNL d   1     -48.922  14.178  22.935  0.00  0.00     0.105 A 
ATOM      6  O   UNL d   1     -49.730  14.306  22.972  0.00  0.00    -0.273 OA
ATOM      7  C   UNL d   1     -47.800  13.305  23.060  0.00  0.00     0.102 A 
ATOM      8  C   UNL d   1     -48.407  14.802  22.733  0.00  0.00     0.025 A 
ATOM      9  C   UNL d   1     -47.296  13.933  22.858  0.00  0.00     0.025 A 
ATOM     10  O   UNL d   1     -51.064  13.814  23.211  0.00  0.00    -0.259 OA
ATOM     11  C   UNL d   1     -47.603  14.673  22.697  0.00  0.00     0.004 A 
ATOM     12  C   UNL d   1     -48.804  12.073  23.458  0.00  0.00     0.000 A 
ATOM     13  C   UNL d   1     -50.433  12.324  23.534  0.00  0.00     0.005 A 
ATOM     14  C   UNL d   1     -47.092  15.296  22.495  0.00  0.00     0.000 C 
ATOM     15  C   UNL d   1     -49.302  11.440  23.661  0.00  0.00     0.000 A 
ATOM     16  C   UNL d   1     -50.123  11.577  23.697  0.00  0.00     0.000 A 
ENDROOT
BRANCH   7  17
ATOM     17  O   UNL d   1     -47.493  12.565  23.221  0.00  0.00    -0.302 OA
BRANCH  17  18
ATOM     18  C   UNL d   1     -46.778  12.330  22.877  0.00  0.00     0.163 C 
ATOM     19  C   UNL d   1     -46.690  12.359  22.049  0.00  0.00     0.032 C 
BRANCH  18  20
ATOM     20  C   UNL d   1     -46.157  12.071  23.353  0.00  0.00     0.323 C 
ATOM     21  O   UNL d   1     -45.581  12.596  23.597  0.00  0.00    -0.257 OA
BRANCH  20  22
ATOM     22  O   UNL d   1     -46.130  11.276  23.576  0.00  0.00    -0.270 OA
BRANCH  22  23
ATOM     23  C   UNL d   1     -45.391  10.910  23.698  0.00  0.00     0.126 C 
ATOM     24  C   UNL d   1     -45.320  10.105  23.618  0.00  0.00     0.029 C 
ENDBRANCH  22  23
ENDBRANCH  20  22
ENDBRANCH  18  20
ENDBRANCH  17  18
ENDBRANCH   7  17
TORSDOF 5
ENDMDL
MODEL 6
REMARK VINA RESULT:      -6.1      9.210     10.658
REMARK  5 active torsions:
REMARK  status: ('A' for Active; 'I' for Inactive)
REMARK    1  A    between atoms: O_8  and  C_7 
REMARK    2  A    between atoms: C_10  and  O_8 
REMARK    3  A    between atoms: C_9  and  C_10 
REMARK    4  A    between atoms: O_17  and  C_9 
REMARK    5  A    between atoms: C_21  and  O_17 
ROOT
ATOM      1  C   UNL d   1     -39.665  14.739  19.771  0.00  0.00     0.009 A 
ATOM      2  C   UNL d   1     -39.998  14.931  19.048  0.00  0.00     0.046 A 
ATOM      3  C   UNL d   1     -39.977  15.058  20.467  0.00  0.00     0.064 A 
ATOM      4  C   UNL d   1     -40.617  15.565  20.431  0.00  0.00     0.300 A 
ATOM      5  C   UNL d   1     -40.638  15.438  19.012  0.00  0.00     0.105 A 
ATOM      6  O   UNL d   1     -40.950  15.757  19.699  0.00  0.00    -0.273 OA
ATOM      7  C   UNL d   1     -39.680  14.607  18.357  0.00  0.00     0.102 A 
ATOM      8  C   UNL d   1     -40.971  15.629  18.272  0.00  0.00     0.025 A 
ATOM      9  C   UNL d   1     -40.019  14.804  17.624  0.00  0.00     0.025 A 
ATOM     10  O   UNL d   1     -40.936  15.891  21.134  0.00  0.00    -0.259 OA
ATOM     11  C   UNL d   1     -40.659  15.311  17.589  0.00  0.00     0.004 A 
ATOM     12  C   UNL d   1     -39.019  14.227  19.807  0.00  0.00     0.000 A 
ATOM     13  C   UNL d   1     -39.644  14.866  21.195  0.00  0.00     0.005 A 
ATOM     14  C   UNL d   1     -40.992  15.502  16.852  0.00  0.00     0.000 C 
ATOM     15  C   UNL d   1     -38.676  14.027  20.536  0.00  0.00     0.000 A 
ATOM     16  C   UNL d   1     -38.998  14.354  21.231  0.00  0.00     0.000 A 
ENDROOT
BRANCH   7  17
ATOM     17  O   UNL d   1     -39.040  14.100  18.393  0.00  0.00    -0.302 OA
BRANCH  17  18
ATOM     18  C   UNL d   1     -38.523  14.041  17.749  0.00  0.00     0.163 C 
ATOM     19  C   UNL d   1     -38.151  14.726  17.455  0.00  0.00     0.032 C 
BRANCH  18  20
ATOM     20  C   UNL d   1     -38.379  13.308  17.403  0.00  0.00     0.323 C 
ATOM     21  O   UNL d   1     -38.402  13.226  16.591  0.00  0.00    -0.257 OA
BRANCH  20  22
ATOM     22  O   UNL d   1     -38.211  12.662  17.890  0.00  0.00    -0.270 OA
BRANCH  22  23
ATOM     23  C   UNL d   1     -37.960  11.944  17.548  0.00  0.00     0.126 C 
ATOM     24  C   UNL d   1     -37.942  11.267  17.995  0.00  0.00     0.029 C 
ENDBRANCH  22  23
ENDBRANCH  20  22
ENDBRANCH  18  20
ENDBRANCH  17  18
ENDBRANCH   7  17
TORSDOF 5
ENDMDL
