MODEL 1
REMARK VINA RESULT:      45.7      0.000      0.000
REMARK  2 active torsions:
REMARK  status: ('A' for Active; 'I' for Inactive)
REMARK       I    between atoms: C_3  and  N_1 
REMARK       I    between atoms: C_4  and  N_2 
REMARK    1  A    between atoms: C_6  and  C_3 
REMARK    2  A    between atoms: C_8  and  C_4 
ROOT
ATOM      1  N   UNL d   1      14.192  13.149  -2.178  0.00  0.00    -0.270 N 
ATOM      2  N   UNL d   1      14.877  14.320  -1.229  0.00  0.00    -0.269 N 
ATOM      3  C   UNL d   1      13.852  12.567  -2.649  0.00  0.00     0.265 C 
ATOM      4  C   UNL d   1      15.220  14.901  -0.753  0.00  0.00     0.265 C 
ATOM      5  C   UNL d   1      14.517  12.951  -1.441  0.00  0.00     0.085 A 
ATOM      6  C   UNL d   1      14.860  13.526  -0.964  0.00  0.00     0.101 A 
ATOM      7  C   UNL d   1      14.212  13.934  -2.434  0.00  0.00     0.102 A 
ATOM      8  C   UNL d   1      14.558  14.524  -1.955  0.00  0.00     0.102 A 
ATOM      9  O   UNL d   1      13.832  11.780  -2.391  0.00  0.00    -0.267 OA
ATOM     10  O   UNL d   1      15.545  14.697  -0.015  0.00  0.00    -0.267 OA
ATOM     11  C   UNL d   1      14.499  12.159  -1.179  0.00  0.00     0.021 C 
ENDROOT
BRANCH   3  12
ATOM     12  C   UNL d   1      13.529  12.766  -3.380  0.00  0.00     0.057 A 
ATOM     13  C   UNL d   1      13.339  12.173  -3.923  0.00  0.00     0.005 A 
ATOM     14  C   UNL d   1      13.015  12.372  -4.656  0.00  0.00     0.000 A 
ATOM     15  C   UNL d   1      12.825  11.779  -5.198  0.00  0.00     0.000 C 
ATOM     16  C   UNL d   1      12.883  13.163  -4.845  0.00  0.00     0.000 A 
ATOM     17  C   UNL d   1      13.075  13.762  -4.297  0.00  0.00     0.000 A 
ATOM     18  C   UNL d   1      13.396  13.557  -3.571  0.00  0.00     0.005 A 
ENDBRANCH   3  12
BRANCH   4  19
ATOM     19  C   UNL d   1      15.239  15.683  -1.011  0.00  0.00     0.057 A 
ATOM     20  C   UNL d   1      15.045  15.858  -1.794  0.00  0.00     0.005 A 
ATOM     21  C   UNL d   1      15.064  16.641  -2.053  0.00  0.00     0.000 A 
ATOM     22  C   UNL d   1      14.871  16.823  -2.835  0.00  0.00     0.000 C 
ATOM     23  C   UNL d   1      15.277  17.249  -1.527  0.00  0.00     0.000 A 
ATOM     24  C   UNL d   1      15.468  17.072  -0.752  0.00  0.00     0.000 A 
ATOM     25  C   UNL d   1      15.451  16.283  -0.487  0.00  0.00     0.005 A 
ENDBRANCH   4  19
TORSDOF 2
ENDMDL
MODEL 2
REMARK VINA RESULT:      46.2      0.246      4.194
REMARK  2 active torsions:
REMARK  status: ('A' for Active; 'I' for Inactive)
REMARK       I    between atoms: C_3  and  N_1 
REMARK       I    between atoms: C_4  and  N_2 
REMARK    1  A    between atoms: C_6  and  C_3 
REMARK    2  A    between atoms: C_8  and  C_4 
ROOT
ATOM      1  N   UNL d   1      14.798  14.380  -1.209  0.00  0.00    -0.270 N 
ATOM      2  N   UNL d   1      14.127  13.173  -2.123  0.00  0.00    -0.269 N 
ATOM      3  C   UNL d   1      15.131  14.979  -0.755  0.00  0.00     0.265 C 
ATOM      4  C   UNL d   1      13.793  12.568  -2.576  0.00  0.00     0.265 C 
ATOM      5  C   UNL d   1      14.803  13.597  -0.934  0.00  0.00     0.085 A 
ATOM      6  C   UNL d   1      14.472  12.992  -1.382  0.00  0.00     0.101 A 
ATOM      7  C   UNL d   1      14.456  14.552  -1.941  0.00  0.00     0.102 A 
ATOM      8  C   UNL d   1      14.118  13.943  -2.402  0.00  0.00     0.102 A 
ATOM      9  O   UNL d   1      15.473  14.804  -0.020  0.00  0.00    -0.267 OA
ATOM     10  O   UNL d   1      13.801  11.785  -2.296  0.00  0.00    -0.267 OA
ATOM     11  C   UNL d   1      15.146  13.419  -0.196  0.00  0.00     0.021 C 
ENDROOT
BRANCH   3  12
ATOM     12  C   UNL d   1      15.125  15.755  -1.029  0.00  0.00     0.057 A 
ATOM     13  C   UNL d   1      15.092  15.906  -1.840  0.00  0.00     0.005 A 
ATOM     14  C   UNL d   1      15.086  16.684  -2.116  0.00  0.00     0.000 A 
ATOM     15  C   UNL d   1      15.053  16.835  -2.927  0.00  0.00     0.000 C 
ATOM     16  C   UNL d   1      15.113  17.309  -1.580  0.00  0.00     0.000 A 
ATOM     17  C   UNL d   1      15.146  17.156  -0.760  0.00  0.00     0.000 A 
ATOM     18  C   UNL d   1      15.152  16.381  -0.494  0.00  0.00     0.005 A 
ENDBRANCH   3  12
BRANCH   4  19
ATOM     19  C   UNL d   1      13.453  12.743  -3.306  0.00  0.00     0.057 A 
ATOM     20  C   UNL d   1      13.451  12.171  -3.902  0.00  0.00     0.005 A 
ATOM     21  C   UNL d   1      13.111  12.346  -4.632  0.00  0.00     0.000 A 
ATOM     22  C   UNL d   1      13.105  11.779  -5.232  0.00  0.00     0.000 C 
ATOM     23  C   UNL d   1      12.773  13.094  -4.766  0.00  0.00     0.000 A 
ATOM     24  C   UNL d   1      12.777  13.658  -4.174  0.00  0.00     0.000 A 
ATOM     25  C   UNL d   1      13.119  13.485  -3.435  0.00  0.00     0.005 A 
ENDBRANCH   4  19
TORSDOF 2
ENDMDL
