MODEL 1
REMARK VINA RESULT:      17.1      0.000      0.000
REMARK  0 active torsions:
REMARK  status: ('A' for Active; 'I' for Inactive)
ROOT
ATOM      1  N   UNL d   1      13.394  12.417  -3.560  0.00  0.00    -0.300 N 
ATOM      2  C   UNL d   1      13.492  13.825  -3.741  0.00  0.00     0.295 A 
ATOM      3  N   UNL d   1      13.874  13.880  -3.003  0.00  0.00    -0.205 NA
ATOM      4  C   UNL d   1      13.249  13.089  -4.022  0.00  0.00     0.123 A 
ATOM      5  C   UNL d   1      13.765  12.470  -2.842  0.00  0.00     0.082 A 
ATOM      6  C   UNL d   1      14.008  13.198  -2.559  0.00  0.00     0.101 A 
ATOM      7  O   UNL d   1      13.350  14.480  -4.194  0.00  0.00    -0.264 OA
ATOM      8  C   UNL d   1      13.101  11.779  -3.966  0.00  0.00     0.080 A 
ATOM      9  C   UNL d   1      12.864  12.849  -4.716  0.00  0.00     0.024 A 
ATOM     10  C   UNL d   1      13.898  11.779  -2.397  0.00  0.00     0.019 A 
ATOM     11  C   UNL d   1      14.390  13.253  -1.821  0.00  0.00     0.021 A 
ATOM     12  C   UNL d   1      12.774  12.015  -4.672  0.00  0.00     0.021 A 
ATOM     13  C   UNL d   1      14.281  11.834  -1.659  0.00  0.00     0.002 A 
ATOM     14  C   UNL d   1      14.517  12.564  -1.387  0.00  0.00     0.002 A 
ENDROOT
TORSDOF 0
ENDMDL
MODEL 2
REMARK VINA RESULT:      18.2      1.415      2.840
REMARK  0 active torsions:
REMARK  status: ('A' for Active; 'I' for Inactive)
ROOT
ATOM      1  N   UNL d   1      14.269  12.416  -1.277  0.00  0.00    -0.300 N 
ATOM      2  C   UNL d   1      14.827  13.718  -1.412  0.00  0.00     0.295 A 
ATOM      3  N   UNL d   1      14.560  13.737  -2.201  0.00  0.00    -0.205 NA
ATOM      4  C   UNL d   1      14.682  13.054  -0.946  0.00  0.00     0.123 A 
ATOM      5  C   UNL d   1      14.009  12.434  -2.044  0.00  0.00     0.082 A 
ATOM      6  C   UNL d   1      14.151  13.090  -2.510  0.00  0.00     0.101 A 
ATOM      7  O   UNL d   1      15.230  14.340  -1.087  0.00  0.00    -0.264 OA
ATOM      8  C   UNL d   1      14.206  11.848  -0.703  0.00  0.00     0.080 A 
ATOM      9  C   UNL d   1      14.867  12.863  -0.161  0.00  0.00     0.024 A 
ATOM     10  C   UNL d   1      13.597  11.779  -2.353  0.00  0.00     0.019 A 
ATOM     11  C   UNL d   1      13.884  13.109  -3.299  0.00  0.00     0.021 A 
ATOM     12  C   UNL d   1      14.562  12.094  -0.014  0.00  0.00     0.021 A 
ATOM     13  C   UNL d   1      13.330  11.798  -3.142  0.00  0.00     0.002 A 
ATOM     14  C   UNL d   1      13.478  12.458  -3.596  0.00  0.00     0.002 A 
ENDROOT
TORSDOF 0
ENDMDL
