MODEL 1
REMARK VINA RESULT:      31.3      0.000      0.000
REMARK  6 active torsions:
REMARK  status: ('A' for Active; 'I' for Inactive)
REMARK    1  A    between atoms: C_6  and  C_1 
REMARK    2  A    between atoms: C_8  and  C_6 
REMARK    3  A    between atoms: O_14  and  C_10 
REMARK    4  A    between atoms: C_12  and  C_20 
REMARK    5  A    between atoms: O_21  and  C_12 
REMARK    6  A    between atoms: C_20  and  O_14 
ROOT
ATOM      1  C   UNL d   1      14.701  13.719  -0.747  0.00  0.00     0.141 A 
ATOM      2  C   UNL d   1      14.142  13.314  -1.897  0.00  0.00     0.105 A 
ATOM      3  O   UNL d   1      14.280  13.981  -1.410  0.00  0.00    -0.304 OA
ATOM      4  C   UNL d   1      14.473  12.656  -1.537  0.00  0.00     0.064 A 
ATOM      5  C   UNL d   1      14.826  12.895  -0.818  0.00  0.00     0.220 A 
ATOM      6  C   UNL d   1      13.752  13.238  -2.624  0.00  0.00     0.046 A 
ATOM      7  C   UNL d   1      14.419  11.913  -1.902  0.00  0.00     0.007 A 
ATOM      8  C   UNL d   1      13.700  12.501  -2.981  0.00  0.00     0.102 A 
ATOM      9  O   UNL d   1      15.222  12.412  -0.280  0.00  0.00    -0.284 OA
ATOM     10  C   UNL d   1      14.032  11.842  -2.622  0.00  0.00     0.025 A 
ATOM     11  C   UNL d   1      13.418  13.900  -2.986  0.00  0.00     0.004 C 
ENDROOT
BRANCH   1  12
ATOM     12  C   UNL d   1      14.958  14.192  -0.116  0.00  0.00     0.053 C 
BRANCH  12  13
ATOM     13  C   UNL d   1      15.278  14.931  -0.262  0.00  0.00     0.102 A 
ATOM     14  O   UNL d   1      14.877  15.646  -0.218  0.00  0.00    -0.305 OA
ATOM     15  C   UNL d   1      15.407  16.250  -0.407  0.00  0.00     0.123 A 
ATOM     16  C   UNL d   1      16.142  15.901  -0.568  0.00  0.00     0.029 A 
ATOM     17  C   UNL d   1      16.058  15.093  -0.478  0.00  0.00     0.027 A 
ENDBRANCH  12  13
ENDBRANCH   1  12
BRANCH   8  18
ATOM     18  O   UNL d   1      13.314  12.422  -3.703  0.00  0.00    -0.300 OA
BRANCH  18  19
ATOM     19  C   UNL d   1      13.476  11.780  -4.198  0.00  0.00     0.191 C 
BRANCH  19  20
ATOM     20  C   UNL d   1      13.492  11.879  -5.022  0.00  0.00     0.321 C 
ATOM     21  O   UNL d   1      14.203  11.799  -5.433  0.00  0.00    -0.257 OA
BRANCH  20  22
ATOM     22  O   UNL d   1      12.807  12.056  -5.428  0.00  0.00    -0.294 OA
ATOM     23  C   UNL d   1      12.800  12.075  -6.248  0.00  0.00     0.185 C 
ENDBRANCH  20  22
ENDBRANCH  19  20
ENDBRANCH  18  19
ENDBRANCH   8  18
TORSDOF 6
ENDMDL
MODEL 2
REMARK VINA RESULT:      33.2      1.126      4.401
REMARK  6 active torsions:
REMARK  status: ('A' for Active; 'I' for Inactive)
REMARK    1  A    between atoms: C_6  and  C_1 
REMARK    2  A    between atoms: C_8  and  C_6 
REMARK    3  A    between atoms: O_14  and  C_10 
REMARK    4  A    between atoms: C_12  and  C_20 
REMARK    5  A    between atoms: O_21  and  C_12 
REMARK    6  A    between atoms: C_20  and  O_14 
ROOT
ATOM      1  C   UNL d   1      14.115  12.439  -1.693  0.00  0.00     0.141 A 
ATOM      2  C   UNL d   1      14.497  13.686  -1.383  0.00  0.00     0.105 A 
ATOM      3  O   UNL d   1      14.175  13.209  -1.990  0.00  0.00    -0.304 OA
ATOM      4  C   UNL d   1      14.631  13.215  -0.725  0.00  0.00     0.064 A 
ATOM      5  C   UNL d   1      14.396  12.433  -0.906  0.00  0.00     0.220 A 
ATOM      6  C   UNL d   1      14.681  14.494  -1.359  0.00  0.00     0.046 A 
ATOM      7  C   UNL d   1      14.951  13.547  -0.036  0.00  0.00     0.007 A 
ATOM      8  C   UNL d   1      14.997  14.818  -0.675  0.00  0.00     0.102 A 
ATOM      9  O   UNL d   1      14.435  11.780  -0.405  0.00  0.00    -0.284 OA
ATOM     10  C   UNL d   1      15.131  14.347  -0.017  0.00  0.00     0.025 A 
ATOM     11  C   UNL d   1      14.546  14.968  -2.021  0.00  0.00     0.004 C 
ENDROOT
BRANCH   1  12
ATOM     12  C   UNL d   1      13.824  11.780  -2.105  0.00  0.00     0.053 C 
BRANCH  12  13
ATOM     13  C   UNL d   1      13.565  11.861  -2.877  0.00  0.00     0.102 A 
ATOM     14  O   UNL d   1      14.036  12.034  -3.527  0.00  0.00    -0.305 OA
ATOM     15  C   UNL d   1      13.551  12.064  -4.194  0.00  0.00     0.123 A 
ATOM     16  C   UNL d   1      12.774  11.907  -3.950  0.00  0.00     0.029 A 
ATOM     17  C   UNL d   1      12.788  11.784  -3.143  0.00  0.00     0.027 A 
ENDBRANCH  12  13
ENDBRANCH   1  12
BRANCH   8  18
ATOM     18  O   UNL d   1      15.180  15.620  -0.648  0.00  0.00    -0.300 OA
BRANCH  18  19
ATOM     19  C   UNL d   1      15.315  16.043  -1.345  0.00  0.00     0.191 C 
BRANCH  19  20
ATOM     20  C   UNL d   1      15.448  16.862  -1.320  0.00  0.00     0.321 C 
ATOM     21  O   UNL d   1      15.944  17.181  -0.743  0.00  0.00    -0.257 OA
BRANCH  20  22
ATOM     22  O   UNL d   1      15.090  17.354  -1.863  0.00  0.00    -0.294 OA
ATOM     23  C   UNL d   1      15.206  17.242  -2.667  0.00  0.00     0.185 C 
ENDBRANCH  20  22
ENDBRANCH  19  20
ENDBRANCH  18  19
ENDBRANCH   8  18
TORSDOF 6
ENDMDL
