MODEL 1
REMARK VINA RESULT:     -10.0      0.000      0.000
REMARK  7 active torsions:
REMARK  status: ('A' for Active; 'I' for Inactive)
REMARK    1  A    between atoms: N_6  and  S_1 
REMARK    2  A    between atoms: C_9  and  S_1 
REMARK    3  A    between atoms: N_2  and  C_11 
REMARK    4  A    between atoms: C_14  and  C_3 
REMARK    5  A    between atoms: C_7  and  C_15 
REMARK       I    between atoms: N_10  and  C_7 
REMARK    6  A    between atoms: C_25  and  N_10 
REMARK    7  A    between atoms: O_33  and  C_26 
ROOT
ATOM      1  C   UNL d   1      53.417  34.295  54.245  0.00  0.00     0.085 A 
ATOM      2  C   UNL d   1      53.365  34.553  53.467  0.00  0.00     0.021 A 
ATOM      3  C   UNL d   1      52.747  34.269  54.725  0.00  0.00     0.021 A 
ATOM      4  C   UNL d   1      51.959  34.768  53.635  0.00  0.00     0.085 A 
ATOM      5  C   UNL d   1      52.633  34.792  53.156  0.00  0.00     0.021 A 
ATOM      6  C   UNL d   1      52.018  34.503  54.429  0.00  0.00     0.021 A 
ENDROOT
BRANCH   4   7
ATOM      7  N   UNL d   1      51.221  35.006  53.330  0.00  0.00    -0.208 NA
ATOM      8  C   UNL d   1      50.691  34.438  53.063  0.00  0.00     0.279 C 
ATOM      9  O   UNL d   1      50.882  33.640  53.094  0.00  0.00    -0.265 OA
BRANCH   8  10
ATOM     10  C   UNL d   1      49.946  34.673  52.754  0.00  0.00     0.058 A 
ATOM     11  C   UNL d   1      49.449  35.124  53.214  0.00  0.00     0.005 A 
ATOM     12  C   UNL d   1      48.723  35.354  52.915  0.00  0.00     0.013 A 
ATOM     13  C   UNL d   1      48.495  35.137  52.167  0.00  0.00     0.104 A 
ATOM     14  C   UNL d   1      48.996  34.682  51.703  0.00  0.00     0.013 A 
ATOM     15  C   UNL d   1      49.726  34.451  52.004  0.00  0.00     0.005 A 
BRANCH  13  16
ATOM     16  S   UNL d   1      47.754  35.375  51.870  0.00  0.00     0.271 S 
ATOM     17  O   UNL d   1      47.967  35.098  51.130  0.00  0.00    -0.200 OA
ATOM     18  O   UNL d   1      47.552  35.648  52.615  0.00  0.00    -0.200 OA
BRANCH  16  19
ATOM     19  N   UNL d   1      47.015  35.616  51.589  0.00  0.00    -0.229 N 
ATOM     20  C   UNL d   1      46.623  36.261  51.908  0.00  0.00     0.092 A 
ATOM     21  C   UNL d   1      45.877  36.494  51.615  0.00  0.00     0.020 A 
ATOM     22  C   UNL d   1      45.532  36.076  51.003  0.00  0.00     0.003 A 
ATOM     23  C   UNL d   1      45.917  35.424  50.672  0.00  0.00     0.020 A 
ATOM     24  C   UNL d   1      46.662  35.192  50.966  0.00  0.00     0.092 A 
ENDBRANCH  16  19
ENDBRANCH  13  16
ENDBRANCH   8  10
ENDBRANCH   4   7
BRANCH   1  25
ATOM     25  N   UNL d   1      54.150  34.056  54.555  0.00  0.00    -0.211 N 
ATOM     26  C   UNL d   1      54.482  33.293  54.510  0.00  0.00     0.105 A 
ATOM     27  C   UNL d   1      55.213  33.313  54.894  0.00  0.00     0.143 A 
ATOM     28  N   UNL d   1      55.342  34.083  55.180  0.00  0.00    -0.127 NA
ATOM     29  N   UNL d   1      54.684  34.542  54.971  0.00  0.00    -0.060 NA
BRANCH  26  30
ATOM     30  C   UNL d   1      54.143  32.643  54.149  0.00  0.00     0.019 A 
ATOM     31  C   UNL d   1      53.691  32.115  54.594  0.00  0.00     0.004 A 
ATOM     32  C   UNL d   1      53.348  31.459  54.230  0.00  0.00     0.024 A 
ATOM     33  C   UNL d   1      53.454  31.327  53.430  0.00  0.00     0.094 A 
ATOM     34  C   UNL d   1      53.910  31.860  52.980  0.00  0.00     0.024 A 
ATOM     35  C   UNL d   1      54.254  32.517  53.340  0.00  0.00     0.004 A 
BRANCH  33  36
ATOM     36  O   UNL d   1      53.116  30.677  53.061  0.00  0.00    -0.328 OA
ATOM     37  C   UNL d   1      52.990  29.977  53.471  0.00  0.00     0.181 C 
ENDBRANCH  33  36
ENDBRANCH  26  30
ENDBRANCH   1  25
TORSDOF 7
ENDMDL
MODEL 2
REMARK VINA RESULT:      -8.7      1.865      7.462
REMARK  7 active torsions:
REMARK  status: ('A' for Active; 'I' for Inactive)
REMARK    1  A    between atoms: N_6  and  S_1 
REMARK    2  A    between atoms: C_9  and  S_1 
REMARK    3  A    between atoms: N_2  and  C_11 
REMARK    4  A    between atoms: C_14  and  C_3 
REMARK    5  A    between atoms: C_7  and  C_15 
REMARK       I    between atoms: N_10  and  C_7 
REMARK    6  A    between atoms: C_25  and  N_10 
REMARK    7  A    between atoms: O_33  and  C_26 
ROOT
ATOM      1  C   UNL d   1      46.819  35.858  51.869  0.00  0.00     0.085 A 
ATOM      2  C   UNL d   1      47.031  35.066  51.818  0.00  0.00     0.021 A 
ATOM      3  C   UNL d   1      47.333  36.410  52.203  0.00  0.00     0.021 A 
ATOM      4  C   UNL d   1      48.286  35.364  52.440  0.00  0.00     0.085 A 
ATOM      5  C   UNL d   1      47.768  34.813  52.104  0.00  0.00     0.021 A 
ATOM      6  C   UNL d   1      48.065  36.172  52.489  0.00  0.00     0.021 A 
ENDROOT
BRANCH   4   7
ATOM      7  N   UNL d   1      49.027  35.118  52.729  0.00  0.00    -0.208 NA
ATOM      8  C   UNL d   1      49.515  34.658  52.254  0.00  0.00     0.279 C 
ATOM      9  O   UNL d   1      49.278  34.440  51.499  0.00  0.00    -0.265 OA
BRANCH   8  10
ATOM     10  C   UNL d   1      50.263  34.407  52.541  0.00  0.00     0.058 A 
ATOM     11  C   UNL d   1      50.314  34.072  53.280  0.00  0.00     0.005 A 
ATOM     12  C   UNL d   1      51.043  33.827  53.561  0.00  0.00     0.013 A 
ATOM     13  C   UNL d   1      51.712  33.915  53.111  0.00  0.00     0.104 A 
ATOM     14  C   UNL d   1      51.661  34.254  52.365  0.00  0.00     0.013 A 
ATOM     15  C   UNL d   1      50.928  34.500  52.083  0.00  0.00     0.005 A 
BRANCH  13  16
ATOM     16  S   UNL d   1      52.450  33.663  53.405  0.00  0.00     0.271 S 
ATOM     17  O   UNL d   1      52.217  32.884  53.307  0.00  0.00    -0.200 OA
ATOM     18  O   UNL d   1      52.671  34.445  53.497  0.00  0.00    -0.200 OA
BRANCH  16  19
ATOM     19  N   UNL d   1      53.186  33.427  53.697  0.00  0.00    -0.229 N 
ATOM     20  C   UNL d   1      53.644  32.869  53.312  0.00  0.00     0.092 A 
ATOM     21  C   UNL d   1      54.385  32.640  53.618  0.00  0.00     0.020 A 
ATOM     22  C   UNL d   1      54.660  32.975  54.311  0.00  0.00     0.003 A 
ATOM     23  C   UNL d   1      54.208  33.540  54.711  0.00  0.00     0.020 A 
ATOM     24  C   UNL d   1      53.467  33.768  54.403  0.00  0.00     0.092 A 
ENDBRANCH  16  19
ENDBRANCH  13  16
ENDBRANCH   8  10
ENDBRANCH   4   7
BRANCH   1  25
ATOM     25  N   UNL d   1      46.081  36.111  51.582  0.00  0.00    -0.211 N 
ATOM     26  C   UNL d   1      45.383  36.203  52.027  0.00  0.00     0.105 A 
ATOM     27  C   UNL d   1      44.790  36.464  51.514  0.00  0.00     0.143 A 
ATOM     28  N   UNL d   1      45.112  36.537  50.751  0.00  0.00    -0.127 NA
ATOM     29  N   UNL d   1      45.911  36.318  50.793  0.00  0.00    -0.060 NA
BRANCH  26  30
ATOM     30  C   UNL d   1      45.301  36.059  52.827  0.00  0.00     0.019 A 
ATOM     31  C   UNL d   1      45.070  35.311  53.089  0.00  0.00     0.004 A 
ATOM     32  C   UNL d   1      44.988  35.166  53.897  0.00  0.00     0.024 A 
ATOM     33  C   UNL d   1      45.133  35.758  54.440  0.00  0.00     0.094 A 
ATOM     34  C   UNL d   1      45.366  36.514  54.177  0.00  0.00     0.024 A 
ATOM     35  C   UNL d   1      45.450  36.663  53.370  0.00  0.00     0.004 A 
BRANCH  33  36
ATOM     36  O   UNL d   1      45.053  35.622  55.246  0.00  0.00    -0.328 OA
ATOM     37  C   UNL d   1      44.318  35.464  55.576  0.00  0.00     0.181 C 
ENDBRANCH  33  36
ENDBRANCH  26  30
ENDBRANCH   1  25
TORSDOF 7
ENDMDL
MODEL 3
REMARK VINA RESULT:      -7.8      1.633      2.409
REMARK  7 active torsions:
REMARK  status: ('A' for Active; 'I' for Inactive)
REMARK    1  A    between atoms: N_6  and  S_1 
REMARK    2  A    between atoms: C_9  and  S_1 
REMARK    3  A    between atoms: N_2  and  C_11 
REMARK    4  A    between atoms: C_14  and  C_3 
REMARK    5  A    between atoms: C_7  and  C_15 
REMARK       I    between atoms: N_10  and  C_7 
REMARK    6  A    between atoms: C_25  and  N_10 
REMARK    7  A    between atoms: O_33  and  C_26 
ROOT
ATOM      1  C   UNL d   1      52.231  32.955  52.991  0.00  0.00     0.085 A 
ATOM      2  C   UNL d   1      52.138  33.535  52.417  0.00  0.00     0.021 A 
ATOM      3  C   UNL d   1      51.579  32.665  53.406  0.00  0.00     0.021 A 
ATOM      4  C   UNL d   1      50.726  33.546  52.660  0.00  0.00     0.085 A 
ATOM      5  C   UNL d   1      51.382  33.835  52.247  0.00  0.00     0.021 A 
ATOM      6  C   UNL d   1      50.827  32.954  53.246  0.00  0.00     0.021 A 
ENDROOT
BRANCH   4   7
ATOM      7  N   UNL d   1      49.965  33.842  52.495  0.00  0.00    -0.208 NA
ATOM      8  C   UNL d   1      49.795  34.631  52.648  0.00  0.00     0.279 C 
ATOM      9  O   UNL d   1      50.368  35.128  52.962  0.00  0.00    -0.265 OA
BRANCH   8  10
ATOM     10  C   UNL d   1      49.030  34.934  52.484  0.00  0.00     0.058 A 
ATOM     11  C   UNL d   1      48.699  35.475  52.991  0.00  0.00     0.005 A 
ATOM     12  C   UNL d   1      47.953  35.772  52.832  0.00  0.00     0.013 A 
ATOM     13  C   UNL d   1      47.543  35.532  52.176  0.00  0.00     0.104 A 
ATOM     14  C   UNL d   1      47.876  34.985  51.663  0.00  0.00     0.013 A 
ATOM     15  C   UNL d   1      48.626  34.687  51.823  0.00  0.00     0.005 A 
BRANCH  13  16
ATOM     16  S   UNL d   1      46.783  35.839  52.021  0.00  0.00     0.271 S 
ATOM     17  O   UNL d   1      46.982  36.522  52.426  0.00  0.00    -0.200 OA
ATOM     18  O   UNL d   1      46.596  35.151  51.619  0.00  0.00    -0.200 OA
BRANCH  16  19
ATOM     19  N   UNL d   1      46.027  36.130  51.860  0.00  0.00    -0.229 N 
ATOM     20  C   UNL d   1      45.541  36.415  52.454  0.00  0.00     0.092 A 
ATOM     21  C   UNL d   1      44.779  36.707  52.278  0.00  0.00     0.020 A 
ATOM     22  C   UNL d   1      44.512  36.709  51.505  0.00  0.00     0.003 A 
ATOM     23  C   UNL d   1      44.994  36.424  50.896  0.00  0.00     0.020 A 
ATOM     24  C   UNL d   1      45.755  36.133  51.073  0.00  0.00     0.092 A 
ENDBRANCH  16  19
ENDBRANCH  13  16
ENDBRANCH   8  10
ENDBRANCH   4   7
BRANCH   1  25
ATOM     25  N   UNL d   1      52.987  32.655  53.161  0.00  0.00    -0.211 N 
ATOM     26  C   UNL d   1      53.563  33.011  53.646  0.00  0.00     0.105 A 
ATOM     27  C   UNL d   1      54.225  32.517  53.654  0.00  0.00     0.143 A 
ATOM     28  N   UNL d   1      54.068  31.854  53.178  0.00  0.00    -0.127 NA
ATOM     29  N   UNL d   1      53.302  31.940  52.873  0.00  0.00    -0.060 NA
BRANCH  26  30
ATOM     30  C   UNL d   1      53.485  33.722  54.042  0.00  0.00     0.019 A 
ATOM     31  C   UNL d   1      53.213  33.730  54.821  0.00  0.00     0.004 A 
ATOM     32  C   UNL d   1      53.134  34.448  55.221  0.00  0.00     0.024 A 
ATOM     33  C   UNL d   1      53.323  35.151  54.850  0.00  0.00     0.094 A 
ATOM     34  C   UNL d   1      53.598  35.143  54.063  0.00  0.00     0.024 A 
ATOM     35  C   UNL d   1      53.678  34.428  53.660  0.00  0.00     0.004 A 
BRANCH  33  36
ATOM     36  O   UNL d   1      53.247  35.869  55.241  0.00  0.00    -0.328 OA
ATOM     37  C   UNL d   1      52.746  36.453  54.957  0.00  0.00     0.181 C 
ENDBRANCH  33  36
ENDBRANCH  26  30
ENDBRANCH   1  25
TORSDOF 7
ENDMDL
