MODEL 1
REMARK VINA RESULT:      -6.8      0.000      0.000
REMARK  6 active torsions:
REMARK  status: ('A' for Active; 'I' for Inactive)
REMARK    1  A    between atoms: C_10  and  N_1 
REMARK    2  A    between atoms: S_8  and  C_6 
REMARK    3  A    between atoms: C_13  and  S_8 
REMARK    4  A    between atoms: C_11  and  C_13 
REMARK    5  A    between atoms: O_18  and  C_11 
REMARK    6  A    between atoms: C_23  and  O_18 
ROOT
ATOM      1  N   UNL d   1     -48.650  13.509  23.035  0.00  0.00    -0.193 N 
ATOM      2  N   UNL d   1     -48.838  12.717  23.099  0.00  0.00    -0.058 NA
ATOM      3  C   UNL d   1     -47.831  13.571  23.024  0.00  0.00     0.188 A 
ATOM      4  C   UNL d   1     -47.524  12.807  23.081  0.00  0.00     0.164 A 
ATOM      5  N   UNL d   1     -48.159  12.287  23.126  0.00  0.00    -0.125 NA
ATOM      6  C   UNL d   1     -46.719  12.685  23.083  0.00  0.00     0.135 A 
ATOM      7  N   UNL d   1     -47.333  14.212  22.969  0.00  0.00    -0.203 NA
ATOM      8  N   UNL d   1     -46.207  13.332  23.028  0.00  0.00    -0.216 NA
ATOM      9  C   UNL d   1     -46.514  14.096  22.971  0.00  0.00     0.201 A 
ENDROOT
BRANCH   6  10
ATOM     10  S   UNL d   1     -46.412  11.921  23.140  0.00  0.00    -0.061 SA
BRANCH  10  11
ATOM     11  C   UNL d   1     -45.621  11.783  23.004  0.00  0.00     0.094 C 
ATOM     12  C   UNL d   1     -45.199  12.301  22.529  0.00  0.00     0.013 C 
BRANCH  11  13
ATOM     13  C   UNL d   1     -45.255  11.127  23.344  0.00  0.00     0.306 C 
ATOM     14  O   UNL d   1     -45.699  10.535  23.697  0.00  0.00    -0.258 OA
BRANCH  13  15
ATOM     15  O   UNL d   1     -44.429  11.071  23.326  0.00  0.00    -0.271 OA
BRANCH  15  16
ATOM     16  C   UNL d   1     -44.059  10.379  23.580  0.00  0.00     0.126 C 
ATOM     17  C   UNL d   1     -43.232  10.336  23.600  0.00  0.00     0.029 C 
ENDBRANCH  15  16
ENDBRANCH  13  15
ENDBRANCH  11  13
ENDBRANCH  10  11
ENDBRANCH   6  10
BRANCH   1  18
ATOM     18  C   UNL d   1     -49.208  14.102  22.994  0.00  0.00     0.086 A 
ATOM     19  C   UNL d   1     -49.544  14.303  22.266  0.00  0.00     0.022 A 
ATOM     20  C   UNL d   1     -50.109  14.903  22.220  0.00  0.00     0.031 A 
ATOM     21  C   UNL d   1     -50.342  15.302  22.893  0.00  0.00     0.140 A 
ATOM     22  C   UNL d   1     -50.007  15.101  23.621  0.00  0.00     0.031 A 
ATOM     23  F   UNL d   1     -50.926  15.914  22.810  0.00  0.00    -0.204 F 
ATOM     24  C   UNL d   1     -49.443  14.507  23.677  0.00  0.00     0.022 A 
ENDBRANCH   1  18
TORSDOF 6
ENDMDL
MODEL 2
REMARK VINA RESULT:      -5.7      2.922      5.177
REMARK  6 active torsions:
REMARK  status: ('A' for Active; 'I' for Inactive)
REMARK    1  A    between atoms: C_10  and  N_1 
REMARK    2  A    between atoms: S_8  and  C_6 
REMARK    3  A    between atoms: C_13  and  S_8 
REMARK    4  A    between atoms: C_11  and  C_13 
REMARK    5  A    between atoms: O_18  and  C_11 
REMARK    6  A    between atoms: C_23  and  O_18 
ROOT
ATOM      1  N   UNL d   1     -46.480  13.174  22.668  0.00  0.00    -0.193 N 
ATOM      2  N   UNL d   1     -46.654  13.659  23.302  0.00  0.00    -0.058 NA
ATOM      3  C   UNL d   1     -47.184  13.011  22.278  0.00  0.00     0.188 A 
ATOM      4  C   UNL d   1     -47.788  13.402  22.682  0.00  0.00     0.164 A 
ATOM      5  N   UNL d   1     -47.446  13.800  23.314  0.00  0.00    -0.125 NA
ATOM      6  C   UNL d   1     -48.559  13.347  22.426  0.00  0.00     0.135 A 
ATOM      7  N   UNL d   1     -47.352  12.565  21.618  0.00  0.00    -0.203 NA
ATOM      8  N   UNL d   1     -48.736  12.895  21.756  0.00  0.00    -0.216 NA
ATOM      9  C   UNL d   1     -48.133  12.504  21.352  0.00  0.00     0.201 A 
ENDROOT
BRANCH   6  10
ATOM     10  S   UNL d   1     -49.163  13.739  22.830  0.00  0.00    -0.061 SA
BRANCH  10  11
ATOM     11  C   UNL d   1     -49.940  13.526  22.716  0.00  0.00     0.094 C 
ATOM     12  C   UNL d   1     -50.144  12.731  22.711  0.00  0.00     0.013 C 
BRANCH  11  13
ATOM     13  C   UNL d   1     -50.513  14.109  22.608  0.00  0.00     0.306 C 
ATOM     14  O   UNL d   1     -50.873  14.214  21.879  0.00  0.00    -0.258 OA
BRANCH  13  15
ATOM     15  O   UNL d   1     -50.724  14.592  23.246  0.00  0.00    -0.271 OA
BRANCH  15  16
ATOM     16  C   UNL d   1     -51.043  15.340  23.108  0.00  0.00     0.126 C 
ATOM     17  C   UNL d   1     -51.006  15.921  23.697  0.00  0.00     0.029 C 
ENDBRANCH  15  16
ENDBRANCH  13  15
ENDBRANCH  11  13
ENDBRANCH  10  11
ENDBRANCH   6  10
BRANCH   1  18
ATOM     18  C   UNL d   1     -45.727  12.920  22.490  0.00  0.00     0.086 A 
ATOM     19  C   UNL d   1     -45.243  13.375  21.998  0.00  0.00     0.022 A 
ATOM     20  C   UNL d   1     -44.479  13.121  21.816  0.00  0.00     0.031 A 
ATOM     21  C   UNL d   1     -44.194  12.419  22.119  0.00  0.00     0.140 A 
ATOM     22  C   UNL d   1     -44.677  11.963  22.611  0.00  0.00     0.031 A 
ATOM     23  F   UNL d   1     -43.403  12.187  21.911  0.00  0.00    -0.204 F 
ATOM     24  C   UNL d   1     -45.439  12.207  22.798  0.00  0.00     0.022 A 
ENDBRANCH   1  18
TORSDOF 6
ENDMDL
MODEL 3
REMARK VINA RESULT:      -5.5      8.357     10.230
REMARK  6 active torsions:
REMARK  status: ('A' for Active; 'I' for Inactive)
REMARK    1  A    between atoms: C_10  and  N_1 
REMARK    2  A    between atoms: S_8  and  C_6 
REMARK    3  A    between atoms: C_13  and  S_8 
REMARK    4  A    between atoms: C_11  and  C_13 
REMARK    5  A    between atoms: O_18  and  C_11 
REMARK    6  A    between atoms: C_23  and  O_18 
ROOT
ATOM      1  N   UNL d   1     -38.654  14.536  17.623  0.00  0.00    -0.193 N 
ATOM      2  N   UNL d   1     -38.132  14.953  18.094  0.00  0.00    -0.058 NA
ATOM      3  C   UNL d   1     -39.338  14.411  18.059  0.00  0.00     0.188 A 
ATOM      4  C   UNL d   1     -39.227  14.757  18.800  0.00  0.00     0.164 A 
ATOM      5  N   UNL d   1     -38.476  15.089  18.808  0.00  0.00    -0.125 NA
ATOM      6  C   UNL d   1     -39.814  14.725  19.363  0.00  0.00     0.135 A 
ATOM      7  N   UNL d   1     -40.037  14.033  17.882  0.00  0.00    -0.203 NA
ATOM      8  N   UNL d   1     -40.527  14.342  19.189  0.00  0.00    -0.216 NA
ATOM      9  C   UNL d   1     -40.638  13.996  18.448  0.00  0.00     0.201 A 
ENDROOT
BRANCH   6  10
ATOM     10  S   UNL d   1     -39.703  15.070  20.104  0.00  0.00    -0.061 SA
BRANCH  10  11
ATOM     11  C   UNL d   1     -40.116  14.800  20.751  0.00  0.00     0.094 C 
ATOM     12  C   UNL d   1     -40.878  14.512  20.652  0.00  0.00     0.013 C 
BRANCH  11  13
ATOM     13  C   UNL d   1     -39.765  14.817  21.497  0.00  0.00     0.306 C 
ATOM     14  O   UNL d   1     -39.704  15.519  21.917  0.00  0.00    -0.258 OA
BRANCH  13  15
ATOM     15  O   UNL d   1     -39.472  14.114  21.823  0.00  0.00    -0.271 OA
BRANCH  15  16
ATOM     16  C   UNL d   1     -39.046  14.135  22.529  0.00  0.00     0.126 C 
ATOM     17  C   UNL d   1     -38.736  13.435  22.845  0.00  0.00     0.029 C 
ENDBRANCH  15  16
ENDBRANCH  13  15
ENDBRANCH  11  13
ENDBRANCH  10  11
ENDBRANCH   6  10
BRANCH   1  18
ATOM     18  C   UNL d   1     -38.484  14.304  16.860  0.00  0.00     0.086 A 
ATOM     19  C   UNL d   1     -38.124  13.574  16.721  0.00  0.00     0.022 A 
ATOM     20  C   UNL d   1     -37.950  13.335  15.950  0.00  0.00     0.031 A 
ATOM     21  C   UNL d   1     -38.132  13.820  15.318  0.00  0.00     0.140 A 
ATOM     22  C   UNL d   1     -38.492  14.551  15.457  0.00  0.00     0.031 A 
ATOM     23  F   UNL d   1     -37.940  13.544  14.538  0.00  0.00    -0.204 F 
ATOM     24  C   UNL d   1     -38.669  14.796  16.220  0.00  0.00     0.022 A 
ENDBRANCH   1  18
TORSDOF 6
ENDMDL
MODEL 4
REMARK VINA RESULT:      -4.5      7.707      9.472
REMARK  6 active torsions:
REMARK  status: ('A' for Active; 'I' for Inactive)
REMARK    1  A    between atoms: C_10  and  N_1 
REMARK    2  A    between atoms: S_8  and  C_6 
REMARK    3  A    between atoms: C_13  and  S_8 
REMARK    4  A    between atoms: C_11  and  C_13 
REMARK    5  A    between atoms: O_18  and  C_11 
REMARK    6  A    between atoms: C_23  and  O_18 
ROOT
ATOM      1  N   UNL d   1     -39.920  14.626  17.495  0.00  0.00    -0.193 N 
ATOM      2  N   UNL d   1     -40.696  14.371  17.462  0.00  0.00    -0.058 NA
ATOM      3  C   UNL d   1     -39.745  14.790  18.280  0.00  0.00     0.188 A 
ATOM      4  C   UNL d   1     -40.422  14.632  18.724  0.00  0.00     0.164 A 
ATOM      5  N   UNL d   1     -41.004  14.373  18.206  0.00  0.00    -0.125 NA
ATOM      6  C   UNL d   1     -40.421  14.741  19.531  0.00  0.00     0.135 A 
ATOM      7  N   UNL d   1     -39.067  15.058  18.643  0.00  0.00    -0.203 NA
ATOM      8  N   UNL d   1     -39.736  15.014  19.906  0.00  0.00    -0.216 NA
ATOM      9  C   UNL d   1     -39.059  15.172  19.462  0.00  0.00     0.201 A 
ENDROOT
BRANCH   6  10
ATOM     10  S   UNL d   1     -41.098  14.583  19.975  0.00  0.00    -0.061 SA
BRANCH  10  11
ATOM     11  C   UNL d   1     -41.062  14.563  20.788  0.00  0.00     0.094 C 
ATOM     12  C   UNL d   1     -40.742  15.200  21.194  0.00  0.00     0.013 C 
BRANCH  11  13
ATOM     13  C   UNL d   1     -41.347  13.903  21.195  0.00  0.00     0.306 C 
ATOM     14  O   UNL d   1     -40.856  13.471  21.689  0.00  0.00    -0.258 OA
BRANCH  13  15
ATOM     15  O   UNL d   1     -42.138  13.680  21.098  0.00  0.00    -0.271 OA
BRANCH  15  16
ATOM     16  C   UNL d   1     -42.419  12.995  21.462  0.00  0.00     0.126 C 
ATOM     17  C   UNL d   1     -43.215  12.781  21.382  0.00  0.00     0.029 C 
ENDBRANCH  15  16
ENDBRANCH  13  15
ENDBRANCH  11  13
ENDBRANCH  10  11
ENDBRANCH   6  10
BRANCH   1  18
ATOM     18  C   UNL d   1     -39.441  14.692  16.839  0.00  0.00     0.086 A 
ATOM     19  C   UNL d   1     -39.014  14.037  16.572  0.00  0.00     0.022 A 
ATOM     20  C   UNL d   1     -38.527  14.099  15.909  0.00  0.00     0.031 A 
ATOM     21  C   UNL d   1     -38.464  14.808  15.509  0.00  0.00     0.140 A 
ATOM     22  C   UNL d   1     -38.891  15.464  15.775  0.00  0.00     0.031 A 
ATOM     23  F   UNL d   1     -37.954  14.838  14.830  0.00  0.00    -0.204 F 
ATOM     24  C   UNL d   1     -39.378  15.412  16.434  0.00  0.00     0.022 A 
ENDBRANCH   1  18
TORSDOF 6
ENDMDL
MODEL 5
REMARK VINA RESULT:      -4.1      1.890      2.438
REMARK  6 active torsions:
REMARK  status: ('A' for Active; 'I' for Inactive)
REMARK    1  A    between atoms: C_10  and  N_1 
REMARK    2  A    between atoms: S_8  and  C_6 
REMARK    3  A    between atoms: C_13  and  S_8 
REMARK    4  A    between atoms: C_11  and  C_13 
REMARK    5  A    between atoms: O_18  and  C_11 
REMARK    6  A    between atoms: C_23  and  O_18 
ROOT
ATOM      1  N   UNL d   1     -47.859  12.951  22.453  0.00  0.00    -0.193 N 
ATOM      2  N   UNL d   1     -47.599  13.487  21.894  0.00  0.00    -0.058 NA
ATOM      3  C   UNL d   1     -47.196  12.609  22.797  0.00  0.00     0.188 A 
ATOM      4  C   UNL d   1     -46.531  12.944  22.441  0.00  0.00     0.164 A 
ATOM      5  N   UNL d   1     -46.795  13.486  21.884  0.00  0.00    -0.125 NA
ATOM      6  C   UNL d   1     -45.783  12.715  22.667  0.00  0.00     0.135 A 
ATOM      7  N   UNL d   1     -47.113  12.046  23.379  0.00  0.00    -0.203 NA
ATOM      8  N   UNL d   1     -45.691  12.143  23.258  0.00  0.00    -0.216 NA
ATOM      9  C   UNL d   1     -46.356  11.809  23.614  0.00  0.00     0.201 A 
ENDROOT
BRANCH   6  10
ATOM     10  S   UNL d   1     -45.118  13.050  22.311  0.00  0.00    -0.061 SA
BRANCH  10  11
ATOM     11  C   UNL d   1     -44.443  12.609  22.203  0.00  0.00     0.094 C 
ATOM     12  C   UNL d   1     -44.278  11.991  22.717  0.00  0.00     0.013 C 
BRANCH  11  13
ATOM     13  C   UNL d   1     -43.933  12.786  21.580  0.00  0.00     0.306 C 
ATOM     14  O   UNL d   1     -43.924  12.327  20.900  0.00  0.00    -0.258 OA
BRANCH  13  15
ATOM     15  O   UNL d   1     -43.425  13.437  21.645  0.00  0.00    -0.271 OA
BRANCH  15  16
ATOM     16  C   UNL d   1     -42.637  13.368  21.413  0.00  0.00     0.126 C 
ATOM     17  C   UNL d   1     -42.341  13.851  20.808  0.00  0.00     0.029 C 
ENDBRANCH  15  16
ENDBRANCH  13  15
ENDBRANCH  11  13
ENDBRANCH  10  11
ENDBRANCH   6  10
BRANCH   1  18
ATOM     18  C   UNL d   1     -48.646  12.811  22.610  0.00  0.00     0.086 A 
ATOM     19  C   UNL d   1     -49.041  12.194  22.225  0.00  0.00     0.022 A 
ATOM     20  C   UNL d   1     -49.838  12.049  22.381  0.00  0.00     0.031 A 
ATOM     21  C   UNL d   1     -50.244  12.513  22.916  0.00  0.00     0.140 A 
ATOM     22  C   UNL d   1     -49.851  13.129  23.300  0.00  0.00     0.031 A 
ATOM     23  F   UNL d   1     -51.064  12.336  23.053  0.00  0.00    -0.204 F 
ATOM     24  C   UNL d   1     -49.058  13.282  23.152  0.00  0.00     0.022 A 
ENDBRANCH   1  18
TORSDOF 6
ENDMDL
