MODEL 1
REMARK VINA RESULT:      -8.4      0.000      0.000
REMARK  4 active torsions:
REMARK  status: ('A' for Active; 'I' for Inactive)
REMARK    1  A    between atoms: N_7  and  C_1 
REMARK    2  A    between atoms: N_8  and  C_4 
REMARK    3  A    between atoms: N_11  and  C_5 
REMARK    4  A    between atoms: C_13  and  N_8 
ROOT
ATOM      1  C   UNL d   1      53.294  34.155  54.183  0.00  0.00     0.201 A 
ATOM      2  N   UNL d   1      52.686  33.338  53.154  0.00  0.00    -0.038 NA
ATOM      3  N   UNL d   1      53.948  32.984  53.726  0.00  0.00    -0.036 NA
ATOM      4  C   UNL d   1      53.344  32.824  53.201  0.00  0.00     0.753 A 
ATOM      5  C   UNL d   1      52.674  33.998  53.649  0.00  0.00     0.206 A 
ATOM      6  C   UNL d   1      53.927  33.649  54.219  0.00  0.00     0.227 A 
ATOM      7  N   UNL d   1      54.549  33.799  54.748  0.00  0.00    -0.125 N 
ENDROOT
BRANCH   4   8
ATOM      8  N   UNL d   1      53.355  32.164  52.705  0.00  0.00    -0.059 NA
BRANCH   8   9
ATOM      9  C   UNL d   1      53.267  31.412  53.040  0.00  0.00     0.100 A 
ATOM     10  C   UNL d   1      52.530  31.030  53.042  0.00  0.00     0.020 A 
ATOM     11  C   UNL d   1      52.432  30.291  53.368  0.00  0.00     0.008 A 
ATOM     12  C   UNL d   1      53.074  29.899  53.709  0.00  0.00     0.035 A 
ATOM     13  C   UNL d   1      53.813  30.263  53.716  0.00  0.00     0.008 A 
ATOM     14 BR   UNL d   1      52.985  29.142  54.046  0.00  0.00    -0.049 Br
ATOM     15  C   UNL d   1      53.901  31.015  53.382  0.00  0.00     0.020 A 
ENDBRANCH   8   9
ENDBRANCH   4   8
BRANCH   5  16
ATOM     16  N   UNL d   1      52.013  34.531  53.614  0.00  0.00    -0.222 NA
ATOM     17  C   UNL d   1      51.422  34.407  53.040  0.00  0.00     0.121 C 
ENDBRANCH   5  16
BRANCH   1  18
ATOM     18  N   UNL d   1      53.254  34.843  54.680  0.00  0.00    -0.107 N 
ATOM     19  O   UNL d   1      53.452  35.571  54.360  0.00  0.00    -0.531 OA
ATOM     20  O   UNL d   1      53.026  34.770  55.450  0.00  0.00    -0.531 OA
ENDBRANCH   1  18
TORSDOF 4
ENDMDL
MODEL 2
REMARK VINA RESULT:      -7.6      2.375      3.789
REMARK  4 active torsions:
REMARK  status: ('A' for Active; 'I' for Inactive)
REMARK    1  A    between atoms: N_7  and  C_1 
REMARK    2  A    between atoms: N_8  and  C_4 
REMARK    3  A    between atoms: N_11  and  C_5 
REMARK    4  A    between atoms: C_13  and  N_8 
ROOT
ATOM      1  C   UNL d   1      53.369  31.647  53.631  0.00  0.00     0.201 A 
ATOM      2  N   UNL d   1      53.383  33.090  53.756  0.00  0.00    -0.038 NA
ATOM      3  N   UNL d   1      52.701  32.451  52.674  0.00  0.00    -0.036 NA
ATOM      4  C   UNL d   1      52.922  33.135  53.060  0.00  0.00     0.753 A 
ATOM      5  C   UNL d   1      53.599  32.341  54.030  0.00  0.00     0.206 A 
ATOM      6  C   UNL d   1      52.922  31.704  52.956  0.00  0.00     0.227 A 
ATOM      7  N   UNL d   1      52.690  31.017  52.553  0.00  0.00    -0.125 N 
ENDROOT
BRANCH   4   8
ATOM      8  N   UNL d   1      52.706  33.883  52.786  0.00  0.00    -0.059 NA
BRANCH   8   9
ATOM      9  C   UNL d   1      51.902  34.073  52.734  0.00  0.00     0.100 A 
ATOM     10  C   UNL d   1      51.511  34.073  52.002  0.00  0.00     0.020 A 
ATOM     11  C   UNL d   1      50.721  34.258  51.940  0.00  0.00     0.008 A 
ATOM     12  C   UNL d   1      50.285  34.451  52.613  0.00  0.00     0.035 A 
ATOM     13  C   UNL d   1      50.657  34.456  53.349  0.00  0.00     0.008 A 
ATOM     14 BR   UNL d   1      49.475  34.642  52.561  0.00  0.00    -0.049 Br
ATOM     15  C   UNL d   1      51.461  34.266  53.401  0.00  0.00     0.020 A 
ENDBRANCH   8   9
ENDBRANCH   4   8
BRANCH   5  16
ATOM     16  N   UNL d   1      54.067  32.277  54.736  0.00  0.00    -0.222 NA
ATOM     17  C   UNL d   1      54.338  32.973  55.108  0.00  0.00     0.121 C 
ENDBRANCH   5  16
BRANCH   1  18
ATOM     18  N   UNL d   1      53.607  30.891  53.936  0.00  0.00    -0.107 N 
ATOM     19  O   UNL d   1      54.264  30.526  53.611  0.00  0.00    -0.531 OA
ATOM     20  O   UNL d   1      53.188  30.549  54.534  0.00  0.00    -0.531 OA
ENDBRANCH   1  18
TORSDOF 4
ENDMDL
MODEL 3
REMARK VINA RESULT:      -7.3      1.946      3.298
REMARK  4 active torsions:
REMARK  status: ('A' for Active; 'I' for Inactive)
REMARK    1  A    between atoms: N_7  and  C_1 
REMARK    2  A    between atoms: N_8  and  C_4 
REMARK    3  A    between atoms: N_11  and  C_5 
REMARK    4  A    between atoms: C_13  and  N_8 
ROOT
ATOM      1  C   UNL d   1      53.904  33.060  54.377  0.00  0.00     0.201 A 
ATOM      2  N   UNL d   1      53.154  32.383  53.340  0.00  0.00    -0.038 NA
ATOM      3  N   UNL d   1      53.084  33.803  53.491  0.00  0.00    -0.036 NA
ATOM      4  C   UNL d   1      52.857  33.125  53.098  0.00  0.00     0.753 A 
ATOM      5  C   UNL d   1      53.676  32.365  53.980  0.00  0.00     0.206 A 
ATOM      6  C   UNL d   1      53.609  33.775  54.132  0.00  0.00     0.227 A 
ATOM      7  N   UNL d   1      53.831  34.472  54.522  0.00  0.00    -0.125 N 
ENDROOT
BRANCH   4   8
ATOM      8  N   UNL d   1      52.335  33.143  52.458  0.00  0.00    -0.059 NA
BRANCH   8   9
ATOM      9  C   UNL d   1      51.615  33.543  52.541  0.00  0.00     0.100 A 
ATOM     10  C   UNL d   1      51.459  34.234  52.108  0.00  0.00     0.020 A 
ATOM     11  C   UNL d   1      50.754  34.634  52.182  0.00  0.00     0.008 A 
ATOM     12  C   UNL d   1      50.171  34.358  52.697  0.00  0.00     0.035 A 
ATOM     13  C   UNL d   1      50.309  33.674  53.135  0.00  0.00     0.008 A 
ATOM     14 BR   UNL d   1      49.446  34.761  52.781  0.00  0.00    -0.049 Br
ATOM     15  C   UNL d   1      51.029  33.274  53.052  0.00  0.00     0.020 A 
ENDBRANCH   8   9
ENDBRANCH   4   8
BRANCH   5  16
ATOM     16  N   UNL d   1      53.988  31.618  54.240  0.00  0.00    -0.222 NA
ATOM     17  C   UNL d   1      53.765  30.923  53.837  0.00  0.00     0.121 C 
ENDBRANCH   5  16
BRANCH   1  18
ATOM     18  N   UNL d   1      54.443  33.010  55.032  0.00  0.00    -0.107 N 
ATOM     19  O   UNL d   1      55.219  33.249  54.920  0.00  0.00    -0.531 OA
ATOM     20  O   UNL d   1      54.186  32.733  55.744  0.00  0.00    -0.531 OA
ENDBRANCH   1  18
TORSDOF 4
ENDMDL
