MODEL 1
REMARK VINA RESULT:       2.2      0.000      0.000
REMARK  4 active torsions:
REMARK  status: ('A' for Active; 'I' for Inactive)
REMARK    1  A    between atoms: C_3  and  C_1 
REMARK    2  A    between atoms: N_5  and  C_3 
REMARK    3  A    between atoms: C_10  and  C_3 
REMARK    4  A    between atoms: C_7  and  N_5 
ROOT
ATOM      1  C   UNL d   1     -42.093-122.859 -50.254  0.00  0.00     0.086 C 
ENDROOT
BRANCH   1   2
ATOM      2  C   UNL d   1     -41.882-122.496 -50.982  0.00  0.00     0.058 A 
ATOM      3  C   UNL d   1     -41.750-122.996 -51.635  0.00  0.00     0.214 A 
ATOM      4  C   UNL d   1     -41.542-122.631 -52.345  0.00  0.00     0.120 A 
ATOM      5  O   UNL d   1     -41.823-123.815 -51.572  0.00  0.00    -0.285 OA
ATOM      6  N   UNL d   1     -41.406-123.133 -53.016  0.00  0.00    -0.241 NA
ATOM      7  C   UNL d   1     -41.469-121.812 -52.408  0.00  0.00     0.021 A 
ATOM      8  C   UNL d   1     -41.199-122.768 -53.727  0.00  0.00     0.099 A 
ATOM      9  C   UNL d   1     -41.125-121.949 -53.790  0.00  0.00     0.021 A 
ATOM     10  C   UNL d   1     -41.259-121.494 -53.142  0.00  0.00     0.003 A 
ATOM     11  C   UNL d   1     -41.603-121.357 -51.761  0.00  0.00     0.002 A 
ATOM     12  C   UNL d   1     -41.808-121.677 -51.045  0.00  0.00     0.005 A 
ENDBRANCH   1   2
BRANCH   1  13
ATOM     13  N   UNL d   1     -41.522-123.267 -49.809  0.00  0.00    -0.227 NA
BRANCH  13  14
ATOM     14  C   UNL d   1     -41.477-123.192 -49.007  0.00  0.00     0.162 A 
ATOM     15  N   UNL d   1     -41.741-123.807 -48.525  0.00  0.00    -0.225 NA
ATOM     16  C   UNL d   1     -41.703-123.748 -47.700  0.00  0.00     0.101 A 
ATOM     17  C   UNL d   1     -41.394-123.058 -47.379  0.00  0.00     0.021 A 
ATOM     18  C   UNL d   1     -41.130-122.443 -47.862  0.00  0.00     0.005 A 
ATOM     19  C   UNL d   1     -41.175-122.518 -48.664  0.00  0.00     0.039 A 
ENDBRANCH  13  14
ENDBRANCH   1  13
BRANCH   1  20
ATOM     20  C   UNL d   1     -42.852-122.820 -49.971  0.00  0.00     0.018 A 
ATOM     21  C   UNL d   1     -43.307-123.489 -49.939  0.00  0.00     0.002 A 
ATOM     22  C   UNL d   1     -44.079-123.449 -49.651  0.00  0.00     0.000 A 
ATOM     23  C   UNL d   1     -44.396-122.740 -49.395  0.00  0.00     0.000 A 
ATOM     24  C   UNL d   1     -43.925-122.063 -49.431  0.00  0.00     0.000 A 
ATOM     25  C   UNL d   1     -43.153-122.103 -49.719  0.00  0.00     0.002 A 
ENDBRANCH   1  20
TORSDOF 4
ENDMDL
MODEL 2
REMARK VINA RESULT:       2.6      1.245      4.181
REMARK  4 active torsions:
REMARK  status: ('A' for Active; 'I' for Inactive)
REMARK    1  A    between atoms: C_3  and  C_1 
REMARK    2  A    between atoms: N_5  and  C_3 
REMARK    3  A    between atoms: C_10  and  C_3 
REMARK    4  A    between atoms: C_7  and  N_5 
ROOT
ATOM      1  C   UNL d   1     -42.052-121.749 -51.775  0.00  0.00     0.086 C 
ENDROOT
BRANCH   1   2
ATOM      2  C   UNL d   1     -41.979-122.245 -51.099  0.00  0.00     0.058 A 
ATOM      3  C   UNL d   1     -42.656-122.351 -50.627  0.00  0.00     0.214 A 
ATOM      4  C   UNL d   1     -42.574-122.839 -49.966  0.00  0.00     0.120 A 
ATOM      5  O   UNL d   1     -43.373-121.987 -50.813  0.00  0.00    -0.285 OA
ATOM      6  N   UNL d   1     -43.260-122.953 -49.479  0.00  0.00    -0.241 NA
ATOM      7  C   UNL d   1     -41.858-123.203 -49.781  0.00  0.00     0.021 A 
ATOM      8  C   UNL d   1     -43.178-123.441 -48.818  0.00  0.00     0.099 A 
ATOM      9  C   UNL d   1     -42.461-123.805 -48.633  0.00  0.00     0.021 A 
ATOM     10  C   UNL d   1     -41.827-123.682 -49.108  0.00  0.00     0.003 A 
ATOM     11  C   UNL d   1     -41.223-123.080 -50.256  0.00  0.00     0.002 A 
ATOM     12  C   UNL d   1     -41.262-122.609 -50.913  0.00  0.00     0.005 A 
ENDBRANCH   1   2
BRANCH   1  13
ATOM     13  N   UNL d   1     -42.444-122.025 -52.454  0.00  0.00    -0.227 NA
BRANCH  13  14
ATOM     14  C   UNL d   1     -42.041-122.354 -53.071  0.00  0.00     0.162 A 
ATOM     15  N   UNL d   1     -41.544-122.998 -52.937  0.00  0.00    -0.225 NA
ATOM     16  C   UNL d   1     -41.123-123.348 -53.558  0.00  0.00     0.101 A 
ATOM     17  C   UNL d   1     -41.218-123.032 -54.310  0.00  0.00     0.021 A 
ATOM     18  C   UNL d   1     -41.715-122.388 -54.444  0.00  0.00     0.005 A 
ATOM     19  C   UNL d   1     -42.118-122.059 -53.826  0.00  0.00     0.039 A 
ENDBRANCH  13  14
ENDBRANCH   1  13
BRANCH   1  20
ATOM     20  C   UNL d   1     -41.746-120.998 -51.780  0.00  0.00     0.018 A 
ATOM     21  C   UNL d   1     -41.454-120.677 -51.098  0.00  0.00     0.002 A 
ATOM     22  C   UNL d   1     -41.142-119.913 -51.103  0.00  0.00     0.000 A 
ATOM     23  C   UNL d   1     -41.123-119.470 -51.790  0.00  0.00     0.000 A 
ATOM     24  C   UNL d   1     -41.424-119.807 -52.481  0.00  0.00     0.000 A 
ATOM     25  C   UNL d   1     -41.736-120.571 -52.476  0.00  0.00     0.002 A 
ENDBRANCH   1  20
TORSDOF 4
ENDMDL
MODEL 3
REMARK VINA RESULT:       5.2      1.254      2.336
REMARK  4 active torsions:
REMARK  status: ('A' for Active; 'I' for Inactive)
REMARK    1  A    between atoms: C_3  and  C_1 
REMARK    2  A    between atoms: N_5  and  C_3 
REMARK    3  A    between atoms: C_10  and  C_3 
REMARK    4  A    between atoms: C_7  and  N_5 
ROOT
ATOM      1  C   UNL d   1     -41.741-122.596 -51.673  0.00  0.00     0.086 C 
ENDROOT
BRANCH   1   2
ATOM      2  C   UNL d   1     -41.819-122.541 -52.509  0.00  0.00     0.058 A 
ATOM      3  C   UNL d   1     -41.500-123.161 -52.964  0.00  0.00     0.214 A 
ATOM      4  C   UNL d   1     -41.580-123.099 -53.783  0.00  0.00     0.120 A 
ATOM      5  O   UNL d   1     -41.123-123.805 -52.612  0.00  0.00    -0.285 OA
ATOM      6  N   UNL d   1     -41.258-123.727 -54.255  0.00  0.00    -0.241 NA
ATOM      7  C   UNL d   1     -41.957-122.455 -54.135  0.00  0.00     0.021 A 
ATOM      8  C   UNL d   1     -41.339-123.665 -55.074  0.00  0.00     0.099 A 
ATOM      9  C   UNL d   1     -41.716-123.021 -55.426  0.00  0.00     0.021 A 
ATOM     10  C   UNL d   1     -42.012-122.439 -54.960  0.00  0.00     0.003 A 
ATOM     11  C   UNL d   1     -42.254-121.874 -53.669  0.00  0.00     0.002 A 
ATOM     12  C   UNL d   1     -42.195-121.897 -52.862  0.00  0.00     0.005 A 
ENDBRANCH   1   2
BRANCH   1  13
ATOM     13  N   UNL d   1     -41.861-123.323 -51.289  0.00  0.00    -0.227 NA
BRANCH  13  14
ATOM     14  C   UNL d   1     -42.410-123.407 -50.704  0.00  0.00     0.162 A 
ATOM     15  N   UNL d   1     -42.184-123.721 -49.975  0.00  0.00    -0.225 NA
ATOM     16  C   UNL d   1     -42.733-123.815 -49.363  0.00  0.00     0.101 A 
ATOM     17  C   UNL d   1     -43.509-123.586 -49.506  0.00  0.00     0.021 A 
ATOM     18  C   UNL d   1     -43.735-123.272 -50.235  0.00  0.00     0.005 A 
ATOM     19  C   UNL d   1     -43.185-123.188 -50.821  0.00  0.00     0.039 A 
ENDBRANCH  13  14
ENDBRANCH   1  13
BRANCH   1  20
ATOM     20  C   UNL d   1     -41.550-121.946 -51.226  0.00  0.00     0.018 A 
ATOM     21  C   UNL d   1     -41.317-122.040 -50.457  0.00  0.00     0.002 A 
ATOM     22  C   UNL d   1     -41.123-121.379 -50.003  0.00  0.00     0.000 A 
ATOM     23  C   UNL d   1     -41.161-120.625 -50.317  0.00  0.00     0.000 A 
ATOM     24  C   UNL d   1     -41.401-120.540 -51.103  0.00  0.00     0.000 A 
ATOM     25  C   UNL d   1     -41.595-121.201 -51.557  0.00  0.00     0.002 A 
ENDBRANCH   1  20
TORSDOF 4
ENDMDL
