MODEL 1
REMARK VINA RESULT:      -6.3      0.000      0.000
REMARK  1 active torsions:
REMARK  status: ('A' for Active; 'I' for Inactive)
REMARK    1  A    between atoms: C_9  and  C_1 
ROOT
ATOM      1  C   UNL d   1     -41.647-122.743 -53.484  0.00  0.00     0.064 A 
ATOM      2  C   UNL d   1     -41.510-122.193 -52.875  0.00  0.00     0.199 A 
ATOM      3  C   UNL d   1     -41.414-122.471 -52.097  0.00  0.00     0.062 A 
ATOM      4  C   UNL d   1     -41.688-123.548 -53.319  0.00  0.00     0.126 A 
ATOM      5  C   UNL d   1     -41.454-123.275 -51.933  0.00  0.00     0.106 A 
ATOM      6  O   UNL d   1     -41.591-123.818 -52.543  0.00  0.00    -0.305 OA
ATOM      7  C   UNL d   1     -41.278-121.922 -51.496  0.00  0.00     0.009 A 
ATOM      8  C   UNL d   1     -41.359-123.547 -51.163  0.00  0.00     0.067 A 
ATOM      9  O   UNL d   1     -41.470-121.393 -53.039  0.00  0.00    -0.286 OA
ATOM     10  C   UNL d   1     -41.222-123.004 -50.553  0.00  0.00     0.198 A 
ATOM     11  C   UNL d   1     -41.182-122.200 -50.718  0.00  0.00     0.042 A 
ATOM     12  O   UNL d   1     -41.123-123.271 -49.757  0.00  0.00    -0.286 OA
ENDROOT
BRANCH   1  13
ATOM     13  C   UNL d   1     -41.743-122.465 -54.258  0.00  0.00     0.005 A 
ATOM     14  C   UNL d   1     -42.430-122.082 -54.483  0.00  0.00     0.000 A 
ATOM     15  C   UNL d   1     -42.523-121.803 -55.261  0.00  0.00     0.000 A 
ATOM     16  C   UNL d   1     -41.909-121.920 -55.799  0.00  0.00     0.000 A 
ATOM     17  C   UNL d   1     -41.222-122.303 -55.575  0.00  0.00     0.000 A 
ATOM     18  C   UNL d   1     -41.125-122.581 -54.804  0.00  0.00     0.000 A 
ENDBRANCH   1  13
TORSDOF 1
ENDMDL
MODEL 2
REMARK VINA RESULT:      -5.9      0.613      1.449
REMARK  1 active torsions:
REMARK  status: ('A' for Active; 'I' for Inactive)
REMARK    1  A    between atoms: C_9  and  C_1 
ROOT
ATOM      1  C   UNL d   1     -41.523-122.356 -52.888  0.00  0.00     0.064 A 
ATOM      2  C   UNL d   1     -41.587-123.078 -52.481  0.00  0.00     0.199 A 
ATOM      3  C   UNL d   1     -41.470-123.087 -51.658  0.00  0.00     0.062 A 
ATOM      4  C   UNL d   1     -41.347-121.662 -52.483  0.00  0.00     0.126 A 
ATOM      5  C   UNL d   1     -41.294-122.394 -51.253  0.00  0.00     0.106 A 
ATOM      6  O   UNL d   1     -41.231-121.678 -51.663  0.00  0.00    -0.305 OA
ATOM      7  C   UNL d   1     -41.534-123.806 -51.257  0.00  0.00     0.009 A 
ATOM      8  C   UNL d   1     -41.179-122.406 -50.439  0.00  0.00     0.067 A 
ATOM      9  O   UNL d   1     -41.762-123.768 -52.884  0.00  0.00    -0.286 OA
ATOM     10  C   UNL d   1     -41.241-123.122 -50.029  0.00  0.00     0.198 A 
ATOM     11  C   UNL d   1     -41.417-123.815 -50.434  0.00  0.00     0.042 A 
ATOM     12  O   UNL d   1     -41.125-123.148 -49.192  0.00  0.00    -0.286 OA
ENDROOT
BRANCH   1  13
ATOM     13  C   UNL d   1     -41.639-122.349 -53.707  0.00  0.00     0.005 A 
ATOM     14  C   UNL d   1     -41.123-122.740 -54.206  0.00  0.00     0.000 A 
ATOM     15  C   UNL d   1     -41.242-122.732 -55.030  0.00  0.00     0.000 A 
ATOM     16  C   UNL d   1     -41.891-122.321 -55.331  0.00  0.00     0.000 A 
ATOM     17  C   UNL d   1     -42.408-121.929 -54.832  0.00  0.00     0.000 A 
ATOM     18  C   UNL d   1     -42.293-121.935 -54.015  0.00  0.00     0.000 A 
ENDBRANCH   1  13
TORSDOF 1
ENDMDL
MODEL 3
REMARK VINA RESULT:      -5.5      1.029      3.937
REMARK  1 active torsions:
REMARK  status: ('A' for Active; 'I' for Inactive)
REMARK    1  A    between atoms: C_9  and  C_1 
ROOT
ATOM      1  C   UNL d   1     -41.604-122.430 -51.519  0.00  0.00     0.064 A 
ATOM      2  C   UNL d   1     -41.631-123.049 -52.073  0.00  0.00     0.199 A 
ATOM      3  C   UNL d   1     -41.503-122.875 -52.876  0.00  0.00     0.062 A 
ATOM      4  C   UNL d   1     -41.454-121.659 -51.761  0.00  0.00     0.126 A 
ATOM      5  C   UNL d   1     -41.353-122.104 -53.118  0.00  0.00     0.106 A 
ATOM      6  O   UNL d   1     -41.328-121.492 -52.561  0.00  0.00    -0.305 OA
ATOM      7  C   UNL d   1     -41.530-123.492 -53.424  0.00  0.00     0.009 A 
ATOM      8  C   UNL d   1     -41.227-121.935 -53.912  0.00  0.00     0.067 A 
ATOM      9  O   UNL d   1     -41.780-123.817 -51.833  0.00  0.00    -0.286 OA
ATOM     10  C   UNL d   1     -41.252-122.547 -54.469  0.00  0.00     0.198 A 
ATOM     11  C   UNL d   1     -41.402-123.318 -54.227  0.00  0.00     0.042 A 
ATOM     12  O   UNL d   1     -41.124-122.386 -55.288  0.00  0.00    -0.286 OA
ENDROOT
BRANCH   1  13
ATOM     13  C   UNL d   1     -41.732-122.606 -50.720  0.00  0.00     0.005 A 
ATOM     14  C   UNL d   1     -41.123-122.884 -50.251  0.00  0.00     0.000 A 
ATOM     15  C   UNL d   1     -41.253-123.060 -49.448  0.00  0.00     0.000 A 
ATOM     16  C   UNL d   1     -42.009-122.947 -49.137  0.00  0.00     0.000 A 
ATOM     17  C   UNL d   1     -42.618-122.668 -49.606  0.00  0.00     0.000 A 
ATOM     18  C   UNL d   1     -42.493-122.493 -50.402  0.00  0.00     0.000 A 
ENDBRANCH   1  13
TORSDOF 1
ENDMDL
MODEL 4
REMARK VINA RESULT:      -5.1      1.290      3.998
REMARK  1 active torsions:
REMARK  status: ('A' for Active; 'I' for Inactive)
REMARK    1  A    between atoms: C_9  and  C_1 
ROOT
ATOM      1  C   UNL d   1     -41.651-123.111 -50.760  0.00  0.00     0.064 A 
ATOM      2  C   UNL d   1     -41.744-122.412 -51.201  0.00  0.00     0.199 A 
ATOM      3  C   UNL d   1     -41.588-122.430 -52.018  0.00  0.00     0.062 A 
ATOM      4  C   UNL d   1     -41.408-123.807 -51.124  0.00  0.00     0.126 A 
ATOM      5  C   UNL d   1     -41.345-123.125 -52.382  0.00  0.00     0.106 A 
ATOM      6  O   UNL d   1     -41.254-123.817 -51.938  0.00  0.00    -0.305 OA
ATOM      7  C   UNL d   1     -41.682-121.734 -52.453  0.00  0.00     0.009 A 
ATOM      8  C   UNL d   1     -41.192-123.139 -53.189  0.00  0.00     0.067 A 
ATOM      9  O   UNL d   1     -41.986-121.720 -50.838  0.00  0.00    -0.286 OA
ATOM     10  C   UNL d   1     -41.283-122.447 -53.634  0.00  0.00     0.198 A 
ATOM     11  C   UNL d   1     -41.525-121.752 -53.270  0.00  0.00     0.042 A 
ATOM     12  O   UNL d   1     -41.128-122.448 -54.465  0.00  0.00    -0.286 OA
ENDROOT
BRANCH   1  13
ATOM     13  C   UNL d   1     -41.807-123.092 -49.947  0.00  0.00     0.005 A 
ATOM     14  C   UNL d   1     -42.576-123.110 -49.668  0.00  0.00     0.000 A 
ATOM     15  C   UNL d   1     -42.731-123.090 -48.851  0.00  0.00     0.000 A 
ATOM     16  C   UNL d   1     -42.093-123.053 -48.329  0.00  0.00     0.000 A 
ATOM     17  C   UNL d   1     -41.324-123.035 -48.607  0.00  0.00     0.000 A 
ATOM     18  C   UNL d   1     -41.166-123.054 -49.417  0.00  0.00     0.000 A 
ENDBRANCH   1  13
TORSDOF 1
ENDMDL
