MODEL 1
REMARK VINA RESULT:      75.6      0.000      0.000
REMARK  4 active torsions:
REMARK  status: ('A' for Active; 'I' for Inactive)
REMARK    1  A    between atoms: N_10  and  C_3 
REMARK    2  A    between atoms: C_12  and  C_5 
REMARK    3  A    between atoms: C_20  and  N_11 
REMARK    4  A    between atoms: C_24  and  C_20 
ROOT
ATOM      1  N   UNL d   1     -57.400 -99.120 -44.672  0.00  0.00    -0.196 N 
ATOM      2  C   UNL d   1     -56.925 -99.184 -43.994  0.00  0.00     0.167 A 
ATOM      3  C   UNL d   1     -58.208 -98.999 -44.582  0.00  0.00     0.152 A 
ATOM      4  N   UNL d   1     -56.261 -99.296 -45.482  0.00  0.00    -0.163 NA
ATOM      5  C   UNL d   1     -56.128 -99.303 -44.060  0.00  0.00     0.055 A 
ATOM      6  N   UNL d   1     -57.268 -99.126 -43.243  0.00  0.00    -0.227 NA
ATOM      7  C   UNL d   1     -58.548 -98.941 -43.843  0.00  0.00     0.052 A 
ATOM      8  C   UNL d   1     -55.789 -99.361 -44.809  0.00  0.00     0.104 A 
ATOM      9  C   UNL d   1     -58.076 -99.005 -43.170  0.00  0.00     0.086 A 
ATOM     10  C   UNL d   1     -59.365 -98.819 -43.775  0.00  0.00     0.004 A 
ATOM     11  C   UNL d   1     -54.995 -99.479 -44.888  0.00  0.00     0.023 C 
ATOM     12  C   UNL d   1     -58.415 -98.948 -42.421  0.00  0.00     0.019 A 
ATOM     13  C   UNL d   1     -59.705 -98.761 -43.014  0.00  0.00     0.000 A 
ATOM     14  C   UNL d   1     -59.233 -98.825 -42.340  0.00  0.00     0.002 A 
ENDROOT
BRANCH   3  15
ATOM     15  N   UNL d   1     -58.694 -98.932 -45.268  0.00  0.00    -0.286 N 
ATOM     16  C   UNL d   1     -58.274 -98.979 -46.008  0.00  0.00     0.101 A 
ATOM     17  C   UNL d   1     -58.696 -98.921 -46.745  0.00  0.00     0.100 A 
ATOM     18  N   UNL d   1     -59.540 -98.815 -46.742  0.00  0.00    -0.297 N 
ATOM     19  C   UNL d   1     -59.953 -98.769 -46.011  0.00  0.00     0.100 A 
ATOM     20  C   UNL d   1     -59.528 -98.828 -45.272  0.00  0.00     0.101 A 
BRANCH  18  21
ATOM     21  C   UNL d   1     -59.960 -98.757 -47.474  0.00  0.00     0.126 C 
BRANCH  21  22
ATOM     22  C   UNL d   1     -59.577 -98.917 -48.214  0.00  0.00     0.253 C 
ATOM     23  O   UNL d   1     -59.933 -99.417 -48.789  0.00  0.00    -0.281 OA
ENDBRANCH  21  22
ENDBRANCH  18  21
ENDBRANCH   3  15
BRANCH   5  24
ATOM     24  C   UNL d   1     -55.655 -99.367 -43.387  0.00  0.00     0.004 A 
ATOM     25  C   UNL d   1     -55.212-100.041 -43.272  0.00  0.00     0.000 A 
ATOM     26  C   UNL d   1     -54.740-100.105 -42.599  0.00  0.00     0.000 A 
ATOM     27  C   UNL d   1     -54.718 -99.495 -42.051  0.00  0.00     0.000 A 
ATOM     28  C   UNL d   1     -55.167 -98.821 -42.176  0.00  0.00     0.000 A 
ATOM     29  C   UNL d   1     -55.640 -98.756 -42.850  0.00  0.00     0.000 A 
ENDBRANCH   5  24
TORSDOF 4
ENDMDL
