MODEL 1
REMARK VINA RESULT:      -4.5      0.000      0.000
REMARK  7 active torsions:
REMARK  status: ('A' for Active; 'I' for Inactive)
REMARK       I    between atoms: N_2  and  C_1 
REMARK    1  A    between atoms: C_5  and  N_2 
REMARK    2  A    between atoms: N_4  and  C_9 
REMARK    3  A    between atoms: C_16  and  N_4 
REMARK    4  A    between atoms: O_6  and  C_8 
REMARK    5  A    between atoms: C_10  and  O_6 
REMARK    6  A    between atoms: C_7  and  C_10 
REMARK    7  A    between atoms: C_9  and  C_7 
ROOT
ATOM      1  C   UNL d   1      56.392   0.082  33.079  0.00  0.00     0.085 A 
ATOM      2  C   UNL d   1      56.914  -0.240  31.550  0.00  0.00     0.100 A 
ATOM      3  C   UNL d   1      56.723   0.681  32.623  0.00  0.00     0.021 A 
ATOM      4  C   UNL d   1      56.319  -0.684  32.778  0.00  0.00     0.021 A 
ATOM      5  C   UNL d   1      56.580  -0.846  32.011  0.00  0.00     0.026 A 
ATOM      6  C   UNL d   1      56.984   0.523  31.860  0.00  0.00     0.026 A 
ENDROOT
BRANCH   2   7
ATOM      7  O   UNL d   1      57.175  -0.399  30.788  0.00  0.00    -0.302 OA
BRANCH   7   8
ATOM      8  C   UNL d   1      57.980  -0.498  30.638  0.00  0.00     0.166 C 
BRANCH   8   9
ATOM      9  C   UNL d   1      58.226  -0.708  29.880  0.00  0.00     0.239 C 
ATOM     10  O   UNL d   1      58.106  -0.182  29.257  0.00  0.00    -0.283 OA
BRANCH   9  11
ATOM     11  C   UNL d   1      58.587  -1.433  29.741  0.00  0.00     0.143 C 
BRANCH  11  12
ATOM     12  N   UNL d   1      59.018  -1.555  29.048  0.00  0.00    -0.241 NA
BRANCH  12  13
ATOM     13  C   UNL d   1      59.400  -2.268  28.925  0.00  0.00     0.082 C 
ATOM     14  C   UNL d   1      58.951  -2.952  28.788  0.00  0.00     0.021 C 
ATOM     15  C   UNL d   1      60.223  -2.304  28.937  0.00  0.00     0.021 C 
ENDBRANCH  12  13
ENDBRANCH  11  12
ENDBRANCH   9  11
ENDBRANCH   8   9
ENDBRANCH   7   8
ENDBRANCH   2   7
BRANCH   1  16
ATOM     16  N   UNL d   1      56.131   0.240  33.842  0.00  0.00    -0.208 NA
ATOM     17  C   UNL d   1      55.356   0.515  33.969  0.00  0.00     0.279 C 
ATOM     18  O   UNL d   1      54.857   0.625  33.331  0.00  0.00    -0.265 OA
ATOM     19  C   UNL d   1      55.105   0.671  34.739  0.00  0.00     0.068 C 
ENDBRANCH   1  16
TORSDOF 7
ENDMDL
MODEL 2
REMARK VINA RESULT:      -3.6      1.257      5.292
REMARK  7 active torsions:
REMARK  status: ('A' for Active; 'I' for Inactive)
REMARK       I    between atoms: N_2  and  C_1 
REMARK    1  A    between atoms: C_5  and  N_2 
REMARK    2  A    between atoms: N_4  and  C_9 
REMARK    3  A    between atoms: C_16  and  N_4 
REMARK    4  A    between atoms: O_6  and  C_8 
REMARK    5  A    between atoms: C_10  and  O_6 
REMARK    6  A    between atoms: C_7  and  C_10 
REMARK    7  A    between atoms: C_9  and  C_7 
ROOT
ATOM      1  C   UNL d   1      59.571  -2.049  28.847  0.00  0.00     0.085 A 
ATOM      2  C   UNL d   1      58.574  -0.998  29.632  0.00  0.00     0.100 A 
ATOM      3  C   UNL d   1      58.844  -2.308  29.134  0.00  0.00     0.021 A 
ATOM      4  C   UNL d   1      59.807  -1.264  28.950  0.00  0.00     0.021 A 
ATOM      5  C   UNL d   1      59.308  -0.737  29.343  0.00  0.00     0.026 A 
ATOM      6  C   UNL d   1      58.345  -1.785  29.525  0.00  0.00     0.026 A 
ENDROOT
BRANCH   2   7
ATOM      7  O   UNL d   1      58.075  -0.475  30.023  0.00  0.00    -0.302 OA
BRANCH   7   8
ATOM      8  C   UNL d   1      57.765  -0.674  30.760  0.00  0.00     0.166 C 
BRANCH   8   9
ATOM      9  C   UNL d   1      57.296  -0.126  31.161  0.00  0.00     0.239 C 
ATOM     10  O   UNL d   1      57.089   0.578  30.786  0.00  0.00    -0.283 OA
BRANCH   9  11
ATOM     11  C   UNL d   1      57.037  -0.275  31.926  0.00  0.00     0.143 C 
BRANCH  11  12
ATOM     12  N   UNL d   1      56.230  -0.260  32.100  0.00  0.00    -0.241 NA
BRANCH  12  13
ATOM     13  C   UNL d   1      55.969  -0.474  32.845  0.00  0.00     0.082 C 
ATOM     14  C   UNL d   1      55.909  -1.277  33.041  0.00  0.00     0.021 C 
ATOM     15  C   UNL d   1      55.768   0.106  33.395  0.00  0.00     0.021 C 
ENDBRANCH  12  13
ENDBRANCH  11  12
ENDBRANCH   9  11
ENDBRANCH   8   9
ENDBRANCH   7   8
ENDBRANCH   2   7
BRANCH   1  16
ATOM     16  N   UNL d   1      60.069  -2.572  28.456  0.00  0.00    -0.208 NA
ATOM     17  C   UNL d   1      60.610  -3.034  28.887  0.00  0.00     0.279 C 
ATOM     18  O   UNL d   1      60.642  -2.964  29.701  0.00  0.00    -0.265 OA
ATOM     19  C   UNL d   1      61.106  -3.556  28.483  0.00  0.00     0.068 C 
ENDBRANCH   1  16
TORSDOF 7
ENDMDL
MODEL 3
REMARK VINA RESULT:      -2.7      1.089      5.192
REMARK  7 active torsions:
REMARK  status: ('A' for Active; 'I' for Inactive)
REMARK       I    between atoms: N_2  and  C_1 
REMARK    1  A    between atoms: C_5  and  N_2 
REMARK    2  A    between atoms: N_4  and  C_9 
REMARK    3  A    between atoms: C_16  and  N_4 
REMARK    4  A    between atoms: O_6  and  C_8 
REMARK    5  A    between atoms: C_10  and  O_6 
REMARK    6  A    between atoms: C_7  and  C_10 
REMARK    7  A    between atoms: C_9  and  C_7 
ROOT
ATOM      1  C   UNL d   1      59.051  -0.940  29.265  0.00  0.00     0.085 A 
ATOM      2  C   UNL d   1      57.804  -0.837  30.336  0.00  0.00     0.100 A 
ATOM      3  C   UNL d   1      58.879  -0.221  29.628  0.00  0.00     0.021 A 
ATOM      4  C   UNL d   1      58.604  -1.613  29.433  0.00  0.00     0.021 A 
ATOM      5  C   UNL d   1      57.978  -1.562  29.970  0.00  0.00     0.026 A 
ATOM      6  C   UNL d   1      58.257  -0.168  30.162  0.00  0.00     0.026 A 
ENDROOT
BRANCH   2   7
ATOM      7  O   UNL d   1      57.182  -0.784  30.870  0.00  0.00    -0.302 OA
BRANCH   7   8
ATOM      8  C   UNL d   1      57.328  -0.580  31.655  0.00  0.00     0.166 C 
BRANCH   8   9
ATOM      9  C   UNL d   1      56.740  -0.706  32.221  0.00  0.00     0.239 C 
ATOM     10  O   UNL d   1      56.433  -1.465  32.320  0.00  0.00    -0.283 OA
BRANCH   9  11
ATOM     11  C   UNL d   1      56.461  -0.087  32.681  0.00  0.00     0.143 C 
BRANCH  11  12
ATOM     12  N   UNL d   1      56.128  -0.238  33.422  0.00  0.00    -0.241 NA
BRANCH  12  13
ATOM     13  C   UNL d   1      55.615   0.303  33.758  0.00  0.00     0.082 C 
ATOM     14  C   UNL d   1      55.828   0.682  34.464  0.00  0.00     0.021 C 
ATOM     15  C   UNL d   1      54.894   0.469  33.396  0.00  0.00     0.021 C 
ENDBRANCH  12  13
ENDBRANCH  11  12
ENDBRANCH   9  11
ENDBRANCH   8   9
ENDBRANCH   7   8
ENDBRANCH   2   7
BRANCH   1  16
ATOM     16  N   UNL d   1      59.673  -0.993  28.731  0.00  0.00    -0.208 NA
ATOM     17  C   UNL d   1      60.442  -1.161  29.001  0.00  0.00     0.279 C 
ATOM     18  O   UNL d   1      60.573  -1.273  29.800  0.00  0.00    -0.265 OA
ATOM     19  C   UNL d   1      61.059  -1.212  28.455  0.00  0.00     0.068 C 
ENDBRANCH   1  16
TORSDOF 7
ENDMDL
