MODEL 1
REMARK VINA RESULT:      -8.3      0.000      0.000
REMARK  5 active torsions:
REMARK  status: ('A' for Active; 'I' for Inactive)
REMARK    1  A    between atoms: C_2  and  C_1 
REMARK    2  A    between atoms: C_4  and  C_1 
REMARK       I    between atoms: N_3  and  C_2 
REMARK    3  A    between atoms: C_5  and  N_3 
REMARK    4  A    between atoms: C_11  and  C_5 
REMARK    5  A    between atoms: C_12  and  C_5 
ROOT
ATOM      1  C   UNL d   1      53.873  32.705  53.509  0.00  0.00     0.315 C 
ATOM      2  N   UNL d   1      53.336  33.333  53.478  0.00  0.00    -0.367 NA
ATOM      3  O   UNL d   1      54.610  32.772  53.145  0.00  0.00    -0.255 OA
ENDROOT
BRANCH   2   4
ATOM      4  C   UNL d   1      52.646  34.149  53.434  0.00  0.00     0.135 C 
BRANCH   4   5
ATOM      5  C   UNL d   1      52.781  34.769  53.824  0.00  0.00     0.030 A 
ATOM      6  C   UNL d   1      52.425  34.889  54.532  0.00  0.00     0.003 A 
ATOM      7  C   UNL d   1      52.562  35.572  54.980  0.00  0.00     0.000 A 
ATOM      8  C   UNL d   1      53.103  36.157  54.664  0.00  0.00     0.000 A 
ATOM      9  C   UNL d   1      53.460  36.036  53.955  0.00  0.00     0.000 A 
ATOM     10  C   UNL d   1      53.304  35.321  53.506  0.00  0.00     0.003 A 
ENDBRANCH   4   5
BRANCH   4  11
ATOM     11  C   UNL d   1      52.037  34.111  53.025  0.00  0.00     0.030 A 
ATOM     12  C   UNL d   1      51.339  33.938  53.364  0.00  0.00     0.003 A 
ATOM     13  C   UNL d   1      50.644  33.892  52.915  0.00  0.00     0.000 A 
ATOM     14  C   UNL d   1      50.719  34.033  52.110  0.00  0.00     0.000 A 
ATOM     15  C   UNL d   1      51.423  34.206  51.775  0.00  0.00     0.000 A 
ATOM     16  C   UNL d   1      52.113  34.252  52.224  0.00  0.00     0.003 A 
ENDBRANCH   4  11
ENDBRANCH   2   4
BRANCH   1  17
ATOM     17  C   UNL d   1      53.676  32.003  53.905  0.00  0.00     0.150 A 
ATOM     18  C   UNL d   1      53.482  31.310  54.295  0.00  0.00     0.019 A 
ATOM     19  C   UNL d   1      53.670  31.218  55.103  0.00  0.00     0.119 A 
ATOM     20  O   UNL d   1      54.049  31.817  55.509  0.00  0.00    -0.304 OA
ATOM     21  C   UNL d   1      54.247  32.519  55.117  0.00  0.00     0.119 A 
ATOM     22  C   UNL d   1      54.061  32.613  54.313  0.00  0.00     0.019 A 
BRANCH  17  23
ATOM     23  C   UNL d   1      53.291  31.393  53.493  0.00  0.00     0.024 A 
ATOM     24  S   UNL d   1      52.634  30.952  53.754  0.00  0.00    -0.090 SA
ATOM     25  C   UNL d   1      52.429  30.403  53.170  0.00  0.00     0.035 A 
ATOM     26  C   UNL d   1      52.949  30.488  52.538  0.00  0.00     0.007 A 
ATOM     27  C   UNL d   1      53.484  31.102  52.735  0.00  0.00     0.004 A 
ENDBRANCH  17  23
ENDBRANCH   1  17
TORSDOF 5
ENDMDL
MODEL 2
REMARK VINA RESULT:      -8.2      0.020      1.905
REMARK  5 active torsions:
REMARK  status: ('A' for Active; 'I' for Inactive)
REMARK    1  A    between atoms: C_2  and  C_1 
REMARK    2  A    between atoms: C_4  and  C_1 
REMARK       I    between atoms: N_3  and  C_2 
REMARK    3  A    between atoms: C_5  and  N_3 
REMARK    4  A    between atoms: C_11  and  C_5 
REMARK    5  A    between atoms: C_12  and  C_5 
ROOT
ATOM      1  C   UNL d   1      53.885  32.707  53.517  0.00  0.00     0.315 C 
ATOM      2  N   UNL d   1      53.355  33.341  53.494  0.00  0.00    -0.367 NA
ATOM      3  O   UNL d   1      54.619  32.768  53.147  0.00  0.00    -0.255 OA
ENDROOT
BRANCH   2   4
ATOM      4  C   UNL d   1      52.673  34.165  53.460  0.00  0.00     0.135 C 
BRANCH   4   5
ATOM      5  C   UNL d   1      52.057  34.119  53.047  0.00  0.00     0.030 A 
ATOM      6  C   UNL d   1      51.353  33.934  53.385  0.00  0.00     0.003 A 
ATOM      7  C   UNL d   1      50.656  33.877  52.941  0.00  0.00     0.000 A 
ATOM      8  C   UNL d   1      50.704  34.023  52.098  0.00  0.00     0.000 A 
ATOM      9  C   UNL d   1      51.408  34.208  51.760  0.00  0.00     0.000 A 
ATOM     10  C   UNL d   1      52.120  34.262  52.237  0.00  0.00     0.003 A 
ENDBRANCH   4   5
BRANCH   4  11
ATOM     11  C   UNL d   1      52.802  34.781  53.841  0.00  0.00     0.030 A 
ATOM     12  C   UNL d   1      52.442  34.901  54.539  0.00  0.00     0.003 A 
ATOM     13  C   UNL d   1      52.577  35.591  54.979  0.00  0.00     0.000 A 
ATOM     14  C   UNL d   1      53.098  36.134  54.653  0.00  0.00     0.000 A 
ATOM     15  C   UNL d   1      53.457  36.009  53.951  0.00  0.00     0.000 A 
ATOM     16  C   UNL d   1      53.321  35.322  53.516  0.00  0.00     0.003 A 
ENDBRANCH   4  11
ENDBRANCH   2   4
BRANCH   1  17
ATOM     17  C   UNL d   1      53.683  32.005  53.911  0.00  0.00     0.150 A 
ATOM     18  C   UNL d   1      53.484  31.312  54.298  0.00  0.00     0.019 A 
ATOM     19  C   UNL d   1      53.669  31.218  55.107  0.00  0.00     0.119 A 
ATOM     20  O   UNL d   1      54.049  31.815  55.516  0.00  0.00    -0.304 OA
ATOM     21  C   UNL d   1      54.252  32.516  55.125  0.00  0.00     0.119 A 
ATOM     22  C   UNL d   1      54.069  32.613  54.322  0.00  0.00     0.019 A 
BRANCH  17  23
ATOM     23  C   UNL d   1      53.297  31.398  53.496  0.00  0.00     0.024 A 
ATOM     24  S   UNL d   1      52.644  30.952  53.758  0.00  0.00    -0.090 SA
ATOM     25  C   UNL d   1      52.436  30.407  53.171  0.00  0.00     0.035 A 
ATOM     26  C   UNL d   1      52.951  30.500  52.536  0.00  0.00     0.007 A 
ATOM     27  C   UNL d   1      53.486  31.114  52.734  0.00  0.00     0.004 A 
ENDBRANCH  17  23
ENDBRANCH   1  17
TORSDOF 5
ENDMDL
MODEL 3
REMARK VINA RESULT:      -8.1      1.470      4.124
REMARK  5 active torsions:
REMARK  status: ('A' for Active; 'I' for Inactive)
REMARK    1  A    between atoms: C_2  and  C_1 
REMARK    2  A    between atoms: C_4  and  C_1 
REMARK       I    between atoms: N_3  and  C_2 
REMARK    3  A    between atoms: C_5  and  N_3 
REMARK    4  A    between atoms: C_11  and  C_5 
REMARK    5  A    between atoms: C_12  and  C_5 
ROOT
ATOM      1  C   UNL d   1      52.368  33.234  52.757  0.00  0.00     0.315 C 
ATOM      2  N   UNL d   1      52.897  32.795  53.216  0.00  0.00    -0.367 NA
ATOM      3  O   UNL d   1      52.356  33.143  51.937  0.00  0.00    -0.255 OA
ENDROOT
BRANCH   2   4
ATOM      4  C   UNL d   1      53.584  32.223  53.804  0.00  0.00     0.135 C 
BRANCH   4   5
ATOM      5  C   UNL d   1      53.549  31.480  53.796  0.00  0.00     0.030 A 
ATOM      6  C   UNL d   1      53.185  31.084  54.390  0.00  0.00     0.003 A 
ATOM      7  C   UNL d   1      53.135  30.257  54.400  0.00  0.00     0.000 A 
ATOM      8  C   UNL d   1      53.489  29.828  53.748  0.00  0.00     0.000 A 
ATOM      9  C   UNL d   1      53.853  30.224  53.152  0.00  0.00     0.000 A 
ATOM     10  C   UNL d   1      53.894  31.081  53.162  0.00  0.00     0.003 A 
ENDBRANCH   4   5
BRANCH   4  11
ATOM     11  C   UNL d   1      54.094  32.552  54.219  0.00  0.00     0.030 A 
ATOM     12  C   UNL d   1      53.981  32.629  55.003  0.00  0.00     0.003 A 
ATOM     13  C   UNL d   1      54.547  32.997  55.483  0.00  0.00     0.000 A 
ATOM     14  C   UNL d   1      55.222  33.272  55.106  0.00  0.00     0.000 A 
ATOM     15  C   UNL d   1      55.331  33.192  54.319  0.00  0.00     0.000 A 
ATOM     16  C   UNL d   1      54.766  32.825  53.843  0.00  0.00     0.003 A 
ENDBRANCH   4  11
ENDBRANCH   2   4
BRANCH   1  17
ATOM     17  C   UNL d   1      51.844  33.769  53.115  0.00  0.00     0.150 A 
ATOM     18  C   UNL d   1      51.329  34.297  53.468  0.00  0.00     0.019 A 
ATOM     19  C   UNL d   1      50.523  34.099  53.556  0.00  0.00     0.119 A 
ATOM     20  O   UNL d   1      50.243  33.379  53.291  0.00  0.00    -0.304 OA
ATOM     21  C   UNL d   1      50.763  32.843  52.932  0.00  0.00     0.119 A 
ATOM     22  C   UNL d   1      51.565  33.036  52.844  0.00  0.00     0.019 A 
BRANCH  17  23
ATOM     23  C   UNL d   1      52.128  34.501  53.385  0.00  0.00     0.024 A 
ATOM     24  S   UNL d   1      51.953  34.866  54.114  0.00  0.00    -0.090 SA
ATOM     25  C   UNL d   1      52.352  35.589  54.157  0.00  0.00     0.035 A 
ATOM     26  C   UNL d   1      52.781  35.690  53.462  0.00  0.00     0.007 A 
ATOM     27  C   UNL d   1      52.644  35.017  52.982  0.00  0.00     0.004 A 
ENDBRANCH  17  23
ENDBRANCH   1  17
TORSDOF 5
ENDMDL
MODEL 4
REMARK VINA RESULT:      -8.0      1.471      3.707
REMARK  5 active torsions:
REMARK  status: ('A' for Active; 'I' for Inactive)
REMARK    1  A    between atoms: C_2  and  C_1 
REMARK    2  A    between atoms: C_4  and  C_1 
REMARK       I    between atoms: N_3  and  C_2 
REMARK    3  A    between atoms: C_5  and  N_3 
REMARK    4  A    between atoms: C_11  and  C_5 
REMARK    5  A    between atoms: C_12  and  C_5 
ROOT
ATOM      1  C   UNL d   1      52.368  33.229  52.753  0.00  0.00     0.315 C 
ATOM      2  N   UNL d   1      52.892  32.782  53.208  0.00  0.00    -0.367 NA
ATOM      3  O   UNL d   1      52.359  33.149  51.932  0.00  0.00    -0.255 OA
ENDROOT
BRANCH   2   4
ATOM      4  C   UNL d   1      53.574  32.199  53.791  0.00  0.00     0.135 C 
BRANCH   4   5
ATOM      5  C   UNL d   1      54.087  32.539  54.210  0.00  0.00     0.030 A 
ATOM      6  C   UNL d   1      53.977  32.619  55.000  0.00  0.00     0.003 A 
ATOM      7  C   UNL d   1      54.536  32.994  55.484  0.00  0.00     0.000 A 
ATOM      8  C   UNL d   1      55.246  33.300  55.113  0.00  0.00     0.000 A 
ATOM      9  C   UNL d   1      55.355  33.220  54.322  0.00  0.00     0.000 A 
ATOM     10  C   UNL d   1      54.764  32.827  53.839  0.00  0.00     0.003 A 
ENDBRANCH   4   5
BRANCH   4  11
ATOM     11  C   UNL d   1      53.547  31.464  53.787  0.00  0.00     0.030 A 
ATOM     12  C   UNL d   1      53.186  31.075  54.380  0.00  0.00     0.003 A 
ATOM     13  C   UNL d   1      53.148  30.248  54.389  0.00  0.00     0.000 A 
ATOM     14  C   UNL d   1      53.501  29.859  53.758  0.00  0.00     0.000 A 
ATOM     15  C   UNL d   1      53.863  30.255  53.165  0.00  0.00     0.000 A 
ATOM     16  C   UNL d   1      53.899  31.078  53.159  0.00  0.00     0.003 A 
ENDBRANCH   4  11
ENDBRANCH   2   4
BRANCH   1  17
ATOM     17  C   UNL d   1      51.846  33.763  53.116  0.00  0.00     0.150 A 
ATOM     18  C   UNL d   1      51.332  34.289  53.474  0.00  0.00     0.019 A 
ATOM     19  C   UNL d   1      50.527  34.090  53.566  0.00  0.00     0.119 A 
ATOM     20  O   UNL d   1      50.247  33.371  53.299  0.00  0.00    -0.304 OA
ATOM     21  C   UNL d   1      50.765  32.836  52.937  0.00  0.00     0.119 A 
ATOM     22  C   UNL d   1      51.566  33.031  52.844  0.00  0.00     0.019 A 
BRANCH  17  23
ATOM     23  C   UNL d   1      52.130  34.495  53.387  0.00  0.00     0.024 A 
ATOM     24  S   UNL d   1      51.951  34.861  54.113  0.00  0.00    -0.090 SA
ATOM     25  C   UNL d   1      52.353  35.583  54.158  0.00  0.00     0.035 A 
ATOM     26  C   UNL d   1      52.788  35.682  53.466  0.00  0.00     0.007 A 
ATOM     27  C   UNL d   1      52.651  35.008  52.986  0.00  0.00     0.004 A 
ENDBRANCH  17  23
ENDBRANCH   1  17
TORSDOF 5
ENDMDL
MODEL 5
REMARK VINA RESULT:      -8.0      1.441      3.383
REMARK  5 active torsions:
REMARK  status: ('A' for Active; 'I' for Inactive)
REMARK    1  A    between atoms: C_2  and  C_1 
REMARK    2  A    between atoms: C_4  and  C_1 
REMARK       I    between atoms: N_3  and  C_2 
REMARK    3  A    between atoms: C_5  and  N_3 
REMARK    4  A    between atoms: C_11  and  C_5 
REMARK    5  A    between atoms: C_12  and  C_5 
ROOT
ATOM      1  C   UNL d   1      52.874  34.314  53.025  0.00  0.00     0.315 C 
ATOM      2  N   UNL d   1      53.306  33.735  53.428  0.00  0.00    -0.367 NA
ATOM      3  O   UNL d   1      53.195  34.681  52.360  0.00  0.00    -0.255 OA
ENDROOT
BRANCH   2   4
ATOM      4  C   UNL d   1      53.870  32.988  53.945  0.00  0.00     0.135 C 
BRANCH   4   5
ATOM      5  C   UNL d   1      54.357  33.189  54.471  0.00  0.00     0.030 A 
ATOM      6  C   UNL d   1      54.159  33.145  55.246  0.00  0.00     0.003 A 
ATOM      7  C   UNL d   1      54.687  33.364  55.846  0.00  0.00     0.000 A 
ATOM      8  C   UNL d   1      55.462  33.645  55.614  0.00  0.00     0.000 A 
ATOM      9  C   UNL d   1      55.661  33.689  54.838  0.00  0.00     0.000 A 
ATOM     10  C   UNL d   1      55.099  33.456  54.231  0.00  0.00     0.003 A 
ENDBRANCH   4   5
BRANCH   4  11
ATOM     11  C   UNL d   1      53.787  32.273  53.791  0.00  0.00     0.030 A 
ATOM     12  C   UNL d   1      53.383  31.803  54.289  0.00  0.00     0.003 A 
ATOM     13  C   UNL d   1      53.280  30.996  54.129  0.00  0.00     0.000 A 
ATOM     14  C   UNL d   1      53.617  30.717  53.435  0.00  0.00     0.000 A 
ATOM     15  C   UNL d   1      54.023  31.193  52.938  0.00  0.00     0.000 A 
ATOM     16  C   UNL d   1      54.123  31.996  53.100  0.00  0.00     0.003 A 
ENDBRANCH   4  11
ENDBRANCH   2   4
BRANCH   1  17
ATOM     17  C   UNL d   1      52.116  34.529  53.285  0.00  0.00     0.150 A 
ATOM     18  C   UNL d   1      51.368  34.741  53.540  0.00  0.00     0.019 A 
ATOM     19  C   UNL d   1      51.270  35.391  54.053  0.00  0.00     0.119 A 
ATOM     20  O   UNL d   1      51.919  35.821  54.304  0.00  0.00    -0.304 OA
ATOM     21  C   UNL d   1      52.677  35.608  54.046  0.00  0.00     0.119 A 
ATOM     22  C   UNL d   1      52.777  34.962  53.536  0.00  0.00     0.019 A 
BRANCH  17  23
ATOM     23  C   UNL d   1      51.456  34.093  53.030  0.00  0.00     0.024 A 
ATOM     24  S   UNL d   1      51.183  34.013  52.248  0.00  0.00    -0.090 SA
ATOM     25  C   UNL d   1      50.511  33.531  52.244  0.00  0.00     0.035 A 
ATOM     26  C   UNL d   1      50.351  33.302  53.019  0.00  0.00     0.007 A 
ATOM     27  C   UNL d   1      50.936  33.649  53.508  0.00  0.00     0.004 A 
ENDBRANCH  17  23
ENDBRANCH   1  17
TORSDOF 5
ENDMDL
MODEL 6
REMARK VINA RESULT:      -7.3      1.520      3.153
REMARK  5 active torsions:
REMARK  status: ('A' for Active; 'I' for Inactive)
REMARK    1  A    between atoms: C_2  and  C_1 
REMARK    2  A    between atoms: C_4  and  C_1 
REMARK       I    between atoms: N_3  and  C_2 
REMARK    3  A    between atoms: C_5  and  N_3 
REMARK    4  A    between atoms: C_11  and  C_5 
REMARK    5  A    between atoms: C_12  and  C_5 
ROOT
ATOM      1  C   UNL d   1      53.372  34.577  53.598  0.00  0.00     0.315 C 
ATOM      2  N   UNL d   1      52.784  34.064  53.325  0.00  0.00    -0.367 NA
ATOM      3  O   UNL d   1      53.805  35.033  53.064  0.00  0.00    -0.255 OA
ENDROOT
BRANCH   2   4
ATOM      4  C   UNL d   1      52.024  33.403  52.964  0.00  0.00     0.135 C 
BRANCH   4   5
ATOM      5  C   UNL d   1      51.384  33.680  52.707  0.00  0.00     0.030 A 
ATOM      6  C   UNL d   1      50.742  33.731  53.185  0.00  0.00     0.003 A 
ATOM      7  C   UNL d   1      50.020  34.037  52.918  0.00  0.00     0.000 A 
ATOM      8  C   UNL d   1      49.974  34.303  52.105  0.00  0.00     0.000 A 
ATOM      9  C   UNL d   1      50.616  34.252  51.626  0.00  0.00     0.000 A 
ATOM     10  C   UNL d   1      51.356  33.932  51.923  0.00  0.00     0.003 A 
ENDBRANCH   4   5
BRANCH   4  11
ATOM     11  C   UNL d   1      52.122  32.674  52.965  0.00  0.00     0.030 A 
ATOM     12  C   UNL d   1      51.704  32.216  53.463  0.00  0.00     0.003 A 
ATOM     13  C   UNL d   1      51.804  31.394  53.475  0.00  0.00     0.000 A 
ATOM     14  C   UNL d   1      52.353  31.085  52.949  0.00  0.00     0.000 A 
ATOM     15  C   UNL d   1      52.771  31.549  52.451  0.00  0.00     0.000 A 
ATOM     16  C   UNL d   1      52.669  32.368  52.441  0.00  0.00     0.003 A 
ENDBRANCH   4  11
ENDBRANCH   2   4
BRANCH   1  17
ATOM     17  C   UNL d   1      53.532  34.638  54.410  0.00  0.00     0.150 A 
ATOM     18  C   UNL d   1      53.691  34.697  55.210  0.00  0.00     0.019 A 
ATOM     19  C   UNL d   1      53.366  35.324  55.656  0.00  0.00     0.119 A 
ATOM     20  O   UNL d   1      52.889  35.881  55.296  0.00  0.00    -0.304 OA
ATOM     21  C   UNL d   1      52.727  35.823  54.487  0.00  0.00     0.119 A 
ATOM     22  C   UNL d   1      53.049  35.201  54.041  0.00  0.00     0.019 A 
BRANCH  17  23
ATOM     23  C   UNL d   1      54.018  34.072  54.776  0.00  0.00     0.024 A 
ATOM     24  S   UNL d   1      54.814  33.908  54.597  0.00  0.00    -0.090 SA
ATOM     25  C   UNL d   1      55.084  33.304  55.094  0.00  0.00     0.035 A 
ATOM     26  C   UNL d   1      54.466  33.080  55.590  0.00  0.00     0.007 A 
ATOM     27  C   UNL d   1      53.804  33.554  55.395  0.00  0.00     0.004 A 
ENDBRANCH  17  23
ENDBRANCH   1  17
TORSDOF 5
ENDMDL
MODEL 7
REMARK VINA RESULT:      -7.1      1.236      3.229
REMARK  5 active torsions:
REMARK  status: ('A' for Active; 'I' for Inactive)
REMARK    1  A    between atoms: C_2  and  C_1 
REMARK    2  A    between atoms: C_4  and  C_1 
REMARK       I    between atoms: N_3  and  C_2 
REMARK    3  A    between atoms: C_5  and  N_3 
REMARK    4  A    between atoms: C_11  and  C_5 
REMARK    5  A    between atoms: C_12  and  C_5 
ROOT
ATOM      1  C   UNL d   1      54.013  33.497  53.679  0.00  0.00     0.315 C 
ATOM      2  N   UNL d   1      53.336  33.093  53.431  0.00  0.00    -0.367 NA
ATOM      3  O   UNL d   1      54.677  33.532  53.191  0.00  0.00    -0.255 OA
ENDROOT
BRANCH   2   4
ATOM      4  C   UNL d   1      52.463  32.567  53.104  0.00  0.00     0.135 C 
BRANCH   4   5
ATOM      5  C   UNL d   1      52.471  31.824  53.069  0.00  0.00     0.030 A 
ATOM      6  C   UNL d   1      52.094  31.388  53.627  0.00  0.00     0.003 A 
ATOM      7  C   UNL d   1      52.091  30.559  53.605  0.00  0.00     0.000 A 
ATOM      8  C   UNL d   1      52.506  30.173  52.962  0.00  0.00     0.000 A 
ATOM      9  C   UNL d   1      52.882  30.610  52.404  0.00  0.00     0.000 A 
ATOM     10  C   UNL d   1      52.874  31.468  52.444  0.00  0.00     0.003 A 
ENDBRANCH   4   5
BRANCH   4  11
ATOM     11  C   UNL d   1      51.852  32.927  52.912  0.00  0.00     0.030 A 
ATOM     12  C   UNL d   1      51.221  32.928  53.395  0.00  0.00     0.003 A 
ATOM     13  C   UNL d   1      50.525  33.329  53.192  0.00  0.00     0.000 A 
ATOM     14  C   UNL d   1      50.527  33.721  52.471  0.00  0.00     0.000 A 
ATOM     15  C   UNL d   1      51.164  33.717  51.988  0.00  0.00     0.000 A 
ATOM     16  C   UNL d   1      51.855  33.317  52.194  0.00  0.00     0.003 A 
ENDBRANCH   4  11
ENDBRANCH   2   4
BRANCH   1  17
ATOM     17  C   UNL d   1      54.031  33.872  54.420  0.00  0.00     0.150 A 
ATOM     18  C   UNL d   1      54.048  34.242  55.149  0.00  0.00     0.019 A 
ATOM     19  C   UNL d   1      54.438  33.880  55.792  0.00  0.00     0.119 A 
ATOM     20  O   UNL d   1      54.804  33.155  55.698  0.00  0.00    -0.304 OA
ATOM     21  C   UNL d   1      54.788  32.779  54.960  0.00  0.00     0.119 A 
ATOM     22  C   UNL d   1      54.401  33.136  54.319  0.00  0.00     0.019 A 
BRANCH  17  23
ATOM     23  C   UNL d   1      53.659  34.608  54.516  0.00  0.00     0.024 A 
ATOM     24  S   UNL d   1      53.158  34.836  55.141  0.00  0.00    -0.090 SA
ATOM     25  C   UNL d   1      52.910  35.615  55.019  0.00  0.00     0.035 A 
ATOM     26  C   UNL d   1      53.248  35.889  54.320  0.00  0.00     0.007 A 
ATOM     27  C   UNL d   1      53.713  35.266  54.006  0.00  0.00     0.004 A 
ENDBRANCH  17  23
ENDBRANCH   1  17
TORSDOF 5
ENDMDL
MODEL 8
REMARK VINA RESULT:      -7.0      1.730      2.576
REMARK  5 active torsions:
REMARK  status: ('A' for Active; 'I' for Inactive)
REMARK    1  A    between atoms: C_2  and  C_1 
REMARK    2  A    between atoms: C_4  and  C_1 
REMARK       I    between atoms: N_3  and  C_2 
REMARK    3  A    between atoms: C_5  and  N_3 
REMARK    4  A    between atoms: C_11  and  C_5 
REMARK    5  A    between atoms: C_12  and  C_5 
ROOT
ATOM      1  C   UNL d   1      53.871  30.584  53.381  0.00  0.00     0.315 C 
ATOM      2  N   UNL d   1      53.729  31.374  53.577  0.00  0.00    -0.367 NA
ATOM      3  O   UNL d   1      54.568  30.372  52.995  0.00  0.00    -0.255 OA
ENDROOT
BRANCH   2   4
ATOM      4  C   UNL d   1      53.551  32.399  53.828  0.00  0.00     0.135 C 
BRANCH   4   5
ATOM      5  C   UNL d   1      54.017  32.754  54.287  0.00  0.00     0.030 A 
ATOM      6  C   UNL d   1      53.858  32.798  55.072  0.00  0.00     0.003 A 
ATOM      7  C   UNL d   1      54.364  33.188  55.599  0.00  0.00     0.000 A 
ATOM      8  C   UNL d   1      55.073  33.549  55.281  0.00  0.00     0.000 A 
ATOM      9  C   UNL d   1      55.232  33.505  54.496  0.00  0.00     0.000 A 
ATOM     10  C   UNL d   1      54.694  33.096  53.966  0.00  0.00     0.003 A 
ENDBRANCH   4   5
BRANCH   4  11
ATOM     11  C   UNL d   1      52.974  32.764  53.554  0.00  0.00     0.030 A 
ATOM     12  C   UNL d   1      52.303  32.824  53.977  0.00  0.00     0.003 A 
ATOM     13  C   UNL d   1      51.645  33.232  53.681  0.00  0.00     0.000 A 
ATOM     14  C   UNL d   1      51.727  33.564  52.936  0.00  0.00     0.000 A 
ATOM     15  C   UNL d   1      52.403  33.501  52.515  0.00  0.00     0.000 A 
ATOM     16  C   UNL d   1      53.056  33.094  52.812  0.00  0.00     0.003 A 
ENDBRANCH   4  11
ENDBRANCH   2   4
BRANCH   1  17
ATOM     17  C   UNL d   1      53.315  29.997  53.570  0.00  0.00     0.150 A 
ATOM     18  C   UNL d   1      52.767  29.419  53.757  0.00  0.00     0.019 A 
ATOM     19  C   UNL d   1      52.216  29.164  53.185  0.00  0.00     0.119 A 
ATOM     20  O   UNL d   1      52.220  29.489  52.435  0.00  0.00    -0.304 OA
ATOM     21  C   UNL d   1      52.773  30.075  52.243  0.00  0.00     0.119 A 
ATOM     22  C   UNL d   1      53.323  30.330  52.810  0.00  0.00     0.019 A 
BRANCH  17  23
ATOM     23  C   UNL d   1      53.311  29.667  54.332  0.00  0.00     0.024 A 
ATOM     24  S   UNL d   1      53.834  29.091  54.628  0.00  0.00    -0.090 SA
ATOM     25  C   UNL d   1      53.632  28.919  55.412  0.00  0.00     0.035 A 
ATOM     26  C   UNL d   1      52.983  29.381  55.620  0.00  0.00     0.007 A 
ATOM     27  C   UNL d   1      52.782  29.845  54.952  0.00  0.00     0.004 A 
ENDBRANCH  17  23
ENDBRANCH   1  17
TORSDOF 5
ENDMDL
MODEL 9
REMARK VINA RESULT:      -6.7      1.559      2.757
REMARK  5 active torsions:
REMARK  status: ('A' for Active; 'I' for Inactive)
REMARK    1  A    between atoms: C_2  and  C_1 
REMARK    2  A    between atoms: C_4  and  C_1 
REMARK       I    between atoms: N_3  and  C_2 
REMARK    3  A    between atoms: C_5  and  N_3 
REMARK    4  A    between atoms: C_11  and  C_5 
REMARK    5  A    between atoms: C_12  and  C_5 
ROOT
ATOM      1  C   UNL d   1      52.857  31.079  52.862  0.00  0.00     0.315 C 
ATOM      2  N   UNL d   1      52.987  31.832  53.177  0.00  0.00    -0.367 NA
ATOM      3  O   UNL d   1      52.974  30.941  52.057  0.00  0.00    -0.255 OA
ENDROOT
BRANCH   2   4
ATOM      4  C   UNL d   1      53.158  32.809  53.579  0.00  0.00     0.135 C 
BRANCH   4   5
ATOM      5  C   UNL d   1      52.684  33.361  53.422  0.00  0.00     0.030 A 
ATOM      6  C   UNL d   1      52.092  33.544  53.930  0.00  0.00     0.003 A 
ATOM      7  C   UNL d   1      51.554  34.155  53.774  0.00  0.00     0.000 A 
ATOM      8  C   UNL d   1      51.648  34.594  53.044  0.00  0.00     0.000 A 
ATOM      9  C   UNL d   1      52.241  34.410  52.535  0.00  0.00     0.000 A 
ATOM     10  C   UNL d   1      52.788  33.773  52.716  0.00  0.00     0.003 A 
ENDBRANCH   4   5
BRANCH   4  11
ATOM     11  C   UNL d   1      53.737  32.948  54.010  0.00  0.00     0.030 A 
ATOM     12  C   UNL d   1      53.648  32.980  54.800  0.00  0.00     0.003 A 
ATOM     13  C   UNL d   1      54.291  33.135  55.298  0.00  0.00     0.000 A 
ATOM     14  C   UNL d   1      55.016  33.252  54.932  0.00  0.00     0.000 A 
ATOM     15  C   UNL d   1      55.100  33.219  54.138  0.00  0.00     0.000 A 
ATOM     16  C   UNL d   1      54.458  33.064  53.645  0.00  0.00     0.003 A 
ENDBRANCH   4  11
ENDBRANCH   2   4
BRANCH   1  17
ATOM     17  C   UNL d   1      52.608  30.456  53.351  0.00  0.00     0.150 A 
ATOM     18  C   UNL d   1      52.364  29.842  53.832  0.00  0.00     0.019 A 
ATOM     19  C   UNL d   1      51.550  29.687  53.932  0.00  0.00     0.119 A 
ATOM     20  O   UNL d   1      50.993  30.147  53.551  0.00  0.00    -0.304 OA
ATOM     21  C   UNL d   1      51.238  30.769  53.062  0.00  0.00     0.119 A 
ATOM     22  C   UNL d   1      52.047  30.925  52.961  0.00  0.00     0.019 A 
BRANCH  17  23
ATOM     23  C   UNL d   1      53.175  29.988  53.739  0.00  0.00     0.024 A 
ATOM     24  S   UNL d   1      53.113  29.662  54.503  0.00  0.00    -0.090 SA
ATOM     25  C   UNL d   1      53.801  29.235  54.671  0.00  0.00     0.035 A 
ATOM     26  C   UNL d   1      54.303  29.285  54.021  0.00  0.00     0.007 A 
ATOM     27  C   UNL d   1      53.917  29.751  53.441  0.00  0.00     0.004 A 
ENDBRANCH  17  23
ENDBRANCH   1  17
TORSDOF 5
ENDMDL
