MODEL 1
REMARK VINA RESULT:      23.8      0.000      0.000
REMARK  1 active torsions:
REMARK  status: ('A' for Active; 'I' for Inactive)
REMARK    1  A    between atoms: C_11  and  C_4 
ROOT
ATOM      1  N   UNL d   1      58.881  49.661  50.332  0.00  0.00    -0.242 NA
ATOM      2  C   UNL d   1      59.539  49.672  50.812  0.00  0.00     0.099 A 
ATOM      3  N   UNL d   1      58.718  49.707  51.971  0.00  0.00    -0.241 NA
ATOM      4  C   UNL d   1      58.145  49.673  50.674  0.00  0.00     0.101 A 
ATOM      5  C   UNL d   1      59.457  49.695  51.633  0.00  0.00     0.099 A 
ATOM      6  C   UNL d   1      60.282  49.660  50.471  0.00  0.00     0.021 A 
ATOM      7  C   UNL d   1      60.969  49.671  50.954  0.00  0.00     0.002 A 
ATOM      8  C   UNL d   1      60.887  49.694  51.775  0.00  0.00     0.002 A 
ATOM      9  C   UNL d   1      60.119  49.706  52.110  0.00  0.00     0.021 A 
ATOM     10  C   UNL d   1      58.063  49.696  51.494  0.00  0.00     0.118 A 
ATOM     11  C   UNL d   1      61.732  49.659  50.615  0.00  0.00     0.000 C 
ATOM     12  C   UNL d   1      61.569  49.705  52.254  0.00  0.00     0.000 C 
ENDROOT
BRANCH   4  13
ATOM     13  C   UNL d   1      57.485  49.662  50.193  0.00  0.00     0.019 A 
ATOM     14  C   UNL d   1      57.566  49.658  49.377  0.00  0.00     0.002 A 
ATOM     15  C   UNL d   1      56.886  49.647  48.866  0.00  0.00     0.000 A 
ATOM     16  C   UNL d   1      56.145  49.640  49.237  0.00  0.00     0.000 A 
ATOM     17  C   UNL d   1      56.064  49.643  50.053  0.00  0.00     0.000 A 
ATOM     18  C   UNL d   1      56.721  49.654  50.533  0.00  0.00     0.002 A 
ENDBRANCH   4  13
TORSDOF 1
ENDMDL
MODEL 2
REMARK VINA RESULT:      25.2      0.570      1.236
REMARK  1 active torsions:
REMARK  status: ('A' for Active; 'I' for Inactive)
REMARK    1  A    between atoms: C_11  and  C_4 
ROOT
ATOM      1  N   UNL d   1      58.556  49.634  51.085  0.00  0.00    -0.242 NA
ATOM      2  C   UNL d   1      59.333  49.648  51.328  0.00  0.00     0.099 A 
ATOM      3  N   UNL d   1      59.776  49.658  49.978  0.00  0.00    -0.241 NA
ATOM      4  C   UNL d   1      58.392  49.633  50.290  0.00  0.00     0.101 A 
ATOM      5  C   UNL d   1      59.944  49.660  50.774  0.00  0.00     0.099 A 
ATOM      6  C   UNL d   1      59.501  49.650  52.128  0.00  0.00     0.021 A 
ATOM      7  C   UNL d   1      60.298  49.664  52.392  0.00  0.00     0.002 A 
ATOM      8  C   UNL d   1      60.909  49.676  51.838  0.00  0.00     0.002 A 
ATOM      9  C   UNL d   1      60.722  49.674  51.021  0.00  0.00     0.021 A 
ATOM     10  C   UNL d   1      59.003  49.645  49.736  0.00  0.00     0.118 A 
ATOM     11  C   UNL d   1      60.480  49.666  53.208  0.00  0.00     0.000 C 
ATOM     12  C   UNL d   1      61.701  49.690  52.101  0.00  0.00     0.000 C 
ENDROOT
BRANCH   4  13
ATOM     13  C   UNL d   1      57.613  49.619  50.046  0.00  0.00     0.019 A 
ATOM     14  C   UNL d   1      57.427  49.673  49.249  0.00  0.00     0.002 A 
ATOM     15  C   UNL d   1      56.620  49.660  48.982  0.00  0.00     0.000 A 
ATOM     16  C   UNL d   1      56.038  49.590  49.568  0.00  0.00     0.000 A 
ATOM     17  C   UNL d   1      56.224  49.536  50.365  0.00  0.00     0.000 A 
ATOM     18  C   UNL d   1      57.000  49.550  50.609  0.00  0.00     0.002 A 
ENDBRANCH   4  13
TORSDOF 1
ENDMDL
