MODEL 1
REMARK VINA RESULT:      -3.3      0.000      0.000
REMARK  3 active torsions:
REMARK  status: ('A' for Active; 'I' for Inactive)
REMARK    1  A    between atoms: N_10  and  C_3 
REMARK    2  A    between atoms: C_15  and  N_4 
REMARK    3  A    between atoms: C_20  and  C_15 
ROOT
ATOM      1  C   UNL d   1      58.055   0.681  32.363  0.00  0.00     0.191 A 
ATOM      2  C   UNL d   1      57.472   0.680  31.773  0.00  0.00     0.173 A 
ATOM      3  C   UNL d   1      56.870   0.680  32.965  0.00  0.00     0.738 A 
ATOM      4  N   UNL d   1      58.493   0.681  30.777  0.00  0.00    -0.224 N 
ATOM      5  N   UNL d   1      57.682   0.680  33.097  0.00  0.00    -0.041 NA
ATOM      6  N   UNL d   1      58.852   0.681  32.161  0.00  0.00    -0.240 N 
ATOM      7  C   UNL d   1      59.072   0.681  31.367  0.00  0.00     0.343 A 
ATOM      8  C   UNL d   1      57.695   0.681  30.981  0.00  0.00     0.288 A 
ATOM      9  N   UNL d   1      56.737   0.680  32.149  0.00  0.00    -0.130 N 
ATOM     10  O   UNL d   1      59.871   0.682  31.162  0.00  0.00    -0.245 OA
ATOM     11  O   UNL d   1      57.117   0.681  30.391  0.00  0.00    -0.265 OA
ATOM     12  C   UNL d   1      59.430   0.681  32.751  0.00  0.00     0.105 C 
ATOM     13  C   UNL d   1      56.003   0.680  31.776  0.00  0.00     0.118 C 
ENDROOT
BRANCH   4  14
ATOM     14  C   UNL d   1      58.717   0.682  29.980  0.00  0.00     0.087 C 
BRANCH  14  15
ATOM     15  C   UNL d   1      58.980  -0.014  29.625  0.00  0.00     0.019 A 
ATOM     16  C   UNL d   1      59.721  -0.032  29.243  0.00  0.00     0.014 A 
ATOM     17  C   UNL d   1      59.985  -0.728  28.888  0.00  0.00     0.068 A 
ATOM     18 CL   UNL d   1      60.718  -0.744  28.511  0.00  0.00    -0.082 Cl
ATOM     19  C   UNL d   1      59.520  -1.401  28.911  0.00  0.00     0.068 A 
ATOM     20  C   UNL d   1      58.774  -1.384  29.295  0.00  0.00     0.012 A 
ATOM     21 CL   UNL d   1      59.784  -2.096  28.556  0.00  0.00    -0.082 Cl
ATOM     22  C   UNL d   1      58.518  -0.684  29.647  0.00  0.00     0.002 A 
ENDBRANCH  14  15
ENDBRANCH   4  14
BRANCH   3  23
ATOM     23  N   UNL d   1      56.285   0.679  33.549  0.00  0.00    -0.059 N 
ATOM     24  N   UNL d   1      55.473   0.678  33.417  0.00  0.00    -0.151 NA
ATOM     25  C   UNL d   1      55.093   0.678  34.156  0.00  0.00     0.103 A 
ATOM     26  C   UNL d   1      54.274   0.677  34.281  0.00  0.00     0.022 C 
ATOM     27  C   UNL d   1      55.681   0.680  34.738  0.00  0.00     0.041 A 
ATOM     28  C   UNL d   1      56.413   0.680  34.359  0.00  0.00     0.102 A 
ATOM     29  C   UNL d   1      57.150   0.682  34.735  0.00  0.00     0.021 C 
ENDBRANCH   3  23
TORSDOF 3
ENDMDL
MODEL 2
REMARK VINA RESULT:      -0.6      2.437      5.124
REMARK  3 active torsions:
REMARK  status: ('A' for Active; 'I' for Inactive)
REMARK    1  A    between atoms: N_10  and  C_3 
REMARK    2  A    between atoms: C_15  and  N_4 
REMARK    3  A    between atoms: C_20  and  C_15 
ROOT
ATOM      1  C   UNL d   1      59.136  -0.291  31.015  0.00  0.00     0.191 A 
ATOM      2  C   UNL d   1      58.515  -0.389  30.473  0.00  0.00     0.173 A 
ATOM      3  C   UNL d   1      59.631  -0.885  29.934  0.00  0.00     0.738 A 
ATOM      4  N   UNL d   1      57.623   0.228  31.400  0.00  0.00    -0.224 N 
ATOM      5  N   UNL d   1      59.823  -0.597  30.681  0.00  0.00    -0.041 NA
ATOM      6  N   UNL d   1      59.001   0.064  31.743  0.00  0.00    -0.240 N 
ATOM      7  C   UNL d   1      58.243   0.324  31.937  0.00  0.00     0.343 A 
ATOM      8  C   UNL d   1      57.760  -0.128  30.669  0.00  0.00     0.288 A 
ATOM      9  N   UNL d   1      58.825  -0.758  29.802  0.00  0.00    -0.130 N 
ATOM     10  O   UNL d   1      58.105   0.681  32.668  0.00  0.00    -0.245 OA
ATOM     11  O   UNL d   1      57.140  -0.223  30.132  0.00  0.00    -0.265 OA
ATOM     12  C   UNL d   1      59.621   0.160  32.280  0.00  0.00     0.105 C 
ATOM     13  C   UNL d   1      58.404  -0.962  29.125  0.00  0.00     0.118 C 
ENDROOT
BRANCH   4  14
ATOM     14  C   UNL d   1      56.862   0.491  31.596  0.00  0.00     0.087 C 
BRANCH  14  15
ATOM     15  C   UNL d   1      56.425   0.093  32.170  0.00  0.00     0.019 A 
ATOM     16  C   UNL d   1      56.028   0.525  32.763  0.00  0.00     0.014 A 
ATOM     17  C   UNL d   1      55.589   0.127  33.338  0.00  0.00     0.068 A 
ATOM     18 CL   UNL d   1      55.198   0.554  33.923  0.00  0.00    -0.082 Cl
ATOM     19  C   UNL d   1      55.544  -0.690  33.326  0.00  0.00     0.068 A 
ATOM     20  C   UNL d   1      55.943  -1.125  32.730  0.00  0.00     0.012 A 
ATOM     21 CL   UNL d   1      55.106  -1.087  33.900  0.00  0.00    -0.082 Cl
ATOM     22  C   UNL d   1      56.379  -0.719  32.158  0.00  0.00     0.002 A 
ENDBRANCH  14  15
ENDBRANCH   4  14
BRANCH   3  23
ATOM     23  N   UNL d   1      60.156  -1.241  29.404  0.00  0.00    -0.059 N 
ATOM     24  N   UNL d   1      60.274  -2.051  29.314  0.00  0.00    -0.151 NA
ATOM     25  C   UNL d   1      60.848  -2.162  28.723  0.00  0.00     0.103 A 
ATOM     26  C   UNL d   1      61.133  -2.892  28.456  0.00  0.00     0.022 C 
ATOM     27  C   UNL d   1      61.077  -1.414  28.455  0.00  0.00     0.041 A 
ATOM     28  C   UNL d   1      60.649  -0.851  28.877  0.00  0.00     0.102 A 
ATOM     29  C   UNL d   1      60.708  -0.031  28.783  0.00  0.00     0.021 C 
ENDBRANCH   3  23
TORSDOF 3
ENDMDL
