MODEL 1
REMARK VINA RESULT:      91.7      0.000      0.000
REMARK  3 active torsions:
REMARK  status: ('A' for Active; 'I' for Inactive)
REMARK    1  A    between atoms: N_6  and  C_1 
REMARK    2  A    between atoms: C_9  and  C_2 
REMARK       I    between atoms: C_8  and  N_6 
REMARK       I    between atoms: C_11  and  N_7 
REMARK    3  A    between atoms: C_17  and  C_8 
ROOT
ATOM      1  C   UNL d   1      60.261  48.191  50.376  0.00  0.00     0.119 A 
ATOM      2  C   UNL d   1      60.193  48.918  50.755  0.00  0.00     0.084 A 
ATOM      3  C   UNL d   1      58.966  48.433  50.573  0.00  0.00     0.049 A 
ATOM      4  C   UNL d   1      59.387  49.069  50.877  0.00  0.00     0.016 A 
ATOM      5  S   UNL d   1      59.499  47.887  50.262  0.00  0.00    -0.066 SA
ATOM      6  N   UNL d   1      57.739  49.067  50.968  0.00  0.00    -0.272 N 
ATOM      7  C   UNL d   1      58.131  48.437  50.621  0.00  0.00     0.089 A 
ATOM      8  C   UNL d   1      56.917  49.078  51.018  0.00  0.00     0.265 C 
ATOM      9  C   UNL d   1      58.999  49.708  51.228  0.00  0.00     0.020 A 
ATOM     10  C   UNL d   1      58.176  49.707  51.273  0.00  0.00     0.083 A 
ATOM     11  O   UNL d   1      56.484  48.444  50.716  0.00  0.00    -0.267 OA
ATOM     12  C   UNL d   1      56.524  49.708  51.365  0.00  0.00     0.066 C 
ENDROOT
BRANCH   1  13
ATOM     13  N   UNL d   1      60.969  47.818  50.145  0.00  0.00    -0.201 NA
ATOM     14  C   UNL d   1      60.994  46.993  50.097  0.00  0.00     0.280 C 
ATOM     15  O   UNL d   1      60.334  46.534  50.272  0.00  0.00    -0.265 OA
BRANCH  14  16
ATOM     16  C   UNL d   1      61.695  46.623  49.867  0.00  0.00     0.058 A 
ATOM     17  C   UNL d   1      61.674  45.862  49.545  0.00  0.00     0.005 A 
ATOM     18  C   UNL d   1      62.375  45.492  49.315  0.00  0.00     0.000 A 
ATOM     19  C   UNL d   1      63.108  45.879  49.405  0.00  0.00     0.000 A 
ATOM     20  C   UNL d   1      63.114  46.638  49.729  0.00  0.00     0.000 A 
ATOM     21  C   UNL d   1      62.413  47.008  49.958  0.00  0.00     0.005 A 
ENDBRANCH  14  16
ENDBRANCH   1  13
BRANCH   2  22
ATOM     22  C   UNL d   1      60.821  49.401  50.969  0.00  0.00     0.299 C 
ATOM     23  O   UNL d   1      61.312  49.708  50.380  0.00  0.00    -0.264 OA
ATOM     24  N   UNL d   1      60.963  49.578  51.761  0.00  0.00    -0.102 N 
ENDBRANCH   2  22
TORSDOF 3
ENDMDL
MODEL 2
REMARK VINA RESULT:      92.0      0.976      4.549
REMARK  3 active torsions:
REMARK  status: ('A' for Active; 'I' for Inactive)
REMARK    1  A    between atoms: N_6  and  C_1 
REMARK    2  A    between atoms: C_9  and  C_2 
REMARK       I    between atoms: C_8  and  N_6 
REMARK       I    between atoms: C_11  and  N_7 
REMARK    3  A    between atoms: C_17  and  C_8 
ROOT
ATOM      1  C   UNL d   1      59.576  48.368  50.682  0.00  0.00     0.119 A 
ATOM      2  C   UNL d   1      60.334  48.631  50.862  0.00  0.00     0.084 A 
ATOM      3  C   UNL d   1      60.442  47.457  50.244  0.00  0.00     0.049 A 
ATOM      4  C   UNL d   1      60.874  48.064  50.590  0.00  0.00     0.016 A 
ATOM      5  S   UNL d   1      59.641  47.637  50.298  0.00  0.00    -0.066 SA
ATOM      6  N   UNL d   1      61.667  46.768  49.944  0.00  0.00    -0.272 N 
ATOM      7  C   UNL d   1      60.849  46.802  49.919  0.00  0.00     0.089 A 
ATOM      8  C   UNL d   1      62.074  46.127  49.625  0.00  0.00     0.265 C 
ATOM      9  C   UNL d   1      61.698  48.037  50.619  0.00  0.00     0.020 A 
ATOM     10  C   UNL d   1      62.095  47.390  50.297  0.00  0.00     0.083 A 
ATOM     11  O   UNL d   1      61.650  45.511  49.276  0.00  0.00    -0.267 OA
ATOM     12  C   UNL d   1      62.893  46.092  49.651  0.00  0.00     0.066 C 
ENDROOT
BRANCH   1  13
ATOM     13  N   UNL d   1      58.862  48.762  50.853  0.00  0.00    -0.201 NA
ATOM     14  C   UNL d   1      58.170  48.532  50.464  0.00  0.00     0.280 C 
ATOM     15  O   UNL d   1      58.173  47.922  49.911  0.00  0.00    -0.265 OA
BRANCH  14  16
ATOM     16  C   UNL d   1      57.463  48.922  50.633  0.00  0.00     0.058 A 
ATOM     17  C   UNL d   1      56.961  49.152  50.018  0.00  0.00     0.005 A 
ATOM     18  C   UNL d   1      56.254  49.542  50.187  0.00  0.00     0.000 A 
ATOM     19  C   UNL d   1      56.038  49.708  50.975  0.00  0.00     0.000 A 
ATOM     20  C   UNL d   1      56.549  49.473  51.579  0.00  0.00     0.000 A 
ATOM     21  C   UNL d   1      57.256  49.083  51.410  0.00  0.00     0.005 A 
ENDBRANCH  14  16
ENDBRANCH   1  13
BRANCH   2  22
ATOM     22  C   UNL d   1      60.513  49.335  51.245  0.00  0.00     0.299 C 
ATOM     23  O   UNL d   1      59.957  49.666  51.759  0.00  0.00    -0.264 OA
ATOM     24  N   UNL d   1      61.236  49.708  51.120  0.00  0.00    -0.102 N 
ENDBRANCH   2  22
TORSDOF 3
ENDMDL
