MODEL 1
REMARK VINA RESULT:      61.5      0.000      0.000
REMARK  5 active torsions:
REMARK  status: ('A' for Active; 'I' for Inactive)
REMARK    1  A    between atoms: N_19  and  C_6 
REMARK    2  A    between atoms: N_15  and  C_21 
REMARK    3  A    between atoms: C_25  and  N_19 
REMARK    4  A    between atoms: C_21  and  C_22 
REMARK    5  A    between atoms: C_22  and  C_25 
ROOT
ATOM      1  N   UNL d   1      59.374  49.451  50.739  0.00  0.00    -0.183 N 
ATOM      2  C   UNL d   1      58.612  49.537  51.042  0.00  0.00     0.169 A 
ATOM      3  C   UNL d   1      57.967  49.539  50.547  0.00  0.00     0.073 A 
ATOM      4  C   UNL d   1      58.089  49.455  49.747  0.00  0.00     0.185 A 
ATOM      5  N   UNL d   1      58.851  49.369  49.445  0.00  0.00    -0.142 NA
ATOM      6  C   UNL d   1      60.007  49.451  51.250  0.00  0.00     0.218 A 
ATOM      7  N   UNL d   1      58.502  49.620  51.847  0.00  0.00    -0.226 NA
ATOM      8  C   UNL d   1      57.212  49.624  50.847  0.00  0.00     0.007 A 
ATOM      9  N   UNL d   1      57.445  49.455  49.233  0.00  0.00    -0.225 NA
ATOM     10  C   UNL d   1      59.903  49.533  52.047  0.00  0.00     0.071 A 
ATOM     11  C   UNL d   1      56.567  49.626  50.351  0.00  0.00     0.019 A 
ATOM     12  C   UNL d   1      59.140  49.619  52.350  0.00  0.00     0.087 A 
ATOM     13  C   UNL d   1      56.683  49.541  49.535  0.00  0.00     0.083 A 
ATOM     14  C   UNL d   1      57.103  49.708  51.655  0.00  0.00     0.000 C 
ATOM     15  C   UNL d   1      59.029  49.706  53.187  0.00  0.00     0.021 C 
ATOM     16  C   UNL d   1      56.045  49.542  49.036  0.00  0.00     0.021 C 
ENDROOT
BRANCH   6  17
ATOM     17  N   UNL d   1      60.791  49.362  50.929  0.00  0.00    -0.380 NA
BRANCH  17  18
ATOM     18  C   UNL d   1      61.540  49.252  50.552  0.00  0.00     0.164 C 
BRANCH  18  19
ATOM     19  C   UNL d   1      61.832  48.475  50.419  0.00  0.00     0.054 C 
BRANCH  19  20
ATOM     20  C   UNL d   1      61.400  47.814  50.694  0.00  0.00     0.084 C 
BRANCH  20  21
ATOM     21  N   UNL d   1      61.461  47.069  50.298  0.00  0.00    -0.285 N 
ATOM     22  C   UNL d   1      61.603  46.949  49.481  0.00  0.00     0.183 A 
ATOM     23  N   UNL d   1      61.619  46.107  49.338  0.00  0.00    -0.222 NA
ATOM     24  C   UNL d   1      61.486  45.712  50.075  0.00  0.00     0.120 A 
ATOM     25  C   UNL d   1      61.387  46.309  50.677  0.00  0.00     0.102 A 
ENDBRANCH  20  21
ENDBRANCH  19  20
ENDBRANCH  18  19
ENDBRANCH  17  18
ENDBRANCH   6  17
TORSDOF 5
ENDMDL
