MODEL 1
REMARK VINA RESULT:      33.0      0.000      0.000
REMARK  5 active torsions:
REMARK  status: ('A' for Active; 'I' for Inactive)
REMARK    1  A    between atoms: C_2  and  C_1 
REMARK       I    between atoms: N_5  and  C_1 
REMARK    2  A    between atoms: C_3  and  C_14 
REMARK    3  A    between atoms: C_12  and  N_5 
REMARK    4  A    between atoms: O_13  and  C_9 
REMARK    5  A    between atoms: C_14  and  C_12 
ROOT
ATOM      1  C   UNL d   1     -50.012  25.590  33.454  0.00  0.00     0.279 C 
ATOM      2  O   UNL d   1     -49.293  25.207  33.499  0.00  0.00    -0.265 OA
ATOM      3  N   UNL d   1     -50.715  25.177  33.359  0.00  0.00    -0.206 NA
ENDROOT
BRANCH   1   4
ATOM      4  C   UNL d   1     -50.034  26.414  33.506  0.00  0.00     0.058 A 
ATOM      5  C   UNL d   1     -49.345  26.830  33.572  0.00  0.00     0.007 A 
ATOM      6  C   UNL d   1     -49.381  27.665  33.624  0.00  0.00     0.024 A 
ATOM      7  C   UNL d   1     -50.076  28.043  33.608  0.00  0.00     0.094 A 
ATOM      8  C   UNL d   1     -50.784  27.619  33.540  0.00  0.00     0.024 A 
ATOM      9  C   UNL d   1     -50.766  26.797  33.488  0.00  0.00     0.007 A 
BRANCH   7  10
ATOM     10  O   UNL d   1     -50.102  28.848  33.659  0.00  0.00    -0.328 OA
ATOM     11  C   UNL d   1     -50.728  29.266  33.310  0.00  0.00     0.181 C 
ENDBRANCH   7  10
ENDBRANCH   1   4
BRANCH   3  12
ATOM     12  C   UNL d   1     -50.680  24.352  33.308  0.00  0.00     0.102 C 
BRANCH  12  13
ATOM     13  C   UNL d   1     -51.166  23.892  33.748  0.00  0.00     0.021 C 
BRANCH  13  14
ATOM     14  C   UNL d   1     -51.974  23.892  33.620  0.00  0.00     0.002 A 
ATOM     15  C   UNL d   1     -52.404  23.197  33.669  0.00  0.00     0.000 A 
ATOM     16  C   UNL d   1     -53.220  23.198  33.540  0.00  0.00     0.000 A 
ATOM     17  C   UNL d   1     -53.623  23.894  33.360  0.00  0.00     0.000 A 
ATOM     18  C   UNL d   1     -53.183  24.599  33.311  0.00  0.00     0.000 A 
ATOM     19  C   UNL d   1     -52.358  24.589  33.443  0.00  0.00     0.000 A 
ENDBRANCH  13  14
ENDBRANCH  12  13
ENDBRANCH   3  12
TORSDOF 5
ENDMDL
