MODEL 1
REMARK VINA RESULT:      20.5      0.000      0.000
REMARK  3 active torsions:
REMARK  status: ('A' for Active; 'I' for Inactive)
REMARK    1  A    between atoms: C_3  and  C_1 
REMARK    2  A    between atoms: C_5  and  C_3 
REMARK    3  A    between atoms: C_10  and  C_5 
ROOT
ATOM      1  C   UNL d   1      14.171  12.226  -1.594  0.00  0.00     0.109 C 
ATOM      2  C   UNL d   1      13.654  12.002  -0.991  0.00  0.00     0.105 C 
ATOM      3  N   UNL d   1      13.135  11.779  -0.394  0.00  0.00    -0.191 NA
ENDROOT
BRANCH   1   4
ATOM      4  C   UNL d   1      13.889  12.308  -2.366  0.00  0.00     0.192 A 
ATOM      5  N   UNL d   1      14.030  11.780  -2.996  0.00  0.00    -0.220 NA
ATOM      6  C   UNL d   1      13.647  12.076  -3.661  0.00  0.00     0.106 A 
ATOM      7  C   UNL d   1      13.593  11.789  -4.439  0.00  0.00     0.021 A 
ATOM      8  C   UNL d   1      13.269  12.779  -3.452  0.00  0.00     0.119 A 
ATOM      9  C   UNL d   1      13.160  12.213  -5.002  0.00  0.00     0.002 A 
ATOM     10  C   UNL d   1      12.781  12.917  -4.798  0.00  0.00     0.002 A 
ATOM     11  C   UNL d   1      12.832  13.204  -4.027  0.00  0.00     0.026 A 
ATOM     12  O   UNL d   1      13.420  12.921  -2.653  0.00  0.00    -0.287 OA
ENDBRANCH   1   4
BRANCH   1  13
ATOM     13  C   UNL d   1      14.961  12.366  -1.428  0.00  0.00     0.014 C 
BRANCH  13  14
ATOM     14  C   UNL d   1      15.175  13.024  -0.978  0.00  0.00     0.004 A 
ATOM     15  C   UNL d   1      14.597  13.551  -0.724  0.00  0.00     0.042 A 
ATOM     16  C   UNL d   1      14.815  14.208  -0.275  0.00  0.00     0.196 A 
ATOM     17  O   UNL d   1      14.238  14.742  -0.016  0.00  0.00    -0.287 OA
ATOM     18  C   UNL d   1      15.603  14.340  -0.080  0.00  0.00     0.042 A 
ATOM     19  C   UNL d   1      16.183  13.802  -0.341  0.00  0.00     0.003 A 
ATOM     20  C   UNL d   1      15.969  13.144  -0.791  0.00  0.00     0.000 A 
ENDBRANCH  13  14
ENDBRANCH   1  13
TORSDOF 3
ENDMDL
MODEL 2
REMARK VINA RESULT:      22.9      1.319      4.343
REMARK  3 active torsions:
REMARK  status: ('A' for Active; 'I' for Inactive)
REMARK    1  A    between atoms: C_3  and  C_1 
REMARK    2  A    between atoms: C_5  and  C_3 
REMARK    3  A    between atoms: C_10  and  C_5 
ROOT
ATOM      1  C   UNL d   1      13.377  12.666  -3.472  0.00  0.00     0.109 C 
ATOM      2  C   UNL d   1      13.258  13.432  -3.751  0.00  0.00     0.105 C 
ATOM      3  N   UNL d   1      13.141  14.199  -4.023  0.00  0.00    -0.191 NA
ENDROOT
BRANCH   1   4
ATOM      4  C   UNL d   1      13.705  12.549  -2.723  0.00  0.00     0.192 A 
ATOM      5  N   UNL d   1      13.372  12.091  -2.110  0.00  0.00    -0.220 NA
ATOM      6  C   UNL d   1      13.881  12.127  -1.465  0.00  0.00     0.106 A 
ATOM      7  C   UNL d   1      13.838  11.784  -0.710  0.00  0.00     0.021 A 
ATOM      8  C   UNL d   1      14.526  12.600  -1.669  0.00  0.00     0.119 A 
ATOM      9  C   UNL d   1      14.445  11.921  -0.163  0.00  0.00     0.002 A 
ATOM     10  C   UNL d   1      15.091  12.393  -0.363  0.00  0.00     0.002 A 
ATOM     11  C   UNL d   1      15.137  12.735  -1.111  0.00  0.00     0.026 A 
ATOM     12  O   UNL d   1      14.415  12.860  -2.445  0.00  0.00    -0.287 OA
ENDBRANCH   1   4
BRANCH   1  13
ATOM     13  C   UNL d   1      13.172  12.022  -3.936  0.00  0.00     0.014 C 
BRANCH  13  14
ATOM     14  C   UNL d   1      13.347  12.025  -4.742  0.00  0.00     0.004 A 
ATOM     15  C   UNL d   1      14.093  12.260  -4.997  0.00  0.00     0.042 A 
ATOM     16  C   UNL d   1      14.264  12.262  -5.804  0.00  0.00     0.196 A 
ATOM     17  O   UNL d   1      15.013  12.498  -6.068  0.00  0.00    -0.287 OA
ATOM     18  C   UNL d   1      13.698  12.030  -6.354  0.00  0.00     0.042 A 
ATOM     19  C   UNL d   1      12.945  11.792  -6.087  0.00  0.00     0.003 A 
ATOM     20  C   UNL d   1      12.769  11.790  -5.281  0.00  0.00     0.000 A 
ENDBRANCH  13  14
ENDBRANCH   1  13
TORSDOF 3
ENDMDL
