MODEL 1
REMARK VINA RESULT:      61.6      0.000      0.000
REMARK  6 active torsions:
REMARK  status: ('A' for Active; 'I' for Inactive)
REMARK    1  A    between atoms: C_10  and  N_6 
REMARK    2  A    between atoms: S_14  and  C_9 
REMARK    3  A    between atoms: C_17  and  C_10 
REMARK    4  A    between atoms: N_13  and  C_25 
REMARK    5  A    between atoms: C_20  and  S_14 
REMARK    6  A    between atoms: C_25  and  C_20 
ROOT
ATOM      1  C   UNL d   1      14.569  13.779  -1.910  0.00  0.00     0.174 A 
ATOM      2  C   UNL d   1      14.049  13.160  -2.101  0.00  0.00     0.158 A 
ATOM      3  N   UNL d   1      14.504  14.355  -2.497  0.00  0.00    -0.203 NA
ATOM      4  N   UNL d   1      15.031  13.731  -1.225  0.00  0.00    -0.240 N 
ATOM      5  N   UNL d   1      14.456  12.455  -0.925  0.00  0.00    -0.223 N 
ATOM      6  N   UNL d   1      13.666  13.358  -2.805  0.00  0.00    -0.279 N 
ATOM      7  C   UNL d   1      14.977  13.074  -0.735  0.00  0.00     0.343 A 
ATOM      8  C   UNL d   1      13.996  12.499  -1.605  0.00  0.00     0.287 A 
ATOM      9  C   UNL d   1      13.952  14.095  -3.042  0.00  0.00     0.181 A 
ATOM     10  O   UNL d   1      15.442  13.028  -0.046  0.00  0.00    -0.245 OA
ATOM     11  O   UNL d   1      13.478  11.883  -1.794  0.00  0.00    -0.265 OA
ATOM     12  C   UNL d   1      15.549  14.347  -1.035  0.00  0.00     0.105 C 
ATOM     13  C   UNL d   1      14.402  11.796  -0.433  0.00  0.00     0.107 C 
ENDROOT
BRANCH   9  14
ATOM     14  S   UNL d   1      13.716  14.509  -3.728  0.00  0.00    -0.048 SA
BRANCH  14  15
ATOM     15  C   UNL d   1      13.972  15.278  -3.852  0.00  0.00     0.057 C 
BRANCH  15  16
ATOM     16  C   UNL d   1      14.388  15.462  -4.540  0.00  0.00     0.087 C 
BRANCH  16  17
ATOM     17  N   UNL d   1      14.598  16.242  -4.686  0.00  0.00    -0.302 N 
ATOM     18  C   UNL d   1      14.171  16.686  -5.228  0.00  0.00     0.080 A 
ATOM     19  C   UNL d   1      14.381  17.466  -5.374  0.00  0.00     0.019 A 
ATOM     20  C   UNL d   1      15.016  17.800  -4.980  0.00  0.00     0.003 A 
ATOM     21  C   UNL d   1      15.443  17.357  -4.438  0.00  0.00     0.019 A 
ATOM     22  C   UNL d   1      15.237  16.575  -4.287  0.00  0.00     0.080 A 
ENDBRANCH  16  17
ENDBRANCH  15  16
ENDBRANCH  14  15
ENDBRANCH   9  14
BRANCH   6  23
ATOM     23  C   UNL d   1      13.102  12.898  -3.193  0.00  0.00     0.082 C 
BRANCH  23  24
ATOM     24  C   UNL d   1      13.245  12.612  -3.959  0.00  0.00     0.018 A 
ATOM     25  C   UNL d   1      12.782  12.895  -4.583  0.00  0.00     0.002 A 
ATOM     26  C   UNL d   1      12.915  12.618  -5.347  0.00  0.00     0.011 A 
ATOM     27  C   UNL d   1      13.512  12.059  -5.484  0.00  0.00     0.058 A 
ATOM     28  C   UNL d   1      13.975  11.779  -4.848  0.00  0.00     0.011 A 
ATOM     29 CL   UNL d   1      13.649  11.779  -6.248  0.00  0.00    -0.082 Cl
ATOM     30  C   UNL d   1      13.832  12.063  -4.089  0.00  0.00     0.002 A 
ENDBRANCH  23  24
ENDBRANCH   6  23
TORSDOF 6
ENDMDL
