MODEL 1
REMARK VINA RESULT:      -3.5      0.000      0.000
REMARK  5 active torsions:
REMARK  status: ('A' for Active; 'I' for Inactive)
REMARK    1  A    between atoms: C_2  and  S_1 
REMARK    2  A    between atoms: N_3  and  C_14 
REMARK    3  A    between atoms: C_9  and  N_3 
REMARK    4  A    between atoms: N_8  and  C_7 
REMARK    5  A    between atoms: C_15  and  C_9 
ROOT
ATOM      1  N   UNL d   1      33.033  19.866 -21.993  0.00  0.00    -0.244 NA
ENDROOT
BRANCH   1   2
ATOM      2  C   UNL d   1      32.883  20.623 -21.688  0.00  0.00     0.082 A 
ATOM      3  C   UNL d   1      33.187  21.277 -22.091  0.00  0.00     0.020 A 
ATOM      4  C   UNL d   1      33.036  22.028 -21.786  0.00  0.00     0.015 A 
ATOM      5  C   UNL d   1      32.600  22.123 -21.106  0.00  0.00     0.107 A 
ATOM      6  C   UNL d   1      32.297  21.470 -20.705  0.00  0.00     0.015 A 
ATOM      7  C   UNL d   1      32.447  20.718 -21.009  0.00  0.00     0.020 A 
BRANCH   5   8
ATOM      8  S   UNL d   1      32.452  22.886 -20.803  0.00  0.00     0.302 S 
ATOM      9  O   UNL d   1      31.774  22.940 -21.280  0.00  0.00    -0.197 OA
ATOM     10  O   UNL d   1      32.294  23.644 -20.509  0.00  0.00    -0.197 OA
ATOM     11  N   UNL d   1      33.123  22.832 -20.332  0.00  0.00    -0.043 N 
ENDBRANCH   5   8
ENDBRANCH   1   2
BRANCH   1  12
ATOM     12  C   UNL d   1      32.957  19.716 -22.788  0.00  0.00     0.099 C 
BRANCH  12  13
ATOM     13  C   UNL d   1      32.891  18.943 -23.074  0.00  0.00     0.019 A 
ATOM     14  C   UNL d   1      33.228  18.296 -22.658  0.00  0.00     0.003 A 
ATOM     15  C   UNL d   1      33.146  17.540 -22.967  0.00  0.00     0.018 A 
ATOM     16  C   UNL d   1      32.751  17.401 -23.663  0.00  0.00     0.064 A 
ATOM     17  C   UNL d   1      32.414  18.048 -24.079  0.00  0.00     0.018 A 
ATOM     18  C   UNL d   1      32.480  18.822 -23.793  0.00  0.00     0.003 A 
BRANCH  16  19
ATOM     19  N   UNL d   1      32.694  16.625 -23.935  0.00  0.00    -0.301 N 
ATOM     20  C   UNL d   1      32.106  16.120 -23.629  0.00  0.00     0.100 C 
ATOM     21  C   UNL d   1      33.222  16.373 -24.502  0.00  0.00     0.100 C 
ENDBRANCH  16  19
ENDBRANCH  12  13
ENDBRANCH   1  12
TORSDOF 5
ENDMDL
MODEL 2
REMARK VINA RESULT:      -3.1      2.772      5.326
REMARK  5 active torsions:
REMARK  status: ('A' for Active; 'I' for Inactive)
REMARK    1  A    between atoms: C_2  and  S_1 
REMARK    2  A    between atoms: N_3  and  C_14 
REMARK    3  A    between atoms: C_9  and  N_3 
REMARK    4  A    between atoms: N_8  and  C_7 
REMARK    5  A    between atoms: C_15  and  C_9 
ROOT
ATOM      1  N   UNL d   1      32.926  19.745 -22.805  0.00  0.00    -0.244 NA
ENDROOT
BRANCH   1   2
ATOM      2  C   UNL d   1      32.879  18.960 -23.068  0.00  0.00     0.082 A 
ATOM      3  C   UNL d   1      32.463  18.801 -23.763  0.00  0.00     0.020 A 
ATOM      4  C   UNL d   1      32.418  18.019 -24.021  0.00  0.00     0.015 A 
ATOM      5  C   UNL d   1      32.774  17.420 -23.603  0.00  0.00     0.107 A 
ATOM      6  C   UNL d   1      33.190  17.579 -22.909  0.00  0.00     0.015 A 
ATOM      7  C   UNL d   1      33.236  18.361 -22.649  0.00  0.00     0.020 A 
BRANCH   5   8
ATOM      8  S   UNL d   1      32.725  16.631 -23.871  0.00  0.00     0.302 S 
ATOM      9  O   UNL d   1      32.293  16.432 -23.191  0.00  0.00    -0.197 OA
ATOM     10  O   UNL d   1      32.670  15.845 -24.126  0.00  0.00    -0.197 OA
ATOM     11  N   UNL d   1      33.153  16.830 -24.543  0.00  0.00    -0.043 N 
ENDBRANCH   5   8
ENDBRANCH   1   2
BRANCH   1  12
ATOM     12  C   UNL d   1      32.985  19.914 -22.012  0.00  0.00     0.099 C 
BRANCH  12  13
ATOM     13  C   UNL d   1      32.899  20.688 -21.731  0.00  0.00     0.019 A 
ATOM     14  C   UNL d   1      33.055  21.349 -22.225  0.00  0.00     0.003 A 
ATOM     15  C   UNL d   1      32.961  22.104 -21.917  0.00  0.00     0.018 A 
ATOM     16  C   UNL d   1      32.721  22.229 -21.151  0.00  0.00     0.064 A 
ATOM     17  C   UNL d   1      32.564  21.568 -20.658  0.00  0.00     0.018 A 
ATOM     18  C   UNL d   1      32.651  20.794 -20.939  0.00  0.00     0.003 A 
BRANCH  16  19
ATOM     19  N   UNL d   1      32.639  23.006 -20.886  0.00  0.00    -0.301 N 
ATOM     20  C   UNL d   1      32.139  23.532 -21.294  0.00  0.00     0.100 C 
ATOM     21  C   UNL d   1      33.057  23.235 -20.225  0.00  0.00     0.100 C 
ENDBRANCH  16  19
ENDBRANCH  12  13
ENDBRANCH   1  12
TORSDOF 5
ENDMDL
MODEL 3
REMARK VINA RESULT:      -0.8      2.619      5.298
REMARK  5 active torsions:
REMARK  status: ('A' for Active; 'I' for Inactive)
REMARK    1  A    between atoms: C_2  and  S_1 
REMARK    2  A    between atoms: N_3  and  C_14 
REMARK    3  A    between atoms: C_9  and  N_3 
REMARK    4  A    between atoms: N_8  and  C_7 
REMARK    5  A    between atoms: C_15  and  C_9 
ROOT
ATOM      1  N   UNL d   1      32.644  20.704 -21.842  0.00  0.00    -0.244 NA
ENDROOT
BRANCH   1   2
ATOM      2  C   UNL d   1      32.763  20.034 -22.317  0.00  0.00     0.082 A 
ATOM      3  C   UNL d   1      32.717  20.118 -23.137  0.00  0.00     0.020 A 
ATOM      4  C   UNL d   1      32.835  19.450 -23.606  0.00  0.00     0.015 A 
ATOM      5  C   UNL d   1      32.993  18.727 -23.270  0.00  0.00     0.107 A 
ATOM      6  C   UNL d   1      33.039  18.644 -22.451  0.00  0.00     0.015 A 
ATOM      7  C   UNL d   1      32.921  19.311 -21.981  0.00  0.00     0.020 A 
BRANCH   5   8
ATOM      8  S   UNL d   1      33.112  18.055 -23.750  0.00  0.00     0.302 S 
ATOM      9  O   UNL d   1      33.237  17.596 -23.071  0.00  0.00    -0.197 OA
ATOM     10  O   UNL d   1      33.232  17.382 -24.217  0.00  0.00    -0.197 OA
ATOM     11  N   UNL d   1      32.988  18.512 -24.422  0.00  0.00    -0.043 N 
ENDBRANCH   5   8
ENDBRANCH   1   2
BRANCH   1  12
ATOM     12  C   UNL d   1      32.378  20.629 -21.078  0.00  0.00     0.099 C 
BRANCH  12  13
ATOM     13  C   UNL d   1      32.523  21.216 -20.514  0.00  0.00     0.019 A 
ATOM     14  C   UNL d   1      33.111  21.114 -19.922  0.00  0.00     0.003 A 
ATOM     15  C   UNL d   1      33.232  21.715 -19.377  0.00  0.00     0.018 A 
ATOM     16  C   UNL d   1      32.801  22.404 -19.392  0.00  0.00     0.064 A 
ATOM     17  C   UNL d   1      32.214  22.506 -19.984  0.00  0.00     0.018 A 
ATOM     18  C   UNL d   1      32.068  21.917 -20.548  0.00  0.00     0.003 A 
BRANCH  16  19
ATOM     19  N   UNL d   1      32.958  22.980 -18.824  0.00  0.00    -0.301 N 
ATOM     20  C   UNL d   1      32.826  22.813 -18.019  0.00  0.00     0.100 C 
ATOM     21  C   UNL d   1      33.240  23.702 -19.072  0.00  0.00     0.100 C 
ENDBRANCH  16  19
ENDBRANCH  12  13
ENDBRANCH   1  12
TORSDOF 5
ENDMDL
