MODEL 1
REMARK VINA RESULT:      28.9      0.000      0.000
REMARK  1 active torsions:
REMARK  status: ('A' for Active; 'I' for Inactive)
REMARK    1  A    between atoms: C_15  and  C_6 
ROOT
ATOM      1  C   UNL d   1     -54.801-101.504 -37.904  0.00  0.00     0.087 A 
ATOM      2  C   UNL d   1     -54.793-100.468 -36.914  0.00  0.00     0.111 A 
ATOM      3  C   UNL d   1     -54.756-100.932 -38.500  0.00  0.00     0.109 A 
ATOM      4  C   UNL d   1     -54.826-102.307 -38.093  0.00  0.00     0.302 A 
ATOM      5  C   UNL d   1     -54.749 -99.899 -37.519  0.00  0.00     0.213 A 
ATOM      6  C   UNL d   1     -54.820-101.282 -37.110  0.00  0.00     0.020 A 
ATOM      7  O   UNL d   1     -54.731-100.136 -38.304  0.00  0.00    -0.287 OA
ATOM      8  C   UNL d   1     -54.738-101.160 -39.288  0.00  0.00     0.050 A 
ATOM      9  O   UNL d   1     -54.807-102.538 -38.897  0.00  0.00    -0.273 OA
ATOM     10  C   UNL d   1     -54.812-100.242 -36.123  0.00  0.00     0.105 C 
ATOM     11  C   UNL d   1     -54.764-101.969 -39.489  0.00  0.00     0.105 A 
ATOM     12  N   UNL d   1     -54.830-100.003 -35.329  0.00  0.00    -0.191 NA
ATOM     13  O   UNL d   1     -54.870-102.878 -37.498  0.00  0.00    -0.259 OA
ATOM     14  N   UNL d   1     -54.724 -99.096 -37.317  0.00  0.00    -0.120 N 
ATOM     15  C   UNL d   1     -54.745-102.203 -40.284  0.00  0.00     0.027 C 
ENDROOT
BRANCH   6  16
ATOM     16  C   UNL d   1     -54.863-101.845 -36.523  0.00  0.00     0.001 C 
ATOM     17  C   UNL d   1     -55.054-102.628 -36.705  0.00  0.00     0.000 C 
ATOM     18  C   UNL d   1     -54.716-101.638 -35.743  0.00  0.00     0.000 C 
ENDBRANCH   6  16
TORSDOF 1
ENDMDL
MODEL 2
REMARK VINA RESULT:      31.8      7.414      8.734
REMARK  1 active torsions:
REMARK  status: ('A' for Active; 'I' for Inactive)
REMARK    1  A    between atoms: C_15  and  C_6 
ROOT
ATOM      1  C   UNL d   1     -58.707 -98.803 -45.234  0.00  0.00     0.087 A 
ATOM      2  C   UNL d   1     -58.712 -98.801 -43.801  0.00  0.00     0.111 A 
ATOM      3  C   UNL d   1     -59.534 -98.781 -45.234  0.00  0.00     0.109 A 
ATOM      4  C   UNL d   1     -58.287 -98.816 -45.944  0.00  0.00     0.302 A 
ATOM      5  C   UNL d   1     -59.542 -98.779 -43.809  0.00  0.00     0.213 A 
ATOM      6  C   UNL d   1     -58.288 -98.813 -44.524  0.00  0.00     0.020 A 
ATOM      7  O   UNL d   1     -59.945 -98.769 -44.525  0.00  0.00    -0.287 OA
ATOM      8  C   UNL d   1     -59.944 -98.772 -45.945  0.00  0.00     0.050 A 
ATOM      9  O   UNL d   1     -58.706 -98.806 -46.667  0.00  0.00    -0.273 OA
ATOM     10  C   UNL d   1     -58.297 -98.811 -43.090  0.00  0.00     0.105 C 
ATOM     11  C   UNL d   1     -59.528 -98.784 -46.667  0.00  0.00     0.105 A 
ATOM     12  N   UNL d   1     -57.890 -98.820 -42.368  0.00  0.00    -0.191 NA
ATOM     13  O   UNL d   1     -57.461 -98.837 -45.943  0.00  0.00    -0.259 OA
ATOM     14  N   UNL d   1     -59.954 -98.767 -43.091  0.00  0.00    -0.120 N 
ATOM     15  C   UNL d   1     -59.940 -98.774 -47.387  0.00  0.00     0.027 C 
ENDROOT
BRANCH   6  16
ATOM     16  C   UNL d   1     -57.474 -98.835 -44.523  0.00  0.00     0.001 C 
ATOM     17  C   UNL d   1     -57.051 -98.762 -45.229  0.00  0.00     0.000 C 
ATOM     18  C   UNL d   1     -57.065 -98.929 -43.818  0.00  0.00     0.000 C 
ENDBRANCH   6  16
TORSDOF 1
ENDMDL
