MODEL 1
REMARK VINA RESULT:      64.1      0.000      0.000
REMARK  4 active torsions:
REMARK  status: ('A' for Active; 'I' for Inactive)
REMARK    1  A    between atoms: S_13  and  C_7 
REMARK       I    between atoms: N_10  and  C_12 
REMARK    2  A    between atoms: C_25  and  C_11 
REMARK    3  A    between atoms: C_12  and  C_16 
REMARK    4  A    between atoms: C_16  and  S_13 
ROOT
ATOM      1  N   UNL d   1     -57.647 -98.815 -45.111  0.00  0.00    -0.224 N 
ATOM      2  N   UNL d   1     -59.006 -98.827 -44.644  0.00  0.00    -0.241 N 
ATOM      3  C   UNL d   1     -58.467 -98.829 -45.268  0.00  0.00     0.343 A 
ATOM      4  C   UNL d   1     -58.727 -98.812 -43.864  0.00  0.00     0.160 A 
ATOM      5  C   UNL d   1     -57.374 -98.800 -44.332  0.00  0.00     0.273 A 
ATOM      6  C   UNL d   1     -57.915 -98.799 -43.709  0.00  0.00     0.115 A 
ATOM      7  C   UNL d   1     -57.642 -98.784 -42.930  0.00  0.00     0.120 A 
ATOM      8  N   UNL d   1     -59.268 -98.811 -43.232  0.00  0.00    -0.209 NA
ATOM      9  N   UNL d   1     -58.178 -98.782 -42.305  0.00  0.00    -0.220 NA
ATOM     10  C   UNL d   1     -58.997 -98.796 -42.453  0.00  0.00     0.165 A 
ATOM     11  O   UNL d   1     -58.738 -98.844 -46.051  0.00  0.00    -0.245 OA
ATOM     12  O   UNL d   1     -56.562 -98.787 -44.181  0.00  0.00    -0.266 OA
ATOM     13  C   UNL d   1     -57.115 -98.817 -45.737  0.00  0.00     0.107 C 
ATOM     14  C   UNL d   1     -59.819 -98.841 -44.799  0.00  0.00     0.105 C 
ENDROOT
BRANCH   7  15
ATOM     15  S   UNL d   1     -56.830 -98.770 -42.779  0.00  0.00    -0.062 SA
BRANCH  15  16
ATOM     16  C   UNL d   1     -56.376 -99.453 -42.891  0.00  0.00     0.098 C 
BRANCH  16  17
ATOM     17  C   UNL d   1     -55.832 -99.493 -43.508  0.00  0.00     0.271 C 
ATOM     18  N   UNL d   1     -55.557-100.220 -43.773  0.00  0.00    -0.272 N 
ATOM     19  C   UNL d   1     -55.826-100.898 -43.421  0.00  0.00     0.083 A 
ATOM     20  C   UNL d   1     -55.013-100.264 -44.389  0.00  0.00     0.083 A 
ATOM     21  C   UNL d   1     -55.551-101.640 -43.685  0.00  0.00     0.019 A 
ATOM     22  C   UNL d   1     -55.003-101.683 -44.305  0.00  0.00     0.003 A 
ATOM     23  C   UNL d   1     -54.735-100.984 -44.657  0.00  0.00     0.019 A 
ATOM     24  C   UNL d   1     -54.732-102.412 -44.565  0.00  0.00     0.000 C 
ATOM     25  O   UNL d   1     -55.557 -98.791 -43.868  0.00  0.00    -0.266 OA
ENDBRANCH  16  17
ENDBRANCH  15  16
ENDBRANCH   7  15
BRANCH  10  26
ATOM     26  C   UNL d   1     -59.533 -98.794 -41.824  0.00  0.00     0.039 C 
ATOM     27  C   UNL d   1     -59.838 -99.505 -41.535  0.00  0.00     0.003 C 
ENDBRANCH  10  26
TORSDOF 4
ENDMDL
