MODEL 1
REMARK VINA RESULT:      -6.8      0.000      0.000
REMARK  4 active torsions:
REMARK  status: ('A' for Active; 'I' for Inactive)
REMARK    1  A    between atoms: C_6  and  C_1 
REMARK    2  A    between atoms: C_8  and  C_5 
REMARK    3  A    between atoms: C_9  and  C_8 
REMARK    4  A    between atoms: C_13  and  C_9 
ROOT
ATOM      1  C   UNL d   1     -48.906  14.971  22.951  0.00  0.00     0.210 A 
ATOM      2  N   UNL d   1     -48.371  15.442  22.533  0.00  0.00    -0.120 NA
ATOM      3  O   UNL d   1     -48.534  14.313  23.208  0.00  0.00    -0.268 OA
ATOM      4  N   UNL d   1     -47.650  15.036  22.548  0.00  0.00    -0.121 NA
ATOM      5  C   UNL d   1     -47.708  14.346  22.949  0.00  0.00     0.205 A 
ENDROOT
BRANCH   5   6
ATOM      6  C   UNL d   1     -47.092  13.815  23.064  0.00  0.00     0.046 C 
BRANCH   6   7
ATOM      7  C   UNL d   1     -47.110  13.086  22.698  0.00  0.00     0.004 C 
BRANCH   7   8
ATOM      8  C   UNL d   1     -46.604  12.480  22.945  0.00  0.00     0.000 A 
ATOM      9  C   UNL d   1     -45.802  12.463  22.687  0.00  0.00     0.002 A 
ATOM     10  C   UNL d   1     -45.296  11.855  22.935  0.00  0.00     0.030 A 
ATOM     11  C   UNL d   1     -45.585  11.269  23.435  0.00  0.00     0.140 A 
ATOM     12  C   UNL d   1     -46.386  11.281  23.695  0.00  0.00     0.030 A 
ATOM     13  F   UNL d   1     -45.078  10.657  23.684  0.00  0.00    -0.204 F 
ATOM     14  C   UNL d   1     -46.874  11.888  23.442  0.00  0.00     0.002 A 
ENDBRANCH   7   8
ENDBRANCH   6   7
ENDBRANCH   5   6
BRANCH   1  15
ATOM     15  C   UNL d   1     -49.706  15.147  23.086  0.00  0.00     0.072 A 
ATOM     16  S   UNL d   1     -50.016  15.625  23.686  0.00  0.00    -0.083 SA
ATOM     17  C   UNL d   1     -50.838  15.641  23.605  0.00  0.00     0.035 A 
ATOM     18  C   UNL d   1     -51.038  15.175  22.956  0.00  0.00     0.008 A 
ATOM     19  C   UNL d   1     -50.333  14.868  22.634  0.00  0.00     0.011 A 
ENDBRANCH   1  15
TORSDOF 4
ENDMDL
MODEL 2
REMARK VINA RESULT:      -6.4      1.347      1.631
REMARK  4 active torsions:
REMARK  status: ('A' for Active; 'I' for Inactive)
REMARK    1  A    between atoms: C_6  and  C_1 
REMARK    2  A    between atoms: C_8  and  C_5 
REMARK    3  A    between atoms: C_9  and  C_8 
REMARK    4  A    between atoms: C_13  and  C_9 
ROOT
ATOM      1  C   UNL d   1     -49.503  14.008  23.244  0.00  0.00     0.210 A 
ATOM      2  N   UNL d   1     -49.715  13.214  23.329  0.00  0.00    -0.120 NA
ATOM      3  O   UNL d   1     -48.748  14.055  22.991  0.00  0.00    -0.268 OA
ATOM      4  N   UNL d   1     -49.046  12.776  23.115  0.00  0.00    -0.121 NA
ATOM      5  C   UNL d   1     -48.438  13.251  22.903  0.00  0.00     0.205 A 
ENDROOT
BRANCH   5   6
ATOM      6  C   UNL d   1     -47.698  12.988  22.661  0.00  0.00     0.046 C 
BRANCH   6   7
ATOM      7  C   UNL d   1     -47.036  13.176  23.100  0.00  0.00     0.004 C 
BRANCH   7   8
ATOM      8  C   UNL d   1     -46.279  13.018  22.808  0.00  0.00     0.000 A 
ATOM      9  C   UNL d   1     -45.907  12.278  22.966  0.00  0.00     0.002 A 
ATOM     10  C   UNL d   1     -45.148  12.121  22.672  0.00  0.00     0.030 A 
ATOM     11  C   UNL d   1     -44.762  12.694  22.225  0.00  0.00     0.140 A 
ATOM     12  C   UNL d   1     -45.130  13.435  22.064  0.00  0.00     0.030 A 
ATOM     13  F   UNL d   1     -44.000  12.537  21.929  0.00  0.00    -0.204 F 
ATOM     14  C   UNL d   1     -45.880  13.576  22.361  0.00  0.00     0.002 A 
ENDBRANCH   7   8
ENDBRANCH   6   7
ENDBRANCH   5   6
BRANCH   1  15
ATOM     15  C   UNL d   1     -49.994  14.661  23.395  0.00  0.00     0.072 A 
ATOM     16  S   UNL d   1     -50.795  14.644  23.603  0.00  0.00    -0.083 SA
ATOM     17  C   UNL d   1     -51.053  15.423  23.698  0.00  0.00     0.035 A 
ATOM     18  C   UNL d   1     -50.414  15.922  23.549  0.00  0.00     0.008 A 
ATOM     19  C   UNL d   1     -49.756  15.446  23.361  0.00  0.00     0.011 A 
ENDBRANCH   1  15
TORSDOF 4
ENDMDL
MODEL 3
REMARK VINA RESULT:      -6.4      2.745      5.118
REMARK  4 active torsions:
REMARK  status: ('A' for Active; 'I' for Inactive)
REMARK    1  A    between atoms: C_6  and  C_1 
REMARK    2  A    between atoms: C_8  and  C_5 
REMARK    3  A    between atoms: C_9  and  C_8 
REMARK    4  A    between atoms: C_13  and  C_9 
ROOT
ATOM      1  C   UNL d   1     -45.225  11.968  23.065  0.00  0.00     0.210 A 
ATOM      2  N   UNL d   1     -44.920  12.551  22.564  0.00  0.00    -0.120 NA
ATOM      3  O   UNL d   1     -45.932  12.207  23.348  0.00  0.00    -0.268 OA
ATOM      4  N   UNL d   1     -45.480  13.160  22.556  0.00  0.00    -0.121 NA
ATOM      5  C   UNL d   1     -46.109  12.989  23.020  0.00  0.00     0.205 A 
ENDROOT
BRANCH   5   6
ATOM      6  C   UNL d   1     -46.759  13.479  23.131  0.00  0.00     0.046 C 
BRANCH   6   7
ATOM      7  C   UNL d   1     -47.328  13.536  22.549  0.00  0.00     0.004 C 
BRANCH   7   8
ATOM      8  C   UNL d   1     -47.999  14.007  22.663  0.00  0.00     0.000 A 
ATOM      9  C   UNL d   1     -48.732  13.657  22.887  0.00  0.00     0.002 A 
ATOM     10  C   UNL d   1     -49.403  14.131  23.001  0.00  0.00     0.030 A 
ATOM     11  C   UNL d   1     -49.346  14.944  22.892  0.00  0.00     0.140 A 
ATOM     12  C   UNL d   1     -48.615  15.298  22.667  0.00  0.00     0.030 A 
ATOM     13  F   UNL d   1     -50.019  15.421  23.005  0.00  0.00    -0.204 F 
ATOM     14  C   UNL d   1     -47.961  14.818  22.559  0.00  0.00     0.002 A 
ENDBRANCH   7   8
ENDBRANCH   6   7
ENDBRANCH   5   6
BRANCH   1  15
ATOM     15  C   UNL d   1     -44.859  11.246  23.249  0.00  0.00     0.072 A 
ATOM     16  S   UNL d   1     -45.202  10.599  23.634  0.00  0.00    -0.083 SA
ATOM     17  C   UNL d   1     -44.632  10.005  23.698  0.00  0.00     0.035 A 
ATOM     18  C   UNL d   1     -43.937  10.282  23.353  0.00  0.00     0.008 A 
ATOM     19  C   UNL d   1     -44.080  11.055  23.075  0.00  0.00     0.011 A 
ENDBRANCH   1  15
TORSDOF 4
ENDMDL
MODEL 4
REMARK VINA RESULT:      -6.2      1.320      1.560
REMARK  4 active torsions:
REMARK  status: ('A' for Active; 'I' for Inactive)
REMARK    1  A    between atoms: C_6  and  C_1 
REMARK    2  A    between atoms: C_8  and  C_5 
REMARK    3  A    between atoms: C_9  and  C_8 
REMARK    4  A    between atoms: C_13  and  C_9 
ROOT
ATOM      1  C   UNL d   1     -49.671  13.746  23.133  0.00  0.00     0.210 A 
ATOM      2  N   UNL d   1     -50.122  13.109  22.860  0.00  0.00    -0.120 NA
ATOM      3  O   UNL d   1     -48.918  13.507  23.248  0.00  0.00    -0.268 OA
ATOM      4  N   UNL d   1     -49.603  12.466  22.815  0.00  0.00    -0.121 NA
ATOM      5  C   UNL d   1     -48.863  12.667  23.042  0.00  0.00     0.205 A 
ENDROOT
BRANCH   5   6
ATOM      6  C   UNL d   1     -48.221  12.155  23.060  0.00  0.00     0.046 C 
BRANCH   6   7
ATOM      7  C   UNL d   1     -47.619  12.277  23.597  0.00  0.00     0.004 C 
BRANCH   7   8
ATOM      8  C   UNL d   1     -46.913  11.848  23.541  0.00  0.00     0.000 A 
ATOM      9  C   UNL d   1     -46.905  11.020  23.697  0.00  0.00     0.002 A 
ATOM     10  C   UNL d   1     -46.196  10.591  23.641  0.00  0.00     0.030 A 
ATOM     11  C   UNL d   1     -45.504  10.983  23.432  0.00  0.00     0.140 A 
ATOM     12  C   UNL d   1     -45.508  11.811  23.275  0.00  0.00     0.030 A 
ATOM     13  F   UNL d   1     -44.793  10.554  23.375  0.00  0.00    -0.204 F 
ATOM     14  C   UNL d   1     -46.214  12.221  23.335  0.00  0.00     0.002 A 
ENDBRANCH   7   8
ENDBRANCH   6   7
ENDBRANCH   5   6
BRANCH   1  15
ATOM     15  C   UNL d   1     -49.949  14.516  23.269  0.00  0.00     0.072 A 
ATOM     16  S   UNL d   1     -50.654  14.732  23.646  0.00  0.00    -0.083 SA
ATOM     17  C   UNL d   1     -50.700  15.556  23.654  0.00  0.00     0.035 A 
ATOM     18  C   UNL d   1     -50.026  15.852  23.284  0.00  0.00     0.008 A 
ATOM     19  C   UNL d   1     -49.560  15.204  23.045  0.00  0.00     0.011 A 
ENDBRANCH   1  15
TORSDOF 4
ENDMDL
MODEL 5
REMARK VINA RESULT:      -5.6      8.764      9.171
REMARK  4 active torsions:
REMARK  status: ('A' for Active; 'I' for Inactive)
REMARK    1  A    between atoms: C_6  and  C_1 
REMARK    2  A    between atoms: C_8  and  C_5 
REMARK    3  A    between atoms: C_9  and  C_8 
REMARK    4  A    between atoms: C_13  and  C_9 
ROOT
ATOM      1  C   UNL d   1     -40.513  14.788  18.129  0.00  0.00     0.210 A 
ATOM      2  N   UNL d   1     -40.866  14.059  18.294  0.00  0.00    -0.120 NA
ATOM      3  O   UNL d   1     -40.053  15.004  18.744  0.00  0.00    -0.268 OA
ATOM      4  N   UNL d   1     -40.597  13.840  19.045  0.00  0.00    -0.121 NA
ATOM      5  C   UNL d   1     -40.101  14.389  19.352  0.00  0.00     0.205 A 
ENDROOT
BRANCH   5   6
ATOM      6  C   UNL d   1     -39.739  14.336  20.088  0.00  0.00     0.046 C 
BRANCH   6   7
ATOM      7  C   UNL d   1     -40.068  14.718  20.730  0.00  0.00     0.004 C 
BRANCH   7   8
ATOM      8  C   UNL d   1     -39.660  14.758  21.448  0.00  0.00     0.000 A 
ATOM      9  C   UNL d   1     -39.430  14.053  21.847  0.00  0.00     0.002 A 
ATOM     10  C   UNL d   1     -39.021  14.094  22.568  0.00  0.00     0.030 A 
ATOM     11  C   UNL d   1     -38.843  14.830  22.888  0.00  0.00     0.140 A 
ATOM     12  C   UNL d   1     -39.071  15.539  22.493  0.00  0.00     0.030 A 
ATOM     13  F   UNL d   1     -38.433  14.874  23.611  0.00  0.00    -0.204 F 
ATOM     14  C   UNL d   1     -39.474  15.482  21.783  0.00  0.00     0.002 A 
ENDBRANCH   7   8
ENDBRANCH   6   7
ENDBRANCH   5   6
BRANCH   1  15
ATOM     15  C   UNL d   1     -40.616  15.231  17.435  0.00  0.00     0.072 A 
ATOM     16  S   UNL d   1     -40.026  15.477  16.909  0.00  0.00    -0.083 SA
ATOM     17  C   UNL d   1     -40.384  15.903  16.299  0.00  0.00     0.035 A 
ATOM     18  C   UNL d   1     -41.195  15.922  16.445  0.00  0.00     0.008 A 
ATOM     19  C   UNL d   1     -41.337  15.504  17.152  0.00  0.00     0.011 A 
ENDBRANCH   1  15
TORSDOF 4
ENDMDL
MODEL 6
REMARK VINA RESULT:      -5.4      2.110      2.513
REMARK  4 active torsions:
REMARK  status: ('A' for Active; 'I' for Inactive)
REMARK    1  A    between atoms: C_6  and  C_1 
REMARK    2  A    between atoms: C_8  and  C_5 
REMARK    3  A    between atoms: C_9  and  C_8 
REMARK    4  A    between atoms: C_13  and  C_9 
ROOT
ATOM      1  C   UNL d   1     -48.871  12.093  23.216  0.00  0.00     0.210 A 
ATOM      2  N   UNL d   1     -48.979  11.315  23.474  0.00  0.00    -0.120 NA
ATOM      3  O   UNL d   1     -48.095  12.278  23.255  0.00  0.00    -0.268 OA
ATOM      4  N   UNL d   1     -48.226  11.034  23.673  0.00  0.00    -0.121 NA
ATOM      5  C   UNL d   1     -47.663  11.590  23.554  0.00  0.00     0.205 A 
ENDROOT
BRANCH   5   6
ATOM      6  C   UNL d   1     -46.861  11.485  23.698  0.00  0.00     0.046 C 
BRANCH   6   7
ATOM      7  C   UNL d   1     -46.468  10.853  23.364  0.00  0.00     0.004 C 
BRANCH   7   8
ATOM      8  C   UNL d   1     -45.641  10.832  23.352  0.00  0.00     0.000 A 
ATOM      9  C   UNL d   1     -45.205  11.452  22.984  0.00  0.00     0.002 A 
ATOM     10  C   UNL d   1     -44.375  11.429  22.972  0.00  0.00     0.030 A 
ATOM     11  C   UNL d   1     -43.984  10.796  23.322  0.00  0.00     0.140 A 
ATOM     12  C   UNL d   1     -44.416  10.173  23.691  0.00  0.00     0.030 A 
ATOM     13  F   UNL d   1     -43.152  10.772  23.311  0.00  0.00    -0.204 F 
ATOM     14  C   UNL d   1     -45.234  10.209  23.695  0.00  0.00     0.002 A 
ENDBRANCH   7   8
ENDBRANCH   6   7
ENDBRANCH   5   6
BRANCH   1  15
ATOM     15  C   UNL d   1     -49.469  12.606  22.956  0.00  0.00     0.072 A 
ATOM     16  S   UNL d   1     -49.830  13.210  23.391  0.00  0.00    -0.083 SA
ATOM     17  C   UNL d   1     -50.393  13.575  22.909  0.00  0.00     0.035 A 
ATOM     18  C   UNL d   1     -50.381  13.198  22.176  0.00  0.00     0.008 A 
ATOM     19  C   UNL d   1     -49.806  12.595  22.208  0.00  0.00     0.011 A 
ENDBRANCH   1  15
TORSDOF 4
ENDMDL
MODEL 7
REMARK VINA RESULT:      -5.3      8.736      9.526
REMARK  4 active torsions:
REMARK  status: ('A' for Active; 'I' for Inactive)
REMARK    1  A    between atoms: C_6  and  C_1 
REMARK    2  A    between atoms: C_8  and  C_5 
REMARK    3  A    between atoms: C_9  and  C_8 
REMARK    4  A    between atoms: C_13  and  C_9 
ROOT
ATOM      1  C   UNL d   1     -39.430  14.768  21.880  0.00  0.00     0.210 A 
ATOM      2  N   UNL d   1     -39.739  15.525  22.006  0.00  0.00    -0.120 NA
ATOM      3  O   UNL d   1     -39.623  14.524  21.145  0.00  0.00    -0.268 OA
ATOM      4  N   UNL d   1     -40.131  15.730  21.307  0.00  0.00    -0.121 NA
ATOM      5  C   UNL d   1     -40.083  15.147  20.760  0.00  0.00     0.205 A 
ENDROOT
BRANCH   5   6
ATOM      6  C   UNL d   1     -40.414  15.179  20.009  0.00  0.00     0.046 C 
BRANCH   6   7
ATOM      7  C   UNL d   1     -39.931  15.229  19.353  0.00  0.00     0.004 C 
BRANCH   7   8
ATOM      8  C   UNL d   1     -40.254  15.226  18.592  0.00  0.00     0.000 A 
ATOM      9  C   UNL d   1     -40.257  14.518  18.134  0.00  0.00     0.002 A 
ATOM     10  C   UNL d   1     -40.582  14.517  17.370  0.00  0.00     0.030 A 
ATOM     11  C   UNL d   1     -40.899  15.212  17.065  0.00  0.00     0.140 A 
ATOM     12  C   UNL d   1     -40.898  15.921  17.520  0.00  0.00     0.030 A 
ATOM     13  F   UNL d   1     -41.225  15.211  16.299  0.00  0.00    -0.204 F 
ATOM     14  C   UNL d   1     -40.574  15.908  18.272  0.00  0.00     0.002 A 
ENDBRANCH   7   8
ENDBRANCH   6   7
ENDBRANCH   5   6
BRANCH   1  15
ATOM     15  C   UNL d   1     -38.989  14.327  22.427  0.00  0.00     0.072 A 
ATOM     16  S   UNL d   1     -38.392  14.607  22.927  0.00  0.00    -0.083 SA
ATOM     17  C   UNL d   1     -38.110  13.971  23.373  0.00  0.00     0.035 A 
ATOM     18  C   UNL d   1     -38.530  13.298  23.151  0.00  0.00     0.008 A 
ATOM     19  C   UNL d   1     -39.077  13.521  22.562  0.00  0.00     0.011 A 
ENDBRANCH   1  15
TORSDOF 4
ENDMDL
MODEL 8
REMARK VINA RESULT:      -5.3      8.850     10.070
REMARK  4 active torsions:
REMARK  status: ('A' for Active; 'I' for Inactive)
REMARK    1  A    between atoms: C_6  and  C_1 
REMARK    2  A    between atoms: C_8  and  C_5 
REMARK    3  A    between atoms: C_9  and  C_8 
REMARK    4  A    between atoms: C_13  and  C_9 
ROOT
ATOM      1  C   UNL d   1     -39.480  14.102  17.497  0.00  0.00     0.210 A 
ATOM      2  N   UNL d   1     -40.171  13.659  17.596  0.00  0.00    -0.120 NA
ATOM      3  O   UNL d   1     -39.391  14.595  18.118  0.00  0.00    -0.268 OA
ATOM      4  N   UNL d   1     -40.500  13.908  18.313  0.00  0.00    -0.121 NA
ATOM      5  C   UNL d   1     -40.056  14.476  18.661  0.00  0.00     0.205 A 
ENDROOT
BRANCH   5   6
ATOM      6  C   UNL d   1     -40.232  14.838  19.377  0.00  0.00     0.046 C 
BRANCH   6   7
ATOM      7  C   UNL d   1     -40.203  14.406  20.068  0.00  0.00     0.004 C 
BRANCH   7   8
ATOM      8  C   UNL d   1     -40.032  14.775  20.788  0.00  0.00     0.000 A 
ATOM      9  C   UNL d   1     -39.511  14.411  21.341  0.00  0.00     0.002 A 
ATOM     10  C   UNL d   1     -39.340  14.783  22.062  0.00  0.00     0.030 A 
ATOM     11  C   UNL d   1     -39.685  15.510  22.232  0.00  0.00     0.140 A 
ATOM     12  C   UNL d   1     -40.206  15.879  21.683  0.00  0.00     0.030 A 
ATOM     13  F   UNL d   1     -39.514  15.884  22.956  0.00  0.00    -0.204 F 
ATOM     14  C   UNL d   1     -40.366  15.500  20.974  0.00  0.00     0.002 A 
ENDBRANCH   7   8
ENDBRANCH   6   7
ENDBRANCH   5   6
BRANCH   1  15
ATOM     15  C   UNL d   1     -38.957  14.049  16.855  0.00  0.00     0.072 A 
ATOM     16  S   UNL d   1     -38.390  13.460  16.722  0.00  0.00    -0.083 SA
ATOM     17  C   UNL d   1     -37.998  13.634  16.016  0.00  0.00     0.035 A 
ATOM     18  C   UNL d   1     -38.321  14.328  15.711  0.00  0.00     0.008 A 
ATOM     19  C   UNL d   1     -38.917  14.585  16.234  0.00  0.00     0.011 A 
ENDBRANCH   1  15
TORSDOF 4
ENDMDL
MODEL 9
REMARK VINA RESULT:      -5.0      9.067     10.207
REMARK  4 active torsions:
REMARK  status: ('A' for Active; 'I' for Inactive)
REMARK    1  A    between atoms: C_6  and  C_1 
REMARK    2  A    between atoms: C_8  and  C_5 
REMARK    3  A    between atoms: C_9  and  C_8 
REMARK    4  A    between atoms: C_13  and  C_9 
ROOT
ATOM      1  C   UNL d   1     -39.875  14.650  20.269  0.00  0.00     0.210 A 
ATOM      2  N   UNL d   1     -40.638  14.408  20.063  0.00  0.00    -0.120 NA
ATOM      3  O   UNL d   1     -39.401  14.604  19.629  0.00  0.00    -0.268 OA
ATOM      4  N   UNL d   1     -40.605  14.211  19.261  0.00  0.00    -0.121 NA
ATOM      5  C   UNL d   1     -39.871  14.317  18.960  0.00  0.00     0.205 A 
ENDROOT
BRANCH   5   6
ATOM      6  C   UNL d   1     -39.656  14.171  18.181  0.00  0.00     0.046 C 
BRANCH   6   7
ATOM      7  C   UNL d   1     -38.880  14.268  17.948  0.00  0.00     0.004 C 
BRANCH   7   8
ATOM      8  C   UNL d   1     -38.646  14.080  17.177  0.00  0.00     0.000 A 
ATOM      9  C   UNL d   1     -38.205  13.379  17.025  0.00  0.00     0.002 A 
ATOM     10  C   UNL d   1     -37.970  13.193  16.251  0.00  0.00     0.030 A 
ATOM     11  C   UNL d   1     -38.174  13.699  15.635  0.00  0.00     0.140 A 
ATOM     12  C   UNL d   1     -38.615  14.402  15.783  0.00  0.00     0.030 A 
ATOM     13  F   UNL d   1     -37.940  13.514  14.858  0.00  0.00    -0.204 F 
ATOM     14  C   UNL d   1     -38.839  14.573  16.552  0.00  0.00     0.002 A 
ENDBRANCH   7   8
ENDBRANCH   6   7
ENDBRANCH   5   6
BRANCH   1  15
ATOM     15  C   UNL d   1     -39.631  14.903  21.022  0.00  0.00     0.072 A 
ATOM     16  S   UNL d   1     -39.652  15.675  21.319  0.00  0.00    -0.083 SA
ATOM     17  C   UNL d   1     -39.356  15.663  22.090  0.00  0.00     0.035 A 
ATOM     18  C   UNL d   1     -39.152  14.885  22.271  0.00  0.00     0.008 A 
ATOM     19  C   UNL d   1     -39.324  14.414  21.606  0.00  0.00     0.011 A 
ENDBRANCH   1  15
TORSDOF 4
ENDMDL
