MODEL 1
REMARK VINA RESULT:      21.8      0.000      0.000
REMARK  5 active torsions:
REMARK  status: ('A' for Active; 'I' for Inactive)
REMARK    1  A    between atoms: N_8  and  C_1 
REMARK    2  A    between atoms: C_11  and  C_2 
REMARK    3  A    between atoms: C_4  and  C_6 
REMARK       I    between atoms: C_6  and  N_8 
REMARK    4  A    between atoms: O_17  and  C_11 
REMARK    5  A    between atoms: C_19  and  O_17 
ROOT
ATOM      1  C   UNL d   1      13.507  11.880  -3.199  0.00  0.00     0.114 A 
ATOM      2  C   UNL d   1      14.116  12.116  -2.046  0.00  0.00     0.094 A 
ATOM      3  S   UNL d   1      14.217  12.089  -2.843  0.00  0.00    -0.062 SA
ATOM      4  C   UNL d   1      13.311  11.915  -1.913  0.00  0.00     0.013 A 
ATOM      5  C   UNL d   1      12.964  11.780  -2.599  0.00  0.00     0.027 A 
ATOM      6  C   UNL d   1      12.941  11.868  -1.177  0.00  0.00     0.001 C 
ENDROOT
BRANCH   1   7
ATOM      7  N   UNL d   1      13.353  11.785  -4.036  0.00  0.00    -0.201 NA
ATOM      8  C   UNL d   1      13.210  12.444  -4.497  0.00  0.00     0.286 C 
ATOM      9  O   UNL d   1      13.063  12.344  -5.305  0.00  0.00    -0.265 OA
BRANCH   8  10
ATOM     10  C   UNL d   1      13.214  13.194  -4.158  0.00  0.00     0.088 A 
ATOM     11  S   UNL d   1      13.618  13.840  -4.441  0.00  0.00    -0.071 SA
ATOM     12  C   UNL d   1      13.472  14.472  -3.941  0.00  0.00     0.087 A 
ATOM     13 CL   UNL d   1      13.782  15.207  -4.047  0.00  0.00    -0.075 Cl
ATOM     14  C   UNL d   1      12.957  14.194  -3.331  0.00  0.00     0.019 A 
ATOM     15  C   UNL d   1      12.807  13.420  -3.471  0.00  0.00     0.013 A 
ENDBRANCH   8  10
ENDBRANCH   1   7
BRANCH   2  16
ATOM     16  C   UNL d   1      14.686  12.302  -1.470  0.00  0.00     0.306 C 
ATOM     17  O   UNL d   1      15.303  11.784  -1.357  0.00  0.00    -0.258 OA
BRANCH  16  18
ATOM     18  O   UNL d   1      14.638  12.982  -1.024  0.00  0.00    -0.271 OA
BRANCH  18  19
ATOM     19  C   UNL d   1      15.253  13.198  -0.526  0.00  0.00     0.126 C 
ATOM     20  C   UNL d   1      15.160  13.860  -0.043  0.00  0.00     0.029 C 
ENDBRANCH  18  19
ENDBRANCH  16  18
ENDBRANCH   2  16
TORSDOF 5
ENDMDL
MODEL 2
REMARK VINA RESULT:      22.5      1.812      3.540
REMARK  5 active torsions:
REMARK  status: ('A' for Active; 'I' for Inactive)
REMARK    1  A    between atoms: N_8  and  C_1 
REMARK    2  A    between atoms: C_11  and  C_2 
REMARK    3  A    between atoms: C_4  and  C_6 
REMARK       I    between atoms: C_6  and  N_8 
REMARK    4  A    between atoms: O_17  and  C_11 
REMARK    5  A    between atoms: C_19  and  O_17 
ROOT
ATOM      1  C   UNL d   1      14.846  12.189  -1.212  0.00  0.00     0.114 A 
ATOM      2  C   UNL d   1      13.899  12.271  -2.135  0.00  0.00     0.094 A 
ATOM      3  S   UNL d   1      14.681  12.390  -1.991  0.00  0.00    -0.062 SA
ATOM      4  C   UNL d   1      13.577  11.986  -1.414  0.00  0.00     0.013 A 
ATOM      5  C   UNL d   1      14.144  11.943  -0.879  0.00  0.00     0.027 A 
ATOM      6  C   UNL d   1      12.788  11.783  -1.285  0.00  0.00     0.001 C 
ENDROOT
BRANCH   1   7
ATOM      7  N   UNL d   1      15.604  12.227  -0.815  0.00  0.00    -0.201 NA
ATOM      8  C   UNL d   1      15.807  12.900  -0.398  0.00  0.00     0.286 C 
ATOM      9  O   UNL d   1      16.540  12.930  -0.017  0.00  0.00    -0.265 OA
BRANCH   8  10
ATOM     10  C   UNL d   1      15.285  13.535  -0.360  0.00  0.00     0.088 A 
ATOM     11  S   UNL d   1      15.424  14.281  -0.655  0.00  0.00    -0.071 SA
ATOM     12  C   UNL d   1      14.765  14.743  -0.502  0.00  0.00     0.087 A 
ATOM     13 CL   UNL d   1      14.703  15.516  -0.714  0.00  0.00    -0.075 Cl
ATOM     14  C   UNL d   1      14.206  14.254  -0.097  0.00  0.00     0.019 A 
ATOM     15  C   UNL d   1      14.530  13.526  -0.016  0.00  0.00     0.013 A 
ENDBRANCH   8  10
ENDBRANCH   1   7
BRANCH   2  16
ATOM     16  C   UNL d   1      13.490  12.401  -2.848  0.00  0.00     0.306 C 
ATOM     17  O   UNL d   1      13.032  13.071  -2.913  0.00  0.00    -0.258 OA
BRANCH  16  18
ATOM     18  O   UNL d   1      13.540  11.879  -3.472  0.00  0.00    -0.271 OA
BRANCH  18  19
ATOM     19  C   UNL d   1      13.239  12.079  -4.208  0.00  0.00     0.126 C 
ATOM     20  C   UNL d   1      13.619  11.797  -4.883  0.00  0.00     0.029 C 
ENDBRANCH  18  19
ENDBRANCH  16  18
ENDBRANCH   2  16
TORSDOF 5
ENDMDL
