MODEL 1
REMARK VINA RESULT:      -4.3      0.000      0.000
REMARK  7 active torsions:
REMARK  status: ('A' for Active; 'I' for Inactive)
REMARK    1  A    between atoms: S_9  and  C_2 
REMARK    2  A    between atoms: C_15  and  C_5 
REMARK    3  A    between atoms: C_6  and  C_7 
REMARK       I    between atoms: C_7  and  N_8 
REMARK    4  A    between atoms: N_8  and  C_15 
REMARK    5  A    between atoms: C_14  and  S_9 
REMARK    6  A    between atoms: C_10  and  C_14 
REMARK    7  A    between atoms: C_12  and  C_10 
ROOT
ATOM      1  O   UNL d   1      32.817  18.550 -22.570  0.00  0.00    -0.262 OA
ATOM      2  C   UNL d   1      32.786  18.261 -23.346  0.00  0.00     0.236 A 
ATOM      3  N   UNL d   1      33.048  18.853 -23.843  0.00  0.00    -0.114 NA
ATOM      4  N   UNL d   1      33.241  19.505 -23.383  0.00  0.00    -0.119 NA
ATOM      5  C   UNL d   1      33.099  19.317 -22.600  0.00  0.00     0.224 A 
ENDROOT
BRANCH   2   6
ATOM      6  S   UNL d   1      32.535  17.510 -23.569  0.00  0.00    -0.037 SA
BRANCH   6   7
ATOM      7  C   UNL d   1      31.740  17.331 -23.585  0.00  0.00     0.081 C 
BRANCH   7   8
ATOM      8  C   UNL d   1      31.477  16.604 -23.889  0.00  0.00     0.202 C 
ATOM      9  O   UNL d   1      32.009  16.090 -24.238  0.00  0.00    -0.286 OA
BRANCH   8  10
ATOM     10  C   UNL d   1      30.679  16.404 -23.840  0.00  0.00     0.040 A 
ATOM     11  C   UNL d   1      30.429  15.868 -23.268  0.00  0.00     0.004 A 
ATOM     12  C   UNL d   1      29.629  15.664 -23.214  0.00  0.00     0.011 A 
ATOM     13  C   UNL d   1      29.079  15.995 -23.732  0.00  0.00     0.058 A 
ATOM     14  C   UNL d   1      29.333  16.532 -24.304  0.00  0.00     0.011 A 
ATOM     15 CL   UNL d   1      28.289  15.791 -23.677  0.00  0.00    -0.082 Cl
ATOM     16  C   UNL d   1      30.129  16.741 -24.365  0.00  0.00     0.004 A 
ENDBRANCH   8  10
ENDBRANCH   7   8
ENDBRANCH   6   7
ENDBRANCH   2   6
BRANCH   5  17
ATOM     17  C   UNL d   1      33.218  19.814 -21.955  0.00  0.00     0.149 C 
BRANCH  17  18
ATOM     18  N   UNL d   1      32.973  20.596 -21.982  0.00  0.00    -0.203 NA
ATOM     19  C   UNL d   1      32.985  21.055 -21.297  0.00  0.00     0.281 C 
ATOM     20  O   UNL d   1      33.241  20.735 -20.587  0.00  0.00    -0.265 OA
BRANCH  19  21
ATOM     21  C   UNL d   1      32.737  21.840 -21.330  0.00  0.00     0.085 A 
ATOM     22  C   UNL d   1      32.145  22.091 -20.830  0.00  0.00     0.145 A 
ATOM     23  F   UNL d   1      31.789  21.581 -20.292  0.00  0.00    -0.204 F 
ATOM     24  C   UNL d   1      31.906  22.883 -20.873  0.00  0.00     0.030 A 
ATOM     25  C   UNL d   1      32.249  23.419 -21.406  0.00  0.00     0.002 A 
ATOM     26  C   UNL d   1      32.853  23.136 -21.907  0.00  0.00     0.000 A 
ATOM     27  C   UNL d   1      33.092  22.344 -21.863  0.00  0.00     0.007 A 
ENDBRANCH  19  21
ENDBRANCH  17  18
ENDBRANCH   5  17
TORSDOF 7
ENDMDL
MODEL 2
REMARK VINA RESULT:      -3.8      2.340      5.899
REMARK  7 active torsions:
REMARK  status: ('A' for Active; 'I' for Inactive)
REMARK    1  A    between atoms: S_9  and  C_2 
REMARK    2  A    between atoms: C_15  and  C_5 
REMARK    3  A    between atoms: C_6  and  C_7 
REMARK       I    between atoms: C_7  and  N_8 
REMARK    4  A    between atoms: N_8  and  C_15 
REMARK    5  A    between atoms: C_14  and  S_9 
REMARK    6  A    between atoms: C_10  and  C_14 
REMARK    7  A    between atoms: C_12  and  C_10 
ROOT
ATOM      1  O   UNL d   1      32.610  18.207 -23.081  0.00  0.00    -0.262 OA
ATOM      2  C   UNL d   1      33.039  18.916 -23.093  0.00  0.00     0.236 A 
ATOM      3  N   UNL d   1      33.222  19.082 -23.871  0.00  0.00    -0.114 NA
ATOM      4  N   UNL d   1      32.910  18.484 -24.339  0.00  0.00    -0.119 NA
ATOM      5  C   UNL d   1      32.535  17.946 -23.852  0.00  0.00     0.224 A 
ENDROOT
BRANCH   2   6
ATOM      6  S   UNL d   1      33.241  19.366 -22.435  0.00  0.00    -0.037 SA
BRANCH   6   7
ATOM      7  C   UNL d   1      32.761  19.978 -22.194  0.00  0.00     0.081 C 
BRANCH   7   8
ATOM      8  C   UNL d   1      32.925  20.393 -21.493  0.00  0.00     0.202 C 
ATOM      9  O   UNL d   1      33.238  19.998 -20.848  0.00  0.00    -0.286 OA
BRANCH   8  10
ATOM     10  C   UNL d   1      32.773  21.201 -21.449  0.00  0.00     0.040 A 
ATOM     11  C   UNL d   1      33.208  21.723 -21.911  0.00  0.00     0.004 A 
ATOM     12  C   UNL d   1      33.058  22.536 -21.871  0.00  0.00     0.011 A 
ATOM     13  C   UNL d   1      32.472  22.827 -21.368  0.00  0.00     0.058 A 
ATOM     14  C   UNL d   1      32.037  22.300 -20.905  0.00  0.00     0.011 A 
ATOM     15 CL   UNL d   1      32.326  23.630 -21.329  0.00  0.00    -0.082 Cl
ATOM     16  C   UNL d   1      32.180  21.488 -20.940  0.00  0.00     0.004 A 
ENDBRANCH   8  10
ENDBRANCH   7   8
ENDBRANCH   6   7
ENDBRANCH   2   6
BRANCH   5  17
ATOM     17  C   UNL d   1      32.148  17.262 -24.096  0.00  0.00     0.149 C 
BRANCH  17  18
ATOM     18  N   UNL d   1      31.335  17.192 -24.014  0.00  0.00    -0.203 NA
ATOM     19  C   UNL d   1      30.978  16.451 -24.072  0.00  0.00     0.281 C 
ATOM     20  O   UNL d   1      31.430  15.782 -24.211  0.00  0.00    -0.265 OA
BRANCH  19  21
ATOM     21  C   UNL d   1      30.161  16.387 -23.988  0.00  0.00     0.085 A 
ATOM     22  C   UNL d   1      29.858  15.891 -23.417  0.00  0.00     0.145 A 
ATOM     23  F   UNL d   1      30.347  15.453 -22.921  0.00  0.00    -0.204 F 
ATOM     24  C   UNL d   1      29.035  15.836 -23.344  0.00  0.00     0.030 A 
ATOM     25  C   UNL d   1      28.518  16.267 -23.831  0.00  0.00     0.002 A 
ATOM     26  C   UNL d   1      28.855  16.766 -24.408  0.00  0.00     0.000 A 
ATOM     27  C   UNL d   1      29.678  16.821 -24.481  0.00  0.00     0.007 A 
ENDBRANCH  19  21
ENDBRANCH  17  18
ENDBRANCH   5  17
TORSDOF 7
ENDMDL
MODEL 3
REMARK VINA RESULT:      -1.6      2.762      6.055
REMARK  7 active torsions:
REMARK  status: ('A' for Active; 'I' for Inactive)
REMARK    1  A    between atoms: S_9  and  C_2 
REMARK    2  A    between atoms: C_15  and  C_5 
REMARK    3  A    between atoms: C_6  and  C_7 
REMARK       I    between atoms: C_7  and  N_8 
REMARK    4  A    between atoms: N_8  and  C_15 
REMARK    5  A    between atoms: C_14  and  S_9 
REMARK    6  A    between atoms: C_10  and  C_14 
REMARK    7  A    between atoms: C_12  and  C_10 
ROOT
ATOM      1  O   UNL d   1      33.239  20.328 -23.602  0.00  0.00    -0.262 OA
ATOM      2  C   UNL d   1      33.240  21.075 -23.961  0.00  0.00     0.236 A 
ATOM      3  N   UNL d   1      33.241  20.963 -24.769  0.00  0.00    -0.114 NA
ATOM      4  N   UNL d   1      33.240  20.155 -24.914  0.00  0.00    -0.119 NA
ATOM      5  C   UNL d   1      33.239  19.765 -24.195  0.00  0.00     0.224 A 
ENDROOT
BRANCH   2   6
ATOM      6  S   UNL d   1      33.241  21.797 -23.567  0.00  0.00    -0.037 SA
BRANCH   6   7
ATOM      7  C   UNL d   1      33.168  21.822 -22.756  0.00  0.00     0.081 C 
BRANCH   7   8
ATOM      8  C   UNL d   1      32.912  22.514 -22.375  0.00  0.00     0.202 C 
ATOM      9  O   UNL d   1      32.677  23.162 -22.819  0.00  0.00    -0.286 OA
BRANCH   8  10
ATOM     10  C   UNL d   1      32.894  22.548 -21.553  0.00  0.00     0.040 A 
ATOM     11  C   UNL d   1      32.998  23.268 -21.172  0.00  0.00     0.004 A 
ATOM     12  C   UNL d   1      32.981  23.307 -20.345  0.00  0.00     0.011 A 
ATOM     13  C   UNL d   1      32.859  22.623 -19.899  0.00  0.00     0.058 A 
ATOM     14  C   UNL d   1      32.754  21.902 -20.284  0.00  0.00     0.011 A 
ATOM     15 CL   UNL d   1      32.842  22.663 -19.083  0.00  0.00    -0.082 Cl
ATOM     16  C   UNL d   1      32.770  21.855 -21.108  0.00  0.00     0.004 A 
ENDBRANCH   8  10
ENDBRANCH   7   8
ENDBRANCH   6   7
ENDBRANCH   2   6
BRANCH   5  17
ATOM     17  C   UNL d   1      33.239  18.949 -24.088  0.00  0.00     0.149 C 
BRANCH  17  18
ATOM     18  N   UNL d   1      32.568  18.509 -24.258  0.00  0.00    -0.203 NA
ATOM     19  C   UNL d   1      32.522  17.721 -24.018  0.00  0.00     0.281 C 
ATOM     20  O   UNL d   1      33.143  17.374 -23.611  0.00  0.00    -0.265 OA
BRANCH  19  21
ATOM     21  C   UNL d   1      31.846  17.283 -24.191  0.00  0.00     0.085 A 
ATOM     22  C   UNL d   1      31.920  16.588 -24.610  0.00  0.00     0.145 A 
ATOM     23  F   UNL d   1      32.651  16.313 -24.865  0.00  0.00    -0.204 F 
ATOM     24  C   UNL d   1      31.232  16.158 -24.776  0.00  0.00     0.030 A 
ATOM     25  C   UNL d   1      30.481  16.413 -24.531  0.00  0.00     0.002 A 
ATOM     26  C   UNL d   1      30.434  17.127 -24.103  0.00  0.00     0.000 A 
ATOM     27  C   UNL d   1      31.122  17.557 -23.936  0.00  0.00     0.007 A 
ENDBRANCH  19  21
ENDBRANCH  17  18
ENDBRANCH   5  17
TORSDOF 7
ENDMDL
