MODEL 1
REMARK VINA RESULT:      76.8      0.000      0.000
REMARK  5 active torsions:
REMARK  status: ('A' for Active; 'I' for Inactive)
REMARK    1  A    between atoms: C_2  and  S_1 
REMARK    2  A    between atoms: C_9  and  S_1 
REMARK    3  A    between atoms: N_5  and  C_3 
REMARK    4  A    between atoms: O_28  and  C_23 
REMARK    5  A    between atoms: O_29  and  C_24 
ROOT
ATOM      1  C   UNL d   1      14.585  15.125  -2.453  0.00  0.00     0.123 A 
ATOM      2  C   UNL d   1      14.455  14.331  -2.280  0.00  0.00     0.078 A 
ATOM      3  C   UNL d   1      14.621  14.044  -1.526  0.00  0.00     0.036 A 
ATOM      4  C   UNL d   1      14.882  15.632  -1.873  0.00  0.00     0.112 A 
ATOM      5  N   UNL d   1      15.048  15.344  -1.120  0.00  0.00    -0.243 NA
ATOM      6  C   UNL d   1      14.918  14.550  -0.946  0.00  0.00     0.083 A 
ATOM      7  C   UNL d   1      14.491  13.249  -1.353  0.00  0.00     0.027 A 
ATOM      8  C   UNL d   1      15.084  14.263  -0.193  0.00  0.00     0.021 A 
ATOM      9  C   UNL d   1      14.657  12.962  -0.599  0.00  0.00     0.094 A 
ATOM     10  C   UNL d   1      14.954  13.468  -0.019  0.00  0.00     0.026 A 
ENDROOT
BRANCH   1  11
ATOM     11  S   UNL d   1      14.419  15.422  -3.215  0.00  0.00     0.213 S 
ATOM     12  O   UNL d   1      13.610  15.473  -3.018  0.00  0.00    -0.217 OA
ATOM     13  O   UNL d   1      15.224  15.371  -3.410  0.00  0.00    -0.217 OA
BRANCH  11  14
ATOM     14  C   UNL d   1      14.251  15.719  -3.976  0.00  0.00     0.088 A 
ATOM     15  C   UNL d   1      14.833  16.137  -4.388  0.00  0.00     0.013 A 
ATOM     16  C   UNL d   1      14.673  16.432  -5.140  0.00  0.00     0.025 A 
ATOM     17  C   UNL d   1      13.922  16.309  -5.487  0.00  0.00     0.094 A 
ATOM     18  C   UNL d   1      13.344  15.886  -5.062  0.00  0.00     0.025 A 
ATOM     19  C   UNL d   1      13.509  15.595  -4.315  0.00  0.00     0.013 A 
BRANCH  17  20
ATOM     20  O   UNL d   1      13.758  16.606  -6.245  0.00  0.00    -0.328 OA
ATOM     21  C   UNL d   1      13.263  17.259  -6.337  0.00  0.00     0.181 C 
ENDBRANCH  17  20
ENDBRANCH  11  14
ENDBRANCH   1  11
BRANCH   2  22
ATOM     22  N   UNL d   1      14.159  13.825  -2.860  0.00  0.00    -0.303 N 
ATOM     23  C   UNL d   1      14.581  13.150  -3.073  0.00  0.00     0.081 A 
ATOM     24  C   UNL d   1      14.281  12.638  -3.659  0.00  0.00     0.053 A 
ATOM     25  C   UNL d   1      13.563  12.806  -4.025  0.00  0.00     0.239 A 
ATOM     26  C   UNL d   1      13.131  13.488  -3.813  0.00  0.00     0.053 A 
ATOM     27  O   UNL d   1      12.847  12.903  -4.443  0.00  0.00    -0.298 OA
ATOM     28  O   UNL d   1      13.918  12.115  -4.297  0.00  0.00    -0.298 OA
ATOM     29  C   UNL d   1      13.431  13.999  -3.228  0.00  0.00     0.081 A 
ATOM     30  C   UNL d   1      12.774  12.264  -4.968  0.00  0.00     0.146 A 
ATOM     31  C   UNL d   1      13.436  11.780  -4.877  0.00  0.00     0.146 A 
ENDBRANCH   2  22
BRANCH   9  32
ATOM     32  O   UNL d   1      14.524  12.163  -0.432  0.00  0.00    -0.328 OA
ATOM     33  C   UNL d   1      13.767  11.913  -0.211  0.00  0.00     0.181 C 
ENDBRANCH   9  32
TORSDOF 5
ENDMDL
MODEL 2
REMARK VINA RESULT:      79.0      1.220      3.184
REMARK  5 active torsions:
REMARK  status: ('A' for Active; 'I' for Inactive)
REMARK    1  A    between atoms: C_2  and  S_1 
REMARK    2  A    between atoms: C_9  and  S_1 
REMARK    3  A    between atoms: N_5  and  C_3 
REMARK    4  A    between atoms: O_28  and  C_23 
REMARK    5  A    between atoms: O_29  and  C_24 
ROOT
ATOM      1  C   UNL d   1      14.306  13.472  -2.123  0.00  0.00     0.123 A 
ATOM      2  C   UNL d   1      14.523  14.266  -2.101  0.00  0.00     0.078 A 
ATOM      3  C   UNL d   1      14.825  14.589  -1.405  0.00  0.00     0.036 A 
ATOM      4  C   UNL d   1      14.391  13.001  -1.450  0.00  0.00     0.112 A 
ATOM      5  N   UNL d   1      14.692  13.324  -0.756  0.00  0.00    -0.243 NA
ATOM      6  C   UNL d   1      14.909  14.118  -0.733  0.00  0.00     0.083 A 
ATOM      7  C   UNL d   1      15.041  15.383  -1.384  0.00  0.00     0.027 A 
ATOM      8  C   UNL d   1      15.210  14.441  -0.039  0.00  0.00     0.021 A 
ATOM      9  C   UNL d   1      15.343  15.706  -0.688  0.00  0.00     0.094 A 
ATOM     10  C   UNL d   1      15.427  15.235  -0.016  0.00  0.00     0.026 A 
ENDROOT
BRANCH   1  11
ATOM     11  S   UNL d   1      14.000  13.139  -2.824  0.00  0.00     0.213 S 
ATOM     12  O   UNL d   1      14.764  12.876  -3.032  0.00  0.00    -0.217 OA
ATOM     13  O   UNL d   1      13.241  13.403  -2.616  0.00  0.00    -0.217 OA
BRANCH  11  14
ATOM     14  C   UNL d   1      13.696  12.807  -3.525  0.00  0.00     0.088 A 
ATOM     15  C   UNL d   1      13.074  13.182  -3.918  0.00  0.00     0.013 A 
ATOM     16  C   UNL d   1      12.769  12.858  -4.611  0.00  0.00     0.025 A 
ATOM     17  C   UNL d   1      13.088  12.149  -4.918  0.00  0.00     0.094 A 
ATOM     18  C   UNL d   1      13.715  11.779  -4.512  0.00  0.00     0.025 A 
ATOM     19  C   UNL d   1      14.014  12.106  -3.824  0.00  0.00     0.013 A 
BRANCH  17  20
ATOM     20  O   UNL d   1      12.782  11.820  -5.616  0.00  0.00    -0.328 OA
ATOM     21  C   UNL d   1      13.200  11.888  -6.324  0.00  0.00     0.181 C 
ENDBRANCH  17  20
ENDBRANCH  11  14
ENDBRANCH   1  11
BRANCH   2  22
ATOM     22  N   UNL d   1      14.438  14.737  -2.773  0.00  0.00    -0.303 N 
ATOM     23  C   UNL d   1      15.105  15.037  -3.153  0.00  0.00     0.081 A 
ATOM     24  C   UNL d   1      15.020  15.512  -3.832  0.00  0.00     0.053 A 
ATOM     25  C   UNL d   1      14.269  15.683  -4.124  0.00  0.00     0.239 A 
ATOM     26  C   UNL d   1      13.590  15.382  -3.743  0.00  0.00     0.053 A 
ATOM     27  O   UNL d   1      13.547  15.903  -4.483  0.00  0.00    -0.298 OA
ATOM     28  O   UNL d   1      14.878  16.021  -4.562  0.00  0.00    -0.298 OA
ATOM     29  C   UNL d   1      13.676  14.907  -3.065  0.00  0.00     0.081 A 
ATOM     30  C   UNL d   1      13.728  16.375  -5.141  0.00  0.00     0.146 A 
ATOM     31  C   UNL d   1      14.549  16.448  -5.188  0.00  0.00     0.146 A 
ENDBRANCH   2  22
BRANCH   9  32
ATOM     32  O   UNL d   1      15.558  16.505  -0.673  0.00  0.00    -0.328 OA
ATOM     33  C   UNL d   1      15.215  17.009  -0.114  0.00  0.00     0.181 C 
ENDBRANCH   9  32
TORSDOF 5
ENDMDL
