MODEL 1
REMARK VINA RESULT:      -7.4      0.000      0.000
REMARK  5 active torsions:
REMARK  status: ('A' for Active; 'I' for Inactive)
REMARK    1  A    between atoms: N_2  and  S_1 
REMARK    2  A    between atoms: C_4  and  S_1 
REMARK    3  A    between atoms: C_3  and  N_2 
REMARK    4  A    between atoms: N_7  and  C_3 
REMARK    5  A    between atoms: C_15  and  N_7 
ROOT
ATOM      1  S   UNL d   1      51.042  34.043  52.807  0.00  0.00     0.287 S 
ATOM      2  O   UNL d   1      50.598  33.638  53.386  0.00  0.00    -0.198 OA
ATOM      3  O   UNL d   1      51.480  34.444  52.234  0.00  0.00    -0.198 OA
ENDROOT
BRANCH   1   4
ATOM      4  N   UNL d   1      51.744  33.795  53.171  0.00  0.00    -0.128 NA
BRANCH   4   5
ATOM      5  C   UNL d   1      52.439  33.355  53.138  0.00  0.00     0.232 C 
ATOM      6  S   UNL d   1      52.408  32.542  53.000  0.00  0.00    -0.036 SA
BRANCH   5   7
ATOM      7  N   UNL d   1      53.166  33.728  53.243  0.00  0.00    -0.217 NA
BRANCH   7   8
ATOM      8  C   UNL d   1      53.627  33.544  53.901  0.00  0.00     0.084 A 
ATOM      9  C   UNL d   1      53.678  34.079  54.525  0.00  0.00     0.019 A 
ATOM     10  C   UNL d   1      54.138  33.898  55.184  0.00  0.00     0.002 A 
ATOM     11  C   UNL d   1      54.544  33.186  55.219  0.00  0.00     0.000 A 
ATOM     12  C   UNL d   1      54.493  32.651  54.596  0.00  0.00     0.002 A 
ATOM     13  C   UNL d   1      54.035  32.828  53.937  0.00  0.00     0.019 A 
ENDBRANCH   7   8
ENDBRANCH   5   7
ENDBRANCH   4   5
ENDBRANCH   1   4
BRANCH   1  14
ATOM     14  C   UNL d   1      50.335  34.292  52.441  0.00  0.00     0.105 A 
ATOM     15  C   UNL d   1      49.778  34.714  52.879  0.00  0.00     0.013 A 
ATOM     16  C   UNL d   1      49.069  34.967  52.519  0.00  0.00     0.007 A 
ATOM     17  C   UNL d   1      48.924  34.791  51.717  0.00  0.00     0.035 A 
ATOM     18  C   UNL d   1      49.489  34.366  51.283  0.00  0.00     0.007 A 
ATOM     19 BR   UNL d   1      48.222  35.042  51.365  0.00  0.00    -0.049 Br
ATOM     20  C   UNL d   1      50.190  34.116  51.639  0.00  0.00     0.013 A 
ENDBRANCH   1  14
TORSDOF 5
ENDMDL
MODEL 2
REMARK VINA RESULT:      -6.7      1.998      4.735
REMARK  5 active torsions:
REMARK  status: ('A' for Active; 'I' for Inactive)
REMARK    1  A    between atoms: N_2  and  S_1 
REMARK    2  A    between atoms: C_4  and  S_1 
REMARK    3  A    between atoms: C_3  and  N_2 
REMARK    4  A    between atoms: N_7  and  C_3 
REMARK    5  A    between atoms: C_15  and  N_7 
ROOT
ATOM      1  S   UNL d   1      52.117  34.252  53.549  0.00  0.00     0.287 S 
ATOM      2  O   UNL d   1      52.441  34.994  53.349  0.00  0.00    -0.198 OA
ATOM      3  O   UNL d   1      51.797  33.517  53.747  0.00  0.00    -0.198 OA
ENDROOT
BRANCH   1   4
ATOM      4  N   UNL d   1      51.415  34.452  53.156  0.00  0.00    -0.128 NA
BRANCH   4   5
ATOM      5  C   UNL d   1      50.836  34.260  52.603  0.00  0.00     0.232 C 
ATOM      6  S   UNL d   1      51.034  34.185  51.806  0.00  0.00    -0.036 SA
BRANCH   5   7
ATOM      7  N   UNL d   1      50.058  34.142  52.849  0.00  0.00    -0.217 NA
BRANCH   7   8
ATOM      8  C   UNL d   1      49.455  34.601  52.522  0.00  0.00     0.084 A 
ATOM      9  C   UNL d   1      49.118  35.206  52.968  0.00  0.00     0.019 A 
ATOM     10  C   UNL d   1      48.515  35.665  52.646  0.00  0.00     0.002 A 
ATOM     11  C   UNL d   1      48.251  35.520  51.882  0.00  0.00     0.000 A 
ATOM     12  C   UNL d   1      48.588  34.916  51.437  0.00  0.00     0.002 A 
ATOM     13  C   UNL d   1      49.190  34.455  51.755  0.00  0.00     0.019 A 
ENDBRANCH   7   8
ENDBRANCH   5   7
ENDBRANCH   4   5
ENDBRANCH   1   4
BRANCH   1  14
ATOM     14  C   UNL d   1      52.824  34.051  53.944  0.00  0.00     0.105 A 
ATOM     15  C   UNL d   1      53.088  34.523  54.566  0.00  0.00     0.013 A 
ATOM     16  C   UNL d   1      53.794  34.329  54.966  0.00  0.00     0.007 A 
ATOM     17  C   UNL d   1      54.231  33.657  54.735  0.00  0.00     0.035 A 
ATOM     18  C   UNL d   1      53.958  33.187  54.109  0.00  0.00     0.007 A 
ATOM     19 BR   UNL d   1      54.928  33.468  55.133  0.00  0.00    -0.049 Br
ATOM     20  C   UNL d   1      53.260  33.379  53.713  0.00  0.00     0.013 A 
ENDBRANCH   1  14
TORSDOF 5
ENDMDL
MODEL 3
REMARK VINA RESULT:      -6.3      2.756      3.795
REMARK  5 active torsions:
REMARK  status: ('A' for Active; 'I' for Inactive)
REMARK    1  A    between atoms: N_2  and  S_1 
REMARK    2  A    between atoms: C_4  and  S_1 
REMARK    3  A    between atoms: C_3  and  N_2 
REMARK    4  A    between atoms: N_7  and  C_3 
REMARK    5  A    between atoms: C_15  and  N_7 
ROOT
ATOM      1  S   UNL d   1      53.215  33.088  53.942  0.00  0.00     0.287 S 
ATOM      2  O   UNL d   1      54.048  33.125  53.935  0.00  0.00    -0.198 OA
ATOM      3  O   UNL d   1      52.390  33.052  53.948  0.00  0.00    -0.198 OA
ENDROOT
BRANCH   1   4
ATOM      4  N   UNL d   1      53.249  32.280  53.757  0.00  0.00    -0.128 NA
BRANCH   4   5
ATOM      5  C   UNL d   1      53.109  31.673  53.219  0.00  0.00     0.232 C 
ATOM      6  S   UNL d   1      52.462  31.713  52.709  0.00  0.00    -0.036 SA
BRANCH   5   7
ATOM      7  N   UNL d   1      53.617  31.025  53.191  0.00  0.00    -0.217 NA
BRANCH   7   8
ATOM      8  C   UNL d   1      53.373  30.302  53.503  0.00  0.00     0.084 A 
ATOM      9  C   UNL d   1      53.747  30.001  54.172  0.00  0.00     0.019 A 
ATOM     10  C   UNL d   1      53.506  29.279  54.486  0.00  0.00     0.002 A 
ATOM     11  C   UNL d   1      52.893  28.861  54.134  0.00  0.00     0.000 A 
ATOM     12  C   UNL d   1      52.519  29.162  53.466  0.00  0.00     0.002 A 
ATOM     13  C   UNL d   1      52.757  29.882  53.149  0.00  0.00     0.019 A 
ENDBRANCH   7   8
ENDBRANCH   5   7
ENDBRANCH   4   5
ENDBRANCH   1   4
BRANCH   1  14
ATOM     14  C   UNL d   1      53.181  33.900  54.128  0.00  0.00     0.105 A 
ATOM     15  C   UNL d   1      53.461  34.161  54.859  0.00  0.00     0.013 A 
ATOM     16  C   UNL d   1      53.430  34.971  55.052  0.00  0.00     0.007 A 
ATOM     17  C   UNL d   1      53.117  35.518  54.505  0.00  0.00     0.035 A 
ATOM     18  C   UNL d   1      52.838  35.248  53.772  0.00  0.00     0.007 A 
ATOM     19 BR   UNL d   1      53.089  36.319  54.700  0.00  0.00    -0.049 Br
ATOM     20  C   UNL d   1      52.868  34.446  53.581  0.00  0.00     0.013 A 
ENDBRANCH   1  14
TORSDOF 5
ENDMDL
MODEL 4
REMARK VINA RESULT:      -6.0      3.099      4.390
REMARK  5 active torsions:
REMARK  status: ('A' for Active; 'I' for Inactive)
REMARK    1  A    between atoms: N_2  and  S_1 
REMARK    2  A    between atoms: C_4  and  S_1 
REMARK    3  A    between atoms: C_3  and  N_2 
REMARK    4  A    between atoms: N_7  and  C_3 
REMARK    5  A    between atoms: C_15  and  N_7 
ROOT
ATOM      1  S   UNL d   1      53.113  31.443  53.321  0.00  0.00     0.287 S 
ATOM      2  O   UNL d   1      53.906  31.588  53.537  0.00  0.00    -0.198 OA
ATOM      3  O   UNL d   1      52.329  31.298  53.108  0.00  0.00    -0.198 OA
ENDROOT
BRANCH   1   4
ATOM      4  N   UNL d   1      53.060  32.207  53.004  0.00  0.00    -0.128 NA
BRANCH   4   5
ATOM      5  C   UNL d   1      52.832  32.993  53.093  0.00  0.00     0.232 C 
ATOM      6  S   UNL d   1      52.034  33.199  53.062  0.00  0.00    -0.036 SA
BRANCH   5   7
ATOM      7  N   UNL d   1      53.404  33.574  53.212  0.00  0.00    -0.217 NA
BRANCH   7   8
ATOM      8  C   UNL d   1      53.233  34.220  53.697  0.00  0.00     0.084 A 
ATOM      9  C   UNL d   1      52.808  34.856  53.391  0.00  0.00     0.019 A 
ATOM     10  C   UNL d   1      52.636  35.502  53.872  0.00  0.00     0.002 A 
ATOM     11  C   UNL d   1      52.888  35.512  54.654  0.00  0.00     0.000 A 
ATOM     12  C   UNL d   1      53.312  34.876  54.958  0.00  0.00     0.002 A 
ATOM     13  C   UNL d   1      53.486  34.230  54.482  0.00  0.00     0.019 A 
ENDBRANCH   7   8
ENDBRANCH   5   7
ENDBRANCH   4   5
ENDBRANCH   1   4
BRANCH   1  14
ATOM     14  C   UNL d   1      53.168  30.674  53.640  0.00  0.00     0.105 A 
ATOM     15  C   UNL d   1      53.351  30.578  54.439  0.00  0.00     0.013 A 
ATOM     16  C   UNL d   1      53.407  29.813  54.765  0.00  0.00     0.007 A 
ATOM     17  C   UNL d   1      53.279  29.145  54.283  0.00  0.00     0.035 A 
ATOM     18  C   UNL d   1      53.096  29.249  53.480  0.00  0.00     0.007 A 
ATOM     19 BR   UNL d   1      53.336  28.389  54.609  0.00  0.00    -0.049 Br
ATOM     20  C   UNL d   1      53.040  30.006  53.158  0.00  0.00     0.013 A 
ENDBRANCH   1  14
TORSDOF 5
ENDMDL
MODEL 5
REMARK VINA RESULT:      -5.0     10.604     11.497
REMARK  5 active torsions:
REMARK  status: ('A' for Active; 'I' for Inactive)
REMARK    1  A    between atoms: N_2  and  S_1 
REMARK    2  A    between atoms: C_4  and  S_1 
REMARK    3  A    between atoms: C_3  and  N_2 
REMARK    4  A    between atoms: N_7  and  C_3 
REMARK    5  A    between atoms: C_15  and  N_7 
ROOT
ATOM      1  S   UNL d   1      44.395  30.737  61.284  0.00  0.00     0.287 S 
ATOM      2  O   UNL d   1      44.406  29.929  61.492  0.00  0.00    -0.198 OA
ATOM      3  O   UNL d   1      44.384  31.536  61.079  0.00  0.00    -0.198 OA
ENDROOT
BRANCH   1   4
ATOM      4  N   UNL d   1      44.415  30.530  60.481  0.00  0.00    -0.128 NA
BRANCH   4   5
ATOM      5  C   UNL d   1      44.658  30.009  59.893  0.00  0.00     0.232 C 
ATOM      6  S   UNL d   1      44.360  29.240  59.872  0.00  0.00    -0.036 SA
BRANCH   5   7
ATOM      7  N   UNL d   1      45.201  30.257  59.324  0.00  0.00    -0.217 NA
BRANCH   7   8
ATOM      8  C   UNL d   1      45.030  30.148  58.524  0.00  0.00     0.084 A 
ATOM      9  C   UNL d   1      44.772  30.788  58.073  0.00  0.00     0.019 A 
ATOM     10  C   UNL d   1      44.602  30.683  57.275  0.00  0.00     0.002 A 
ATOM     11  C   UNL d   1      44.688  29.944  56.929  0.00  0.00     0.000 A 
ATOM     12  C   UNL d   1      44.946  29.305  57.379  0.00  0.00     0.002 A 
ATOM     13  C   UNL d   1      45.117  29.405  58.177  0.00  0.00     0.019 A 
ENDBRANCH   7   8
ENDBRANCH   5   7
ENDBRANCH   4   5
ENDBRANCH   1   4
BRANCH   1  14
ATOM     14  C   UNL d   1      44.375  30.944  62.092  0.00  0.00     0.105 A 
ATOM     15  C   UNL d   1      44.348  31.740  62.306  0.00  0.00     0.013 A 
ATOM     16  C   UNL d   1      44.328  31.954  63.112  0.00  0.00     0.007 A 
ATOM     17  C   UNL d   1      44.335  31.363  63.700  0.00  0.00     0.035 A 
ATOM     18  C   UNL d   1      44.361  30.564  63.476  0.00  0.00     0.007 A 
ATOM     19 BR   UNL d   1      44.314  31.579  64.496  0.00  0.00    -0.049 Br
ATOM     20  C   UNL d   1      44.381  30.352  62.679  0.00  0.00     0.013 A 
ENDBRANCH   1  14
TORSDOF 5
ENDMDL
MODEL 6
REMARK VINA RESULT:      -4.8     10.329     10.973
REMARK  5 active torsions:
REMARK  status: ('A' for Active; 'I' for Inactive)
REMARK    1  A    between atoms: N_2  and  S_1 
REMARK    2  A    between atoms: C_4  and  S_1 
REMARK    3  A    between atoms: C_3  and  N_2 
REMARK    4  A    between atoms: N_7  and  C_3 
REMARK    5  A    between atoms: C_15  and  N_7 
ROOT
ATOM      1  S   UNL d   1      45.047  27.965  58.400  0.00  0.00     0.287 S 
ATOM      2  O   UNL d   1      44.987  27.415  59.024  0.00  0.00    -0.198 OA
ATOM      3  O   UNL d   1      45.107  28.509  57.782  0.00  0.00    -0.198 OA
ENDROOT
BRANCH   1   4
ATOM      4  N   UNL d   1      45.123  28.581  58.951  0.00  0.00    -0.128 NA
BRANCH   4   5
ATOM      5  C   UNL d   1      44.927  29.344  59.186  0.00  0.00     0.232 C 
ATOM      6  S   UNL d   1      45.340  29.990  58.881  0.00  0.00    -0.036 SA
BRANCH   5   7
ATOM      7  N   UNL d   1      44.318  29.462  59.728  0.00  0.00    -0.217 NA
BRANCH   7   8
ATOM      8  C   UNL d   1      44.447  29.940  60.388  0.00  0.00     0.084 A 
ATOM      9  C   UNL d   1      44.710  29.601  61.091  0.00  0.00     0.019 A 
ATOM     10  C   UNL d   1      44.840  30.075  61.751  0.00  0.00     0.002 A 
ATOM     11  C   UNL d   1      44.708  30.884  61.710  0.00  0.00     0.000 A 
ATOM     12  C   UNL d   1      44.445  31.223  61.008  0.00  0.00     0.002 A 
ATOM     13  C   UNL d   1      44.314  30.754  60.346  0.00  0.00     0.019 A 
ENDBRANCH   7   8
ENDBRANCH   5   7
ENDBRANCH   4   5
ENDBRANCH   1   4
BRANCH   1  14
ATOM     14  C   UNL d   1      44.970  27.345  57.847  0.00  0.00     0.105 A 
ATOM     15  C   UNL d   1      44.556  26.664  58.057  0.00  0.00     0.013 A 
ATOM     16  C   UNL d   1      44.475  26.040  57.509  0.00  0.00     0.007 A 
ATOM     17  C   UNL d   1      44.814  26.107  56.750  0.00  0.00     0.035 A 
ATOM     18  C   UNL d   1      45.229  26.795  56.547  0.00  0.00     0.007 A 
ATOM     19 BR   UNL d   1      44.731  25.487  56.211  0.00  0.00    -0.049 Br
ATOM     20  C   UNL d   1      45.309  27.412  57.088  0.00  0.00     0.013 A 
ENDBRANCH   1  14
TORSDOF 5
ENDMDL
