MODEL 1
REMARK VINA RESULT:      -6.7      0.000      0.000
REMARK  8 active torsions:
REMARK  status: ('A' for Active; 'I' for Inactive)
REMARK    1  A    between atoms: S_10  and  C_2 
REMARK    2  A    between atoms: C_7  and  C_4 
REMARK    3  A    between atoms: C_17  and  S_10 
REMARK    4  A    between atoms: C_14  and  C_17 
REMARK    5  A    between atoms: O_18  and  C_14 
REMARK    6  A    between atoms: O_19  and  C_15 
REMARK    7  A    between atoms: C_22  and  O_18 
REMARK    8  A    between atoms: C_23  and  O_19 
ROOT
ATOM      1  C   UNL d   1     -48.141  12.590  23.183  0.00  0.00     0.093 A 
ATOM      2  C   UNL d   1     -47.311  12.656  23.219  0.00  0.00     0.124 A 
ATOM      3  N   UNL d   1     -46.952  13.392  23.111  0.00  0.00    -0.200 NA
ATOM      4  C   UNL d   1     -48.600  13.260  23.039  0.00  0.00     0.028 A 
ATOM      5  C   UNL d   1     -48.242  13.992  22.932  0.00  0.00     0.127 A 
ATOM      6  C   UNL d   1     -47.412  14.058  22.968  0.00  0.00     0.289 A 
ATOM      7  C   UNL d   1     -48.500  11.862  23.289  0.00  0.00     0.103 C 
ATOM      8  C   UNL d   1     -48.701  14.661  22.789  0.00  0.00     0.106 C 
ATOM      9  N   UNL d   1     -48.851  11.139  23.395  0.00  0.00    -0.191 NA
ATOM     10  N   UNL d   1     -49.153  15.321  22.648  0.00  0.00    -0.191 NA
ATOM     11  O   UNL d   1     -47.070  14.878  22.844  0.00  0.00    -0.264 OA
ENDROOT
BRANCH   2  12
ATOM     12  S   UNL d   1     -46.879  11.919  23.372  0.00  0.00    -0.061 SA
BRANCH  12  13
ATOM     13  C   UNL d   1     -46.039  11.816  23.579  0.00  0.00     0.105 C 
BRANCH  13  14
ATOM     14  C   UNL d   1     -45.708  11.014  23.626  0.00  0.00     0.307 C 
ATOM     15  O   UNL d   1     -46.006  10.583  23.698  0.00  0.00    -0.258 OA
BRANCH  14  16
ATOM     16  O   UNL d   1     -44.827  10.976  23.542  0.00  0.00    -0.271 OA
BRANCH  16  17
ATOM     17  C   UNL d   1     -44.460  10.161  23.677  0.00  0.00     0.126 C 
ATOM     18  C   UNL d   1     -43.531  10.255  23.601  0.00  0.00     0.029 C 
ENDBRANCH  16  17
ENDBRANCH  14  16
ENDBRANCH  13  14
ENDBRANCH  12  13
ENDBRANCH   2  12
BRANCH   4  19
ATOM     19  C   UNL d   1     -49.418  13.195  23.004  0.00  0.00     0.024 A 
ATOM     20  C   UNL d   1     -49.787  13.036  22.287  0.00  0.00     0.100 A 
ATOM     21  C   UNL d   1     -50.610  12.970  22.251  0.00  0.00     0.025 A 
ATOM     22  C   UNL d   1     -51.062  13.064  22.933  0.00  0.00     0.002 A 
ATOM     23  C   UNL d   1     -50.691  13.224  23.654  0.00  0.00     0.000 A 
ATOM     24  C   UNL d   1     -49.868  13.289  23.690  0.00  0.00     0.002 A 
BRANCH  20  25
ATOM     25  O   UNL d   1     -49.477  12.944  21.669  0.00  0.00    -0.305 OA
BRANCH  25  26
ATOM     26  C   UNL d   1     -49.971  12.681  21.090  0.00  0.00     0.123 C 
ATOM     27  C   UNL d   1     -49.639  12.691  20.222  0.00  0.00     0.029 C 
ENDBRANCH  25  26
ENDBRANCH  20  25
ENDBRANCH   4  19
TORSDOF 8
ENDMDL
MODEL 2
REMARK VINA RESULT:      -6.7      1.569      2.295
REMARK  8 active torsions:
REMARK  status: ('A' for Active; 'I' for Inactive)
REMARK    1  A    between atoms: S_10  and  C_2 
REMARK    2  A    between atoms: C_7  and  C_4 
REMARK    3  A    between atoms: C_17  and  S_10 
REMARK    4  A    between atoms: C_14  and  C_17 
REMARK    5  A    between atoms: O_18  and  C_14 
REMARK    6  A    between atoms: O_19  and  C_15 
REMARK    7  A    between atoms: C_22  and  O_18 
REMARK    8  A    between atoms: C_23  and  O_19 
ROOT
ATOM      1  C   UNL d   1     -48.350  13.516  22.938  0.00  0.00     0.093 A 
ATOM      2  C   UNL d   1     -47.705  12.993  23.002  0.00  0.00     0.124 A 
ATOM      3  N   UNL d   1     -47.830  12.212  23.239  0.00  0.00    -0.200 NA
ATOM      4  C   UNL d   1     -49.112  13.252  23.113  0.00  0.00     0.028 A 
ATOM      5  C   UNL d   1     -49.235  12.474  23.349  0.00  0.00     0.127 A 
ATOM      6  C   UNL d   1     -48.590  11.951  23.412  0.00  0.00     0.289 A 
ATOM      7  C   UNL d   1     -48.229  14.291  22.703  0.00  0.00     0.103 C 
ATOM      8  C   UNL d   1     -49.997  12.210  23.523  0.00  0.00     0.106 C 
ATOM      9  N   UNL d   1     -48.105  15.058  22.470  0.00  0.00    -0.191 NA
ATOM     10  N   UNL d   1     -50.746  11.949  23.695  0.00  0.00    -0.191 NA
ATOM     11  O   UNL d   1     -48.778  11.113  23.674  0.00  0.00    -0.264 OA
ENDROOT
BRANCH   2  12
ATOM     12  S   UNL d   1     -46.928  13.326  22.806  0.00  0.00    -0.061 SA
BRANCH  12  13
ATOM     13  C   UNL d   1     -46.235  12.922  22.464  0.00  0.00     0.105 C 
BRANCH  13  14
ATOM     14  C   UNL d   1     -45.471  13.335  22.439  0.00  0.00     0.307 C 
ATOM     15  O   UNL d   1     -45.418  13.849  22.552  0.00  0.00    -0.258 OA
BRANCH  14  16
ATOM     16  O   UNL d   1     -44.785  12.824  22.209  0.00  0.00    -0.271 OA
BRANCH  16  17
ATOM     17  C   UNL d   1     -44.296  13.125  21.512  0.00  0.00     0.126 C 
ATOM     18  C   UNL d   1     -43.531  12.585  21.452  0.00  0.00     0.029 C 
ENDBRANCH  16  17
ENDBRANCH  14  16
ENDBRANCH  13  14
ENDBRANCH  12  13
ENDBRANCH   2  12
BRANCH   4  19
ATOM     19  C   UNL d   1     -49.748  13.767  23.050  0.00  0.00     0.024 A 
ATOM     20  C   UNL d   1     -50.185  13.798  22.355  0.00  0.00     0.100 A 
ATOM     21  C   UNL d   1     -50.825  14.317  22.292  0.00  0.00     0.025 A 
ATOM     22  C   UNL d   1     -51.027  14.804  22.925  0.00  0.00     0.002 A 
ATOM     23  C   UNL d   1     -50.587  14.772  23.624  0.00  0.00     0.000 A 
ATOM     24  C   UNL d   1     -49.947  14.254  23.687  0.00  0.00     0.002 A 
BRANCH  20  25
ATOM     25  O   UNL d   1     -50.079  13.421  21.778  0.00  0.00    -0.305 OA
BRANCH  25  26
ATOM     26  C   UNL d   1     -50.652  13.509  21.219  0.00  0.00     0.123 C 
ATOM     27  C   UNL d   1     -50.530  13.049  20.421  0.00  0.00     0.029 C 
ENDBRANCH  25  26
ENDBRANCH  20  25
ENDBRANCH   4  19
TORSDOF 8
ENDMDL
MODEL 3
REMARK VINA RESULT:      -4.4      7.021      9.324
REMARK  8 active torsions:
REMARK  status: ('A' for Active; 'I' for Inactive)
REMARK    1  A    between atoms: S_10  and  C_2 
REMARK    2  A    between atoms: C_7  and  C_4 
REMARK    3  A    between atoms: C_17  and  S_10 
REMARK    4  A    between atoms: C_14  and  C_17 
REMARK    5  A    between atoms: O_18  and  C_14 
REMARK    6  A    between atoms: O_19  and  C_15 
REMARK    7  A    between atoms: C_22  and  O_18 
REMARK    8  A    between atoms: C_23  and  O_19 
ROOT
ATOM      1  C   UNL d   1     -40.514  14.470  19.725  0.00  0.00     0.093 A 
ATOM      2  C   UNL d   1     -40.822  14.300  20.480  0.00  0.00     0.124 A 
ATOM      3  N   UNL d   1     -40.409  14.538  21.155  0.00  0.00    -0.200 NA
ATOM      4  C   UNL d   1     -39.798  14.875  19.654  0.00  0.00     0.028 A 
ATOM      5  C   UNL d   1     -39.389  15.111  20.327  0.00  0.00     0.127 A 
ATOM      6  C   UNL d   1     -39.696  14.941  21.082  0.00  0.00     0.289 A 
ATOM      7  C   UNL d   1     -40.921  14.236  19.054  0.00  0.00     0.103 C 
ATOM      8  C   UNL d   1     -38.674  15.515  20.255  0.00  0.00     0.106 C 
ATOM      9  N   UNL d   1     -41.327  14.002  18.391  0.00  0.00    -0.191 NA
ATOM     10  N   UNL d   1     -37.970  15.913  20.187  0.00  0.00    -0.191 NA
ATOM     11  O   UNL d   1     -39.211  15.220  21.783  0.00  0.00    -0.264 OA
ENDROOT
BRANCH   2  12
ATOM     12  S   UNL d   1     -41.577  13.873  20.494  0.00  0.00    -0.061 SA
BRANCH  12  13
ATOM     13  C   UNL d   1     -42.002  13.545  21.180  0.00  0.00     0.105 C 
BRANCH  13  14
ATOM     14  C   UNL d   1     -42.742  13.107  21.052  0.00  0.00     0.307 C 
ATOM     15  O   UNL d   1     -42.786  12.712  20.705  0.00  0.00    -0.258 OA
BRANCH  14  16
ATOM     16  O   UNL d   1     -43.419  13.379  21.555  0.00  0.00    -0.271 OA
BRANCH  16  17
ATOM     17  C   UNL d   1     -44.069  12.766  21.691  0.00  0.00     0.126 C 
ATOM     18  C   UNL d   1     -44.823  13.222  22.011  0.00  0.00     0.029 C 
ENDBRANCH  16  17
ENDBRANCH  14  16
ENDBRANCH  13  14
ENDBRANCH  12  13
ENDBRANCH   2  12
BRANCH   4  19
ATOM     19  C   UNL d   1     -39.495  15.042  18.909  0.00  0.00     0.024 A 
ATOM     20  C   UNL d   1     -38.985  14.511  18.544  0.00  0.00     0.100 A 
ATOM     21  C   UNL d   1     -38.680  14.679  17.795  0.00  0.00     0.025 A 
ATOM     22  C   UNL d   1     -38.886  15.378  17.412  0.00  0.00     0.002 A 
ATOM     23  C   UNL d   1     -39.399  15.913  17.780  0.00  0.00     0.000 A 
ATOM     24  C   UNL d   1     -39.704  15.744  18.529  0.00  0.00     0.002 A 
BRANCH  20  25
ATOM     25  O   UNL d   1     -38.764  13.901  18.801  0.00  0.00    -0.305 OA
BRANCH  25  26
ATOM     26  C   UNL d   1     -38.205  13.539  18.348  0.00  0.00     0.123 C 
ATOM     27  C   UNL d   1     -38.026  12.647  18.541  0.00  0.00     0.029 C 
ENDBRANCH  25  26
ENDBRANCH  20  25
ENDBRANCH   4  19
TORSDOF 8
ENDMDL
