MODEL 1
REMARK VINA RESULT:      16.3      0.000      0.000
REMARK  6 active torsions:
REMARK  status: ('A' for Active; 'I' for Inactive)
REMARK    1  A    between atoms: C_5  and  C_4 
REMARK    2  A    between atoms: C_6  and  C_5 
REMARK       I    between atoms: N_9  and  C_6 
REMARK    3  A    between atoms: C_10  and  N_9 
REMARK    4  A    between atoms: O_14  and  C_13 
REMARK    5  A    between atoms: C_19  and  O_14 
REMARK    6  A    between atoms: C_20  and  C_19 
ROOT
ATOM      1  C   UNL d   1      45.982 -16.984  44.679  0.00  0.00     0.281 C 
ATOM      2  N   UNL d   1      46.077 -16.185  44.608  0.00  0.00    -0.206 NA
ATOM      3  O   UNL d   1      45.249 -17.287  44.872  0.00  0.00    -0.265 OA
ENDROOT
BRANCH   1   4
ATOM      4  C   UNL d   1      46.618 -17.474  44.556  0.00  0.00     0.086 C 
BRANCH   4   5
ATOM      5  C   UNL d   1      46.599 -18.049  43.961  0.00  0.00     0.144 A 
ATOM      6  C   UNL d   1      46.577 -18.850  44.158  0.00  0.00     0.297 A 
ATOM      7  N   UNL d   1      46.558 -19.430  43.569  0.00  0.00    -0.205 NA
ATOM      8  O   UNL d   1      46.574 -19.091  44.952  0.00  0.00    -0.264 OA
ATOM      9  C   UNL d   1      46.561 -19.191  42.768  0.00  0.00     0.102 A 
ATOM     10  C   UNL d   1      46.583 -18.389  42.572  0.00  0.00     0.099 A 
ATOM     11  C   UNL d   1      46.542 -19.770  42.180  0.00  0.00     0.021 A 
ATOM     12  N   UNL d   1      46.602 -17.813  43.173  0.00  0.00    -0.239 NA
ATOM     13  C   UNL d   1      46.586 -18.153  41.784  0.00  0.00     0.021 A 
ATOM     14  C   UNL d   1      46.567 -18.726  41.194  0.00  0.00     0.002 A 
ATOM     15  C   UNL d   1      46.545 -19.528  41.391  0.00  0.00     0.002 A 
ENDBRANCH   4   5
ENDBRANCH   1   4
BRANCH   2  16
ATOM     16  C   UNL d   1      45.417 -15.527  44.726  0.00  0.00     0.107 A 
ATOM     17  C   UNL d   1      45.540 -14.714  44.853  0.00  0.00     0.118 A 
ATOM     18  C   UNL d   1      44.867 -14.248  44.941  0.00  0.00     0.026 A 
ATOM     19  C   UNL d   1      44.078 -14.581  44.904  0.00  0.00     0.002 A 
ATOM     20  C   UNL d   1      44.001 -15.364  44.782  0.00  0.00     0.002 A 
ATOM     21  C   UNL d   1      44.658 -15.847  44.691  0.00  0.00     0.021 A 
BRANCH  17  22
ATOM     22  O   UNL d   1      46.301 -14.368  44.892  0.00  0.00    -0.304 OA
BRANCH  22  23
ATOM     23  C   UNL d   1      46.472 -13.692  44.439  0.00  0.00     0.123 C 
BRANCH  23  24
ATOM     24  C   UNL d   1      46.368 -12.906  44.755  0.00  0.00     0.027 C 
ATOM     25  C   UNL d   1      46.110 -12.260  44.282  0.00  0.00     0.002 C 
ENDBRANCH  23  24
ENDBRANCH  22  23
ENDBRANCH  17  22
ENDBRANCH   2  16
TORSDOF 6
ENDMDL
MODEL 2
REMARK VINA RESULT:      17.9      1.097      4.748
REMARK  6 active torsions:
REMARK  status: ('A' for Active; 'I' for Inactive)
REMARK    1  A    between atoms: C_5  and  C_4 
REMARK    2  A    between atoms: C_6  and  C_5 
REMARK       I    between atoms: N_9  and  C_6 
REMARK    3  A    between atoms: C_10  and  N_9 
REMARK    4  A    between atoms: O_14  and  C_13 
REMARK    5  A    between atoms: C_19  and  O_14 
REMARK    6  A    between atoms: C_20  and  C_19 
ROOT
ATOM      1  C   UNL d   1      46.084 -17.128  44.634  0.00  0.00     0.281 C 
ATOM      2  N   UNL d   1      46.627 -17.725  44.583  0.00  0.00    -0.206 NA
ATOM      3  O   UNL d   1      45.307 -17.272  44.435  0.00  0.00    -0.265 OA
ENDROOT
BRANCH   1   4
ATOM      4  C   UNL d   1      46.324 -16.393  44.884  0.00  0.00     0.086 C 
BRANCH   4   5
ATOM      5  C   UNL d   1      45.889 -15.718  44.685  0.00  0.00     0.144 A 
ATOM      6  C   UNL d   1      45.064 -15.729  44.720  0.00  0.00     0.297 A 
ATOM      7  N   UNL d   1      44.623 -15.059  44.522  0.00  0.00    -0.205 NA
ATOM      8  O   UNL d   1      44.660 -16.415  44.954  0.00  0.00    -0.264 OA
ATOM      9  C   UNL d   1      45.027 -14.366  44.286  0.00  0.00     0.102 A 
ATOM     10  C   UNL d   1      45.853 -14.355  44.251  0.00  0.00     0.099 A 
ATOM     11  C   UNL d   1      44.587 -13.697  44.089  0.00  0.00     0.021 A 
ATOM     12  N   UNL d   1      46.288 -15.037  44.452  0.00  0.00    -0.239 NA
ATOM     13  C   UNL d   1      46.251 -13.674  44.018  0.00  0.00     0.021 A 
ATOM     14  C   UNL d   1      45.816 -13.005  43.821  0.00  0.00     0.002 A 
ATOM     15  C   UNL d   1      44.991 -13.016  43.856  0.00  0.00     0.002 A 
ENDBRANCH   4   5
ENDBRANCH   1   4
BRANCH   2  16
ATOM     16  C   UNL d   1      46.466 -18.610  44.309  0.00  0.00     0.107 A 
ATOM     17  C   UNL d   1      46.478 -18.900  43.530  0.00  0.00     0.118 A 
ATOM     18  C   UNL d   1      46.318 -19.702  43.433  0.00  0.00     0.026 A 
ATOM     19  C   UNL d   1      46.147 -20.213  44.100  0.00  0.00     0.002 A 
ATOM     20  C   UNL d   1      46.144 -19.898  44.830  0.00  0.00     0.002 A 
ATOM     21  C   UNL d   1      46.301 -19.101  44.950  0.00  0.00     0.021 A 
BRANCH  17  22
ATOM     22  O   UNL d   1      46.642 -18.419  42.866  0.00  0.00    -0.304 OA
BRANCH  22  23
ATOM     23  C   UNL d   1      46.224 -18.537  42.156  0.00  0.00     0.123 C 
BRANCH  23  24
ATOM     24  C   UNL d   1      46.584 -18.385  41.397  0.00  0.00     0.027 C 
ATOM     25  C   UNL d   1      46.626 -18.968  40.793  0.00  0.00     0.002 C 
ENDBRANCH  23  24
ENDBRANCH  22  23
ENDBRANCH  17  22
ENDBRANCH   2  16
TORSDOF 6
ENDMDL
