MODEL 1
REMARK VINA RESULT:      -5.7      0.000      0.000
REMARK  3 active torsions:
REMARK  status: ('A' for Active; 'I' for Inactive)
REMARK       I    between atoms: N_2  and  C_1 
REMARK    1  A    between atoms: O_3  and  C_1 
REMARK    2  A    between atoms: C_9  and  O_3 
REMARK    3  A    between atoms: C_5  and  C_6 
ROOT
ATOM      1  C   UNL d   1      56.191  -0.004  32.660  0.00  0.00    -0.023 A 
ATOM      2  C   UNL d   1      56.565  -0.698  32.417  0.00  0.00    -0.002 A 
ATOM      3  C   UNL d   1      56.262   0.682  32.207  0.00  0.00    -0.002 A 
ATOM      4  C   UNL d   1      57.075  -0.020  31.277  0.00  0.00     0.105 A 
ATOM      5  C   UNL d   1      56.705   0.674  31.513  0.00  0.00     0.025 A 
ATOM      6  C   UNL d   1      57.008  -0.706  31.724  0.00  0.00     0.025 A 
ENDROOT
BRANCH   4   7
ATOM      7  O   UNL d   1      57.519  -0.028  30.581  0.00  0.00    -0.259 OA
BRANCH   7   8
ATOM      8  C   UNL d   1      58.294   0.245  30.567  0.00  0.00     0.377 C 
ATOM      9  N   UNL d   1      58.788   0.100  29.920  0.00  0.00    -0.252 N 
ATOM     10  C   UNL d   1      58.490  -0.331  29.276  0.00  0.00     0.085 A 
ATOM     11  C   UNL d   1      59.557   0.377  29.918  0.00  0.00     0.085 A 
ATOM     12  C   UNL d   1      58.975  -0.479  28.630  0.00  0.00     0.019 A 
ATOM     13  C   UNL d   1      59.755  -0.202  28.619  0.00  0.00     0.003 A 
ATOM     14  C   UNL d   1      60.048   0.230  29.269  0.00  0.00     0.019 A 
ATOM     15  O   UNL d   1      58.579   0.682  31.232  0.00  0.00    -0.237 OA
ENDBRANCH   7   8
ENDBRANCH   4   7
BRANCH   1  16
ATOM     16  C   UNL d   1      55.746   0.005  33.357  0.00  0.00     0.019 C 
ATOM     17  C   UNL d   1      55.202  -0.602  33.506  0.00  0.00     0.004 C 
ATOM     18  C   UNL d   1      55.843   0.616  33.902  0.00  0.00     0.004 C 
ATOM     19  C   UNL d   1      55.501  -0.679  32.956  0.00  0.00     0.004 C 
ENDBRANCH   1  16
TORSDOF 3
ENDMDL
MODEL 2
REMARK VINA RESULT:      -5.3      0.955      4.483
REMARK  3 active torsions:
REMARK  status: ('A' for Active; 'I' for Inactive)
REMARK       I    between atoms: N_2  and  C_1 
REMARK    1  A    between atoms: O_3  and  C_1 
REMARK    2  A    between atoms: C_9  and  O_3 
REMARK    3  A    between atoms: C_5  and  C_6 
ROOT
ATOM      1  C   UNL d   1      59.295   0.031  29.567  0.00  0.00    -0.023 A 
ATOM      2  C   UNL d   1      58.584  -0.298  29.310  0.00  0.00    -0.002 A 
ATOM      3  C   UNL d   1      59.336   0.394  30.307  0.00  0.00    -0.002 A 
ATOM      4  C   UNL d   1      57.964   0.100  30.524  0.00  0.00     0.105 A 
ATOM      5  C   UNL d   1      58.668   0.429  30.786  0.00  0.00     0.025 A 
ATOM      6  C   UNL d   1      57.916  -0.263  29.789  0.00  0.00     0.025 A 
ENDROOT
BRANCH   4   7
ATOM      7  O   UNL d   1      57.293   0.135  31.005  0.00  0.00    -0.259 OA
BRANCH   7   8
ATOM      8  C   UNL d   1      57.017  -0.530  31.399  0.00  0.00     0.377 C 
ATOM      9  N   UNL d   1      56.517  -0.464  32.055  0.00  0.00    -0.252 N 
ATOM     10  C   UNL d   1      56.294   0.293  32.314  0.00  0.00     0.085 A 
ATOM     11  C   UNL d   1      56.248  -1.133  32.438  0.00  0.00     0.085 A 
ATOM     12  C   UNL d   1      55.798   0.367  32.965  0.00  0.00     0.019 A 
ATOM     13  C   UNL d   1      55.520  -0.306  33.359  0.00  0.00     0.003 A 
ATOM     14  C   UNL d   1      55.748  -1.063  33.093  0.00  0.00     0.019 A 
ATOM     15  O   UNL d   1      57.254  -1.292  31.120  0.00  0.00    -0.237 OA
ENDBRANCH   7   8
ENDBRANCH   4   7
BRANCH   1  16
ATOM     16  C   UNL d   1      59.966  -0.004  29.085  0.00  0.00     0.019 C 
ATOM     17  C   UNL d   1      60.098   0.585  28.518  0.00  0.00     0.004 C 
ATOM     18  C   UNL d   1      60.503  -0.625  29.169  0.00  0.00     0.004 C 
ATOM     19  C   UNL d   1      59.566   0.682  28.844  0.00  0.00     0.004 C 
ENDBRANCH   1  16
TORSDOF 3
ENDMDL
MODEL 3
REMARK VINA RESULT:      -4.4      1.277      4.380
REMARK  3 active torsions:
REMARK  status: ('A' for Active; 'I' for Inactive)
REMARK       I    between atoms: N_2  and  C_1 
REMARK    1  A    between atoms: O_3  and  C_1 
REMARK    2  A    between atoms: C_9  and  O_3 
REMARK    3  A    between atoms: C_5  and  C_6 
ROOT
ATOM      1  C   UNL d   1      58.464  -0.310  29.960  0.00  0.00    -0.023 A 
ATOM      2  C   UNL d   1      58.263   0.480  30.087  0.00  0.00    -0.002 A 
ATOM      3  C   UNL d   1      58.102  -0.903  30.404  0.00  0.00    -0.002 A 
ATOM      4  C   UNL d   1      57.345   0.081  31.095  0.00  0.00     0.105 A 
ATOM      5  C   UNL d   1      57.541  -0.707  30.974  0.00  0.00     0.025 A 
ATOM      6  C   UNL d   1      57.702   0.676  30.656  0.00  0.00     0.025 A 
ENDROOT
BRANCH   4   7
ATOM      7  O   UNL d   1      56.782   0.277  31.666  0.00  0.00    -0.259 OA
BRANCH   7   8
ATOM      8  C   UNL d   1      56.992   0.379  32.454  0.00  0.00     0.377 C 
ATOM      9  N   UNL d   1      56.418   0.481  33.041  0.00  0.00    -0.252 N 
ATOM     10  C   UNL d   1      55.617   0.479  32.823  0.00  0.00     0.085 A 
ATOM     11  C   UNL d   1      56.639   0.580  33.821  0.00  0.00     0.085 A 
ATOM     12  C   UNL d   1      55.041   0.580  33.401  0.00  0.00     0.019 A 
ATOM     13  C   UNL d   1      55.256   0.682  34.193  0.00  0.00     0.003 A 
ATOM     14  C   UNL d   1      56.062   0.682  34.405  0.00  0.00     0.019 A 
ATOM     15  O   UNL d   1      57.812   0.377  32.656  0.00  0.00    -0.237 OA
ENDBRANCH   7   8
ENDBRANCH   4   7
BRANCH   1  16
ATOM     16  C   UNL d   1      59.028  -0.507  29.388  0.00  0.00     0.019 C 
ATOM     17  C   UNL d   1      58.788  -0.850  28.673  0.00  0.00     0.004 C 
ATOM     18  C   UNL d   1      59.827  -0.362  29.529  0.00  0.00     0.004 C 
ATOM     19  C   UNL d   1      58.301  -0.729  29.056  0.00  0.00     0.004 C 
ENDBRANCH   1  16
TORSDOF 3
ENDMDL
