MODEL 1
REMARK VINA RESULT:      19.3      0.000      0.000
REMARK  1 active torsions:
REMARK  status: ('A' for Active; 'I' for Inactive)
REMARK    1  A    between atoms: C_6  and  C_1 
ROOT
ATOM      1  C   UNL d   1      60.341  49.698  51.410  0.00  0.00     0.085 A 
ATOM      2  C   UNL d   1      60.811  49.696  50.726  0.00  0.00     0.137 A 
ATOM      3  S   UNL d   1      60.337  49.697  50.096  0.00  0.00    -0.066 SA
ATOM      4  C   UNL d   1      59.556  49.701  51.167  0.00  0.00     0.013 A 
ATOM      5  C   UNL d   1      59.554  49.700  50.349  0.00  0.00     0.031 A 
ATOM      6  N   UNL d   1      61.652  49.693  50.701  0.00  0.00    -0.141 N 
ATOM      7  C   UNL d   1      58.840  49.704  51.579  0.00  0.00     0.001 A 
ATOM      8  C   UNL d   1      58.836  49.702  49.941  0.00  0.00     0.006 A 
ATOM      9  C   UNL d   1      58.123  49.706  51.170  0.00  0.00     0.000 A 
ATOM     10  C   UNL d   1      58.121  49.705  50.352  0.00  0.00     0.001 A 
ENDROOT
BRANCH   1  11
ATOM     11  C   UNL d   1      60.616  49.698  52.227  0.00  0.00     0.299 C 
ATOM     12  O   UNL d   1      60.062  49.689  52.852  0.00  0.00    -0.264 OA
ATOM     13  N   UNL d   1      61.429  49.707  52.398  0.00  0.00    -0.102 N 
ENDBRANCH   1  11
TORSDOF 1
ENDMDL
MODEL 2
REMARK VINA RESULT:      19.8      1.300      1.799
REMARK  1 active torsions:
REMARK  status: ('A' for Active; 'I' for Inactive)
REMARK    1  A    between atoms: C_6  and  C_1 
ROOT
ATOM      1  C   UNL d   1      59.689  49.660  50.825  0.00  0.00     0.085 A 
ATOM      2  C   UNL d   1      59.505  49.678  51.634  0.00  0.00     0.137 A 
ATOM      3  S   UNL d   1      58.721  49.697  51.713  0.00  0.00    -0.066 SA
ATOM      4  C   UNL d   1      58.978  49.669  50.413  0.00  0.00     0.013 A 
ATOM      5  C   UNL d   1      58.376  49.692  50.965  0.00  0.00     0.031 A 
ATOM      6  N   UNL d   1      60.057  49.677  52.269  0.00  0.00    -0.141 N 
ATOM      7  C   UNL d   1      58.796  49.659  49.607  0.00  0.00     0.001 A 
ATOM      8  C   UNL d   1      57.589  49.705  50.714  0.00  0.00     0.006 A 
ATOM      9  C   UNL d   1      58.010  49.672  49.356  0.00  0.00     0.000 A 
ATOM     10  C   UNL d   1      57.407  49.695  49.909  0.00  0.00     0.001 A 
ENDROOT
BRANCH   1  11
ATOM     11  C   UNL d   1      60.476  49.637  50.473  0.00  0.00     0.299 C 
ATOM     12  O   UNL d   1      60.564  49.704  49.645  0.00  0.00    -0.264 OA
ATOM     13  N   UNL d   1      61.148  49.547  50.953  0.00  0.00    -0.102 N 
ENDBRANCH   1  11
TORSDOF 1
ENDMDL
MODEL 3
REMARK VINA RESULT:      19.8      1.897      2.555
REMARK  1 active torsions:
REMARK  status: ('A' for Active; 'I' for Inactive)
REMARK    1  A    between atoms: C_6  and  C_1 
ROOT
ATOM      1  C   UNL d   1      58.469  49.699  50.497  0.00  0.00     0.085 A 
ATOM      2  C   UNL d   1      58.754  49.704  49.717  0.00  0.00     0.137 A 
ATOM      3  S   UNL d   1      59.542  49.707  49.738  0.00  0.00    -0.066 SA
ATOM      4  C   UNL d   1      59.122  49.699  50.995  0.00  0.00     0.013 A 
ATOM      5  C   UNL d   1      59.789  49.704  50.523  0.00  0.00     0.031 A 
ATOM      6  N   UNL d   1      58.286  49.706  49.018  0.00  0.00    -0.141 N 
ATOM      7  C   UNL d   1      59.201  49.696  51.817  0.00  0.00     0.001 A 
ATOM      8  C   UNL d   1      60.538  49.705  50.871  0.00  0.00     0.006 A 
ATOM      9  C   UNL d   1      59.949  49.697  52.165  0.00  0.00     0.000 A 
ATOM     10  C   UNL d   1      60.617  49.701  51.693  0.00  0.00     0.001 A 
ENDROOT
BRANCH   1  11
ATOM     11  C   UNL d   1      57.643  49.695  50.746  0.00  0.00     0.299 C 
ATOM     12  O   UNL d   1      57.455  49.707  51.560  0.00  0.00    -0.264 OA
ATOM     13  N   UNL d   1      57.033  49.680  50.183  0.00  0.00    -0.102 N 
ENDBRANCH   1  11
TORSDOF 1
ENDMDL
MODEL 4
REMARK VINA RESULT:      20.2      2.450      3.045
REMARK  1 active torsions:
REMARK  status: ('A' for Active; 'I' for Inactive)
REMARK    1  A    between atoms: C_6  and  C_1 
ROOT
ATOM      1  C   UNL d   1      57.480  49.606  50.410  0.00  0.00     0.085 A 
ATOM      2  C   UNL d   1      57.526  49.662  49.583  0.00  0.00     0.137 A 
ATOM      3  S   UNL d   1      58.285  49.707  49.376  0.00  0.00    -0.066 SA
ATOM      4  C   UNL d   1      58.249  49.618  50.699  0.00  0.00     0.013 A 
ATOM      5  C   UNL d   1      58.750  49.681  50.055  0.00  0.00     0.031 A 
ATOM      6  N   UNL d   1      56.876  49.670  49.049  0.00  0.00    -0.141 N 
ATOM      7  C   UNL d   1      58.563  49.581  51.461  0.00  0.00     0.001 A 
ATOM      8  C   UNL d   1      59.567  49.707  50.173  0.00  0.00     0.006 A 
ATOM      9  C   UNL d   1      59.379  49.607  51.579  0.00  0.00     0.000 A 
ATOM     10  C   UNL d   1      59.881  49.670  50.935  0.00  0.00     0.001 A 
ENDROOT
BRANCH   1  11
ATOM     11  C   UNL d   1      56.763  49.545  50.885  0.00  0.00     0.299 C 
ATOM     12  O   UNL d   1      56.043  49.320  50.526  0.00  0.00    -0.264 OA
ATOM     13  N   UNL d   1      56.783  49.708  51.700  0.00  0.00    -0.102 N 
ENDBRANCH   1  11
TORSDOF 1
ENDMDL
