MODEL 1
REMARK VINA RESULT:      -5.3      0.000      0.000
REMARK  2 active torsions:
REMARK  status: ('A' for Active; 'I' for Inactive)
REMARK    1  A    between atoms: N_2  and  C_1 
REMARK    2  A    between atoms: C_5  and  N_2 
ROOT
ATOM      1  C   UNL d   1     -46.859  12.544  23.547  0.00  0.00     0.084 A 
ATOM      2  C   UNL d   1     -47.654  12.716  23.419  0.00  0.00     0.019 A 
ATOM      3  C   UNL d   1     -46.615  11.775  23.685  0.00  0.00     0.019 A 
ATOM      4  C   UNL d   1     -47.168  11.162  23.698  0.00  0.00     0.001 A 
ATOM      5  C   UNL d   1     -48.212  12.106  23.431  0.00  0.00     0.001 A 
ATOM      6  C   UNL d   1     -47.975  11.327  23.570  0.00  0.00     0.000 A 
ENDROOT
BRANCH   1   7
ATOM      7  N   UNL d   1     -46.300  13.150  23.536  0.00  0.00    -0.216 NA
BRANCH   7   8
ATOM      8  C   UNL d   1     -46.172  13.584  22.853  0.00  0.00     0.241 C 
ATOM      9  S   UNL d   1     -46.505  14.327  22.756  0.00  0.00    -0.036 SA
ATOM     10  N   UNL d   1     -45.700  13.268  22.252  0.00  0.00    -0.114 N 
ENDBRANCH   7   8
ENDBRANCH   1   7
TORSDOF 2
ENDMDL
MODEL 2
REMARK VINA RESULT:      -5.1      1.916      2.650
REMARK  2 active torsions:
REMARK  status: ('A' for Active; 'I' for Inactive)
REMARK    1  A    between atoms: N_2  and  C_1 
REMARK    2  A    between atoms: C_5  and  N_2 
ROOT
ATOM      1  C   UNL d   1     -47.841  13.402  22.878  0.00  0.00     0.084 A 
ATOM      2  C   UNL d   1     -47.384  12.776  23.156  0.00  0.00     0.019 A 
ATOM      3  C   UNL d   1     -47.501  14.129  22.716  0.00  0.00     0.019 A 
ATOM      4  C   UNL d   1     -46.691  14.240  22.831  0.00  0.00     0.001 A 
ATOM      5  C   UNL d   1     -46.572  12.883  23.273  0.00  0.00     0.001 A 
ATOM      6  C   UNL d   1     -46.221  13.613  23.112  0.00  0.00     0.000 A 
ENDROOT
BRANCH   1   7
ATOM      7  N   UNL d   1     -48.651  13.299  22.760  0.00  0.00    -0.216 NA
BRANCH   7   8
ATOM      8  C   UNL d   1     -48.926  12.884  22.109  0.00  0.00     0.241 C 
ATOM      9  S   UNL d   1     -49.227  12.125  22.189  0.00  0.00    -0.036 SA
ATOM     10  N   UNL d   1     -48.900  13.235  21.361  0.00  0.00    -0.114 N 
ENDBRANCH   7   8
ENDBRANCH   1   7
TORSDOF 2
ENDMDL
MODEL 3
REMARK VINA RESULT:      -5.0      2.141      2.767
REMARK  2 active torsions:
REMARK  status: ('A' for Active; 'I' for Inactive)
REMARK    1  A    between atoms: N_2  and  C_1 
REMARK    2  A    between atoms: C_5  and  N_2 
ROOT
ATOM      1  C   UNL d   1     -49.246  11.799  22.829  0.00  0.00     0.084 A 
ATOM      2  C   UNL d   1     -49.573  12.173  22.172  0.00  0.00     0.019 A 
ATOM      3  C   UNL d   1     -49.644  11.785  23.543  0.00  0.00     0.019 A 
ATOM      4  C   UNL d   1     -50.382  12.148  23.612  0.00  0.00     0.001 A 
ATOM      5  C   UNL d   1     -50.312  12.537  22.235  0.00  0.00     0.001 A 
ATOM      6  C   UNL d   1     -50.721  12.528  22.952  0.00  0.00     0.000 A 
ENDROOT
BRANCH   1   7
ATOM      7  N   UNL d   1     -48.508  11.434  22.769  0.00  0.00    -0.216 NA
BRANCH   7   8
ATOM      8  C   UNL d   1     -47.837  11.806  23.056  0.00  0.00     0.241 C 
ATOM      9  S   UNL d   1     -47.427  11.501  23.698  0.00  0.00    -0.036 SA
ATOM     10  N   UNL d   1     -47.568  12.499  22.693  0.00  0.00    -0.114 N 
ENDBRANCH   7   8
ENDBRANCH   1   7
TORSDOF 2
ENDMDL
