MODEL 1
REMARK VINA RESULT:      -2.5      0.000      0.000
REMARK  4 active torsions:
REMARK  status: ('A' for Active; 'I' for Inactive)
REMARK    1  A    between atoms: C_5  and  N_1 
REMARK    2  A    between atoms: C_7  and  C_5 
REMARK    3  A    between atoms: O_14  and  C_10 
REMARK    4  A    between atoms: C_17  and  O_14 
ROOT
ATOM      1  N   UNL d   1      30.894  16.638 -24.693  0.00  0.00    -0.251 N 
ATOM      2  C   UNL d   1      31.009  15.837 -24.869  0.00  0.00     0.378 A 
ATOM      3  C   UNL d   1      30.095  16.749 -24.509  0.00  0.00     0.092 A 
ATOM      4  O   UNL d   1      30.280  15.453 -24.792  0.00  0.00    -0.258 OA
ATOM      5  C   UNL d   1      29.717  16.017 -24.571  0.00  0.00     0.121 A 
ATOM      6  O   UNL d   1      31.721  15.482 -25.081  0.00  0.00    -0.237 OA
ATOM      7  C   UNL d   1      29.674  17.421 -24.296  0.00  0.00     0.020 A 
ATOM      8  C   UNL d   1      28.905  15.967 -24.414  0.00  0.00     0.026 A 
ATOM      9  C   UNL d   1      28.870  17.368 -24.142  0.00  0.00     0.002 A 
ATOM     10  C   UNL d   1      28.485  16.640 -24.201  0.00  0.00     0.002 A 
ATOM     11  C   UNL d   1      28.447  18.041 -23.928  0.00  0.00     0.000 C 
ENDROOT
BRANCH   1  12
ATOM     12  C   UNL d   1      31.449  17.248 -24.691  0.00  0.00     0.087 C 
BRANCH  12  13
ATOM     13  C   UNL d   1      32.004  17.305 -24.081  0.00  0.00     0.041 A 
ATOM     14  C   UNL d   1      32.508  17.941 -24.045  0.00  0.00     0.102 A 
ATOM     15  C   UNL d   1      33.058  17.995 -23.441  0.00  0.00     0.025 A 
ATOM     16  C   UNL d   1      33.102  17.406 -22.868  0.00  0.00     0.002 A 
ATOM     17  C   UNL d   1      32.589  16.760 -22.906  0.00  0.00     0.000 A 
ATOM     18  C   UNL d   1      32.038  16.711 -23.517  0.00  0.00     0.004 A 
BRANCH  14  19
ATOM     19  O   UNL d   1      32.470  18.537 -24.618  0.00  0.00    -0.305 OA
BRANCH  19  20
ATOM     20  C   UNL d   1      33.008  19.162 -24.602  0.00  0.00     0.123 C 
ATOM     21  C   UNL d   1      32.900  19.817 -25.096  0.00  0.00     0.029 C 
ENDBRANCH  19  20
ENDBRANCH  14  19
ENDBRANCH  12  13
ENDBRANCH   1  12
TORSDOF 4
ENDMDL
MODEL 2
REMARK VINA RESULT:      -1.4      1.475      3.787
REMARK  4 active torsions:
REMARK  status: ('A' for Active; 'I' for Inactive)
REMARK    1  A    between atoms: C_5  and  N_1 
REMARK    2  A    between atoms: C_7  and  C_5 
REMARK    3  A    between atoms: O_14  and  C_10 
REMARK    4  A    between atoms: C_17  and  O_14 
ROOT
ATOM      1  N   UNL d   1      32.180  18.360 -23.684  0.00  0.00    -0.251 N 
ATOM      2  C   UNL d   1      32.351  18.456 -24.489  0.00  0.00     0.378 A 
ATOM      3  C   UNL d   1      32.501  19.003 -23.274  0.00  0.00     0.092 A 
ATOM      4  O   UNL d   1      32.778  19.159 -24.575  0.00  0.00    -0.258 OA
ATOM      5  C   UNL d   1      32.870  19.496 -23.825  0.00  0.00     0.121 A 
ATOM      6  O   UNL d   1      32.137  17.944 -25.097  0.00  0.00    -0.237 OA
ATOM      7  C   UNL d   1      32.500  19.194 -22.476  0.00  0.00     0.020 A 
ATOM      8  C   UNL d   1      33.241  20.189 -23.562  0.00  0.00     0.026 A 
ATOM      9  C   UNL d   1      32.868  19.881 -22.220  0.00  0.00     0.002 A 
ATOM     10  C   UNL d   1      33.239  20.379 -22.764  0.00  0.00     0.002 A 
ATOM     11  C   UNL d   1      32.868  20.074 -21.419  0.00  0.00     0.000 C 
ENDROOT
BRANCH   1  12
ATOM     12  C   UNL d   1      31.768  17.748 -23.316  0.00  0.00     0.087 C 
BRANCH  12  13
ATOM     13  C   UNL d   1      32.092  16.988 -23.280  0.00  0.00     0.041 A 
ATOM     14  C   UNL d   1      31.614  16.335 -23.348  0.00  0.00     0.102 A 
ATOM     15  C   UNL d   1      31.937  15.584 -23.312  0.00  0.00     0.025 A 
ATOM     16  C   UNL d   1      32.746  15.487 -23.206  0.00  0.00     0.002 A 
ATOM     17  C   UNL d   1      33.232  16.152 -23.137  0.00  0.00     0.000 A 
ATOM     18  C   UNL d   1      32.901  16.906 -23.174  0.00  0.00     0.004 A 
BRANCH  14  19
ATOM     19  O   UNL d   1      30.798  16.426 -23.454  0.00  0.00    -0.305 OA
BRANCH  19  20
ATOM     20  C   UNL d   1      30.271  15.941 -23.043  0.00  0.00     0.123 C 
ATOM     21  C   UNL d   1      29.491  15.859 -23.306  0.00  0.00     0.029 C 
ENDBRANCH  19  20
ENDBRANCH  14  19
ENDBRANCH  12  13
ENDBRANCH   1  12
TORSDOF 4
ENDMDL
MODEL 3
REMARK VINA RESULT:      -1.0      1.204      3.653
REMARK  4 active torsions:
REMARK  status: ('A' for Active; 'I' for Inactive)
REMARK    1  A    between atoms: C_5  and  N_1 
REMARK    2  A    between atoms: C_7  and  C_5 
REMARK    3  A    between atoms: O_14  and  C_10 
REMARK    4  A    between atoms: C_17  and  O_14 
ROOT
ATOM      1  N   UNL d   1      31.422  16.874 -23.495  0.00  0.00    -0.251 N 
ATOM      2  C   UNL d   1      31.947  16.339 -23.142  0.00  0.00     0.378 A 
ATOM      3  C   UNL d   1      31.867  17.453 -23.884  0.00  0.00     0.092 A 
ATOM      4  O   UNL d   1      32.717  16.588 -23.315  0.00  0.00    -0.258 OA
ATOM      5  C   UNL d   1      32.666  17.276 -23.773  0.00  0.00     0.121 A 
ATOM      6  O   UNL d   1      31.743  15.676 -22.699  0.00  0.00    -0.237 OA
ATOM      7  C   UNL d   1      31.641  18.110 -24.321  0.00  0.00     0.020 A 
ATOM      8  C   UNL d   1      33.241  17.770 -24.107  0.00  0.00     0.026 A 
ATOM      9  C   UNL d   1      32.213  18.598 -24.650  0.00  0.00     0.002 A 
ATOM     10  C   UNL d   1      33.014  18.428 -24.544  0.00  0.00     0.002 A 
ATOM     11  C   UNL d   1      31.988  19.258 -25.089  0.00  0.00     0.000 C 
ENDROOT
BRANCH   1  12
ATOM     12  C   UNL d   1      30.598  16.868 -23.483  0.00  0.00     0.087 C 
BRANCH  12  13
ATOM     13  C   UNL d   1      30.177  16.394 -24.015  0.00  0.00     0.041 A 
ATOM     14  C   UNL d   1      29.365  16.374 -23.991  0.00  0.00     0.102 A 
ATOM     15  C   UNL d   1      28.950  15.905 -24.517  0.00  0.00     0.025 A 
ATOM     16  C   UNL d   1      29.353  15.453 -25.073  0.00  0.00     0.002 A 
ATOM     17  C   UNL d   1      30.178  15.473 -25.097  0.00  0.00     0.000 A 
ATOM     18  C   UNL d   1      30.590  15.948 -24.564  0.00  0.00     0.004 A 
BRANCH  14  19
ATOM     19  O   UNL d   1      28.953  16.828 -23.434  0.00  0.00    -0.305 OA
BRANCH  19  20
ATOM     20  C   UNL d   1      28.131  16.779 -23.387  0.00  0.00     0.123 C 
ATOM     21  C   UNL d   1      27.710  17.306 -22.908  0.00  0.00     0.029 C 
ENDBRANCH  19  20
ENDBRANCH  14  19
ENDBRANCH  12  13
ENDBRANCH   1  12
TORSDOF 4
ENDMDL
