MODEL 1
REMARK VINA RESULT:      -1.3      0.000      0.000
REMARK  4 active torsions:
REMARK  status: ('A' for Active; 'I' for Inactive)
REMARK    1  A    between atoms: C_4  and  C_1 
REMARK    2  A    between atoms: N_7  and  C_4 
REMARK    3  A    between atoms: C_10  and  C_4 
REMARK    4  A    between atoms: C_8  and  N_7 
ROOT
ATOM      1  C   UNL d   1      32.051  17.599 -23.493  0.00  0.00     0.085 C 
ENDROOT
BRANCH   1   2
ATOM      2  C   UNL d   1      32.436  18.307 -23.677  0.00  0.00     0.037 A 
ATOM      3  C   UNL d   1      32.742  18.551 -24.404  0.00  0.00     0.083 A 
ATOM      4  N   UNL d   1      33.060  19.244 -24.354  0.00  0.00    -0.245 NA
ATOM      5  C   UNL d   1      32.709  18.101 -25.095  0.00  0.00     0.021 C 
ATOM      6  C   UNL d   1      32.987  19.524 -23.564  0.00  0.00     0.081 A 
ATOM      7  C   UNL d   1      32.595  18.935 -23.139  0.00  0.00     0.021 A 
ATOM      8  C   UNL d   1      33.225  20.230 -23.189  0.00  0.00     0.019 A 
ATOM      9  C   UNL d   1      32.439  19.049 -22.337  0.00  0.00     0.002 A 
ATOM     10  C   UNL d   1      32.669  19.739 -21.957  0.00  0.00     0.000 A 
ATOM     11  C   UNL d   1      33.061  20.328 -22.382  0.00  0.00     0.002 A 
ENDBRANCH   1   2
BRANCH   1  12
ATOM     12  N   UNL d   1      31.270  17.629 -23.264  0.00  0.00    -0.227 NA
BRANCH  12  13
ATOM     13  C   UNL d   1      30.677  17.391 -23.762  0.00  0.00     0.162 A 
ATOM     14  N   UNL d   1      30.486  17.826 -24.428  0.00  0.00    -0.225 NA
ATOM     15  C   UNL d   1      29.858  17.561 -24.943  0.00  0.00     0.101 A 
ATOM     16  C   UNL d   1      29.471  16.879 -24.749  0.00  0.00     0.021 A 
ATOM     17  C   UNL d   1      29.655  16.442 -24.089  0.00  0.00     0.005 A 
ATOM     18  C   UNL d   1      30.255  16.686 -23.588  0.00  0.00     0.039 A 
ATOM     19  C   UNL d   1      29.231  15.749 -23.929  0.00  0.00     0.000 C 
ENDBRANCH  12  13
ENDBRANCH   1  12
BRANCH   1  20
ATOM     20  C   UNL d   1      32.451  16.875 -23.540  0.00  0.00     0.021 A 
ATOM     21  C   UNL d   1      32.747  16.647 -24.273  0.00  0.00     0.022 A 
ATOM     22  C   UNL d   1      33.148  15.922 -24.321  0.00  0.00     0.099 A 
ATOM     23  N   UNL d   1      33.239  15.453 -23.642  0.00  0.00    -0.242 NA
ATOM     24  C   UNL d   1      32.936  15.702 -22.927  0.00  0.00     0.099 A 
ATOM     25  C   UNL d   1      32.543  16.406 -22.862  0.00  0.00     0.022 A 
ENDBRANCH   1  20
TORSDOF 4
ENDMDL
MODEL 2
REMARK VINA RESULT:       0.0      0.763      3.377
REMARK  4 active torsions:
REMARK  status: ('A' for Active; 'I' for Inactive)
REMARK    1  A    between atoms: C_4  and  C_1 
REMARK    2  A    between atoms: N_7  and  C_4 
REMARK    3  A    between atoms: C_10  and  C_4 
REMARK    4  A    between atoms: C_8  and  N_7 
ROOT
ATOM      1  C   UNL d   1      31.550  17.053 -23.644  0.00  0.00     0.085 C 
ENDROOT
BRANCH   1   2
ATOM      2  C   UNL d   1      30.781  17.103 -23.941  0.00  0.00     0.037 A 
ATOM      3  C   UNL d   1      30.505  17.543 -24.583  0.00  0.00     0.083 A 
ATOM      4  N   UNL d   1      29.755  17.445 -24.688  0.00  0.00    -0.245 NA
ATOM      5  C   UNL d   1      30.983  18.026 -25.052  0.00  0.00     0.021 C 
ATOM      6  C   UNL d   1      29.463  16.915 -24.103  0.00  0.00     0.081 A 
ATOM      7  C   UNL d   1      30.107  16.700 -23.635  0.00  0.00     0.021 A 
ATOM      8  C   UNL d   1      28.703  16.609 -23.946  0.00  0.00     0.019 A 
ATOM      9  C   UNL d   1      29.995  16.178 -23.006  0.00  0.00     0.002 A 
ATOM     10  C   UNL d   1      29.253  15.871 -22.841  0.00  0.00     0.000 A 
ATOM     11  C   UNL d   1      28.609  16.085 -23.309  0.00  0.00     0.002 A 
ENDBRANCH   1   2
BRANCH   1  12
ATOM     12  N   UNL d   1      31.764  17.546 -23.031  0.00  0.00    -0.227 NA
BRANCH  12  13
ATOM     13  C   UNL d   1      32.186  18.224 -23.166  0.00  0.00     0.162 A 
ATOM     14  N   UNL d   1      32.649  18.307 -23.835  0.00  0.00    -0.225 NA
ATOM     15  C   UNL d   1      33.087  19.028 -23.962  0.00  0.00     0.101 A 
ATOM     16  C   UNL d   1      33.027  19.611 -23.406  0.00  0.00     0.021 A 
ATOM     17  C   UNL d   1      32.570  19.536 -22.739  0.00  0.00     0.005 A 
ATOM     18  C   UNL d   1      32.145  18.849 -22.606  0.00  0.00     0.039 A 
ATOM     19  C   UNL d   1      32.538  20.160 -22.195  0.00  0.00     0.000 C 
ENDBRANCH  12  13
ENDBRANCH   1  12
BRANCH   1  20
ATOM     20  C   UNL d   1      32.092  16.513 -23.962  0.00  0.00     0.021 A 
ATOM     21  C   UNL d   1      32.086  16.397 -24.776  0.00  0.00     0.022 A 
ATOM     22  C   UNL d   1      32.628  15.857 -25.095  0.00  0.00     0.099 A 
ATOM     23  N   UNL d   1      33.154  15.454 -24.595  0.00  0.00    -0.242 NA
ATOM     24  C   UNL d   1      33.141  15.587 -23.791  0.00  0.00     0.099 A 
ATOM     25  C   UNL d   1      32.619  16.110 -23.463  0.00  0.00     0.022 A 
ENDBRANCH   1  20
TORSDOF 4
ENDMDL
