MODEL 1
REMARK VINA RESULT:      12.5      0.000      0.000
REMARK  1 active torsions:
REMARK  status: ('A' for Active; 'I' for Inactive)
REMARK       I    between atoms: C_8  and  N_9 
REMARK    1  A    between atoms: N_9  and  C_10 
ROOT
ATOM      1  C   UNL d   1      14.203  11.788  -2.785  0.00  0.00     0.102 A 
ATOM      2  O   UNL d   1      14.830  11.787  -2.246  0.00  0.00    -0.307 OA
ATOM      3  C   UNL d   1      13.494  11.786  -2.369  0.00  0.00     0.025 A 
ATOM      4  C   UNL d   1      13.680  11.784  -1.562  0.00  0.00     0.025 A 
ATOM      5  C   UNL d   1      14.498  11.785  -1.488  0.00  0.00     0.100 A 
ATOM      6  C   UNL d   1      14.197  11.791  -3.608  0.00  0.00     0.044 A 
ATOM      7  C   UNL d   1      12.778  11.787  -2.769  0.00  0.00     0.004 A 
ATOM      8  C   UNL d   1      13.484  11.791  -4.017  0.00  0.00     0.087 A 
ATOM      9  C   UNL d   1      12.769  11.789  -3.594  0.00  0.00     0.019 A 
ATOM     10  C   UNL d   1      13.200  11.781  -0.882  0.00  0.00     0.002 A 
ATOM     11  C   UNL d   1      14.846  11.783  -0.738  0.00  0.00     0.025 A 
ATOM     12  C   UNL d   1      13.548  11.779  -0.138  0.00  0.00     0.000 A 
ATOM     13  C   UNL d   1      14.373  11.780  -0.065  0.00  0.00     0.002 A 
ENDROOT
BRANCH   8  14
ATOM     14  N   UNL d   1      13.474  11.794  -4.842  0.00  0.00    -0.208 NA
ATOM     15  C   UNL d   1      13.133  12.425  -5.250  0.00  0.00     0.279 C 
ATOM     16  O   UNL d   1      12.801  13.053  -4.827  0.00  0.00    -0.265 OA
ATOM     17  C   UNL d   1      13.123  12.429  -6.078  0.00  0.00     0.068 C 
ENDBRANCH   8  14
TORSDOF 1
ENDMDL
