MODEL 1
REMARK VINA RESULT:     111.2      0.000      0.000
REMARK  10 active torsions:
REMARK  status: ('A' for Active; 'I' for Inactive)
REMARK    1  A    between atoms: C_18  and  N_1 
REMARK    2  A    between atoms: S_7  and  C_2 
REMARK       I    between atoms: C_6  and  N_14 
REMARK    3  A    between atoms: C_9  and  C_6 
REMARK    4  A    between atoms: C_15  and  S_7 
REMARK    5  A    between atoms: C_8  and  C_15 
REMARK       I    between atoms: N_10  and  C_8 
REMARK    6  A    between atoms: C_19  and  N_10 
REMARK    7  A    between atoms: N_14  and  C_25 
REMARK    8  A    between atoms: C_25  and  C_18 
REMARK    9  A    between atoms: C_23  and  C_19 
REMARK   10  A    between atoms: O_27  and  C_20 
ROOT
ATOM      1  N   UNL d   1      61.347  42.930  52.276  0.00  0.00    -0.302 N 
ATOM      2  C   UNL d   1      61.516  43.786  51.251  0.00  0.00     0.049 A 
ATOM      3  C   UNL d   1      61.062  43.634  51.929  0.00  0.00     0.087 A 
ATOM      4  C   UNL d   1      62.081  43.178  51.178  0.00  0.00     0.024 A 
ATOM      5  C   UNL d   1      61.975  42.651  51.811  0.00  0.00     0.065 A 
ATOM      6  C   UNL d   1      62.676  43.035  50.620  0.00  0.00     0.002 A 
ATOM      7  C   UNL d   1      62.460  41.988  51.886  0.00  0.00     0.018 A 
ATOM      8  C   UNL d   1      63.157  42.375  50.695  0.00  0.00     0.000 A 
ATOM      9  C   UNL d   1      63.052  41.848  51.329  0.00  0.00     0.002 A 
ENDROOT
BRANCH   1  10
ATOM     10  C   UNL d   1      61.054  42.576  52.962  0.00  0.00     0.101 C 
BRANCH  10  11
ATOM     11  C   UNL d   1      60.782  41.800  52.939  0.00  0.00     0.121 C 
BRANCH  11  12
ATOM     12  N   UNL d   1      60.378  41.486  53.586  0.00  0.00    -0.205 NA
ATOM     13  C   UNL d   1      60.159  40.690  53.593  0.00  0.00     0.279 C 
ATOM     14  O   UNL d   1      60.346  40.207  52.948  0.00  0.00    -0.265 OA
BRANCH  13  15
ATOM     15  C   UNL d   1      59.756  40.376  54.240  0.00  0.00     0.058 A 
ATOM     16  C   UNL d   1      60.067  40.466  55.012  0.00  0.00     0.007 A 
ATOM     17  C   UNL d   1      59.663  40.152  55.657  0.00  0.00     0.024 A 
ATOM     18  C   UNL d   1      58.951  39.750  55.527  0.00  0.00     0.094 A 
ATOM     19  C   UNL d   1      58.644  39.661  54.771  0.00  0.00     0.024 A 
ATOM     20  C   UNL d   1      59.049  39.975  54.129  0.00  0.00     0.007 A 
BRANCH  18  21
ATOM     21  O   UNL d   1      58.532  39.427  56.177  0.00  0.00    -0.328 OA
ATOM     22  C   UNL d   1      57.746  39.634  56.328  0.00  0.00     0.181 C 
ENDBRANCH  18  21
ENDBRANCH  13  15
ENDBRANCH  11  12
ENDBRANCH  10  11
ENDBRANCH   1  10
BRANCH   2  23
ATOM     23  S   UNL d   1      61.427  44.426  50.736  0.00  0.00    -0.080 SA
BRANCH  23  24
ATOM     24  C   UNL d   1      61.080  45.126  51.014  0.00  0.00     0.098 C 
BRANCH  24  25
ATOM     25  C   UNL d   1      61.166  45.824  50.583  0.00  0.00     0.286 C 
ATOM     26  N   UNL d   1      61.162  46.553  50.967  0.00  0.00    -0.204 NA
ATOM     27  O   UNL d   1      61.257  45.793  49.764  0.00  0.00    -0.265 OA
BRANCH  26  28
ATOM     28  C   UNL d   1      61.248  47.252  50.532  0.00  0.00     0.127 C 
BRANCH  28  29
ATOM     29  C   UNL d   1      61.016  47.961  50.852  0.00  0.00     0.119 A 
ATOM     30  O   UNL d   1      60.865  48.124  51.642  0.00  0.00    -0.304 OA
ATOM     31  C   UNL d   1      60.644  48.916  51.717  0.00  0.00     0.123 A 
ATOM     32  C   UNL d   1      60.657  49.253  50.964  0.00  0.00     0.029 A 
ATOM     33  C   UNL d   1      60.884  48.671  50.437  0.00  0.00     0.028 A 
ENDBRANCH  28  29
ENDBRANCH  26  28
ENDBRANCH  24  25
ENDBRANCH  23  24
ENDBRANCH   2  23
TORSDOF 10
ENDMDL
MODEL 2
REMARK VINA RESULT:     111.5      1.009      6.985
REMARK  10 active torsions:
REMARK  status: ('A' for Active; 'I' for Inactive)
REMARK    1  A    between atoms: C_18  and  N_1 
REMARK    2  A    between atoms: S_7  and  C_2 
REMARK       I    between atoms: C_6  and  N_14 
REMARK    3  A    between atoms: C_9  and  C_6 
REMARK    4  A    between atoms: C_15  and  S_7 
REMARK    5  A    between atoms: C_8  and  C_15 
REMARK       I    between atoms: N_10  and  C_8 
REMARK    6  A    between atoms: C_19  and  N_10 
REMARK    7  A    between atoms: N_14  and  C_25 
REMARK    8  A    between atoms: C_25  and  C_18 
REMARK    9  A    between atoms: C_23  and  C_19 
REMARK   10  A    between atoms: O_27  and  C_20 
ROOT
ATOM      1  N   UNL d   1      61.226  43.761  51.378  0.00  0.00    -0.302 N 
ATOM      2  C   UNL d   1      61.425  42.832  52.332  0.00  0.00     0.049 A 
ATOM      3  C   UNL d   1      60.957  43.482  52.117  0.00  0.00     0.087 A 
ATOM      4  C   UNL d   1      61.984  42.707  51.727  0.00  0.00     0.024 A 
ATOM      5  C   UNL d   1      61.859  43.281  51.139  0.00  0.00     0.065 A 
ATOM      6  C   UNL d   1      62.588  42.148  51.633  0.00  0.00     0.002 A 
ATOM      7  C   UNL d   1      62.334  43.296  50.464  0.00  0.00     0.018 A 
ATOM      8  C   UNL d   1      63.060  42.164  50.962  0.00  0.00     0.000 A 
ATOM      9  C   UNL d   1      62.936  42.738  50.374  0.00  0.00     0.002 A 
ENDROOT
BRANCH   1  10
ATOM     10  C   UNL d   1      60.915  44.400  50.960  0.00  0.00     0.101 C 
BRANCH  10  11
ATOM     11  C   UNL d   1      61.405  45.023  50.737  0.00  0.00     0.121 C 
BRANCH  11  12
ATOM     12  N   UNL d   1      61.200  45.798  50.930  0.00  0.00    -0.205 NA
ATOM     13  C   UNL d   1      61.427  46.423  50.440  0.00  0.00     0.279 C 
ATOM     14  O   UNL d   1      61.862  46.268  49.754  0.00  0.00    -0.265 OA
BRANCH  13  15
ATOM     15  C   UNL d   1      61.221  47.197  50.632  0.00  0.00     0.058 A 
ATOM     16  C   UNL d   1      60.891  47.369  51.382  0.00  0.00     0.007 A 
ATOM     17  C   UNL d   1      60.686  48.144  51.574  0.00  0.00     0.024 A 
ATOM     18  C   UNL d   1      60.812  48.741  51.014  0.00  0.00     0.094 A 
ATOM     19  C   UNL d   1      61.135  48.574  50.278  0.00  0.00     0.024 A 
ATOM     20  C   UNL d   1      61.338  47.801  50.090  0.00  0.00     0.007 A 
BRANCH  18  21
ATOM     21  O   UNL d   1      60.607  49.533  51.198  0.00  0.00    -0.328 OA
ATOM     22  C   UNL d   1      59.967  49.708  51.691  0.00  0.00     0.181 C 
ENDBRANCH  18  21
ENDBRANCH  13  15
ENDBRANCH  11  12
ENDBRANCH  10  11
ENDBRANCH   1  10
BRANCH   2  23
ATOM     23  S   UNL d   1      61.354  42.384  53.022  0.00  0.00    -0.080 SA
BRANCH  23  24
ATOM     24  C   UNL d   1      60.637  42.002  53.187  0.00  0.00     0.098 C 
BRANCH  24  25
ATOM     25  C   UNL d   1      60.478  41.745  53.954  0.00  0.00     0.286 C 
ATOM     26  N   UNL d   1      60.062  41.044  54.080  0.00  0.00    -0.204 NA
ATOM     27  O   UNL d   1      60.734  42.189  54.599  0.00  0.00    -0.265 OA
BRANCH  26  28
ATOM     28  C   UNL d   1      59.903  40.787  54.851  0.00  0.00     0.127 C 
BRANCH  28  29
ATOM     29  C   UNL d   1      59.386  40.175  54.976  0.00  0.00     0.119 A 
ATOM     30  O   UNL d   1      59.032  39.699  54.410  0.00  0.00    -0.304 OA
ATOM     31  C   UNL d   1      58.547  39.146  54.786  0.00  0.00     0.123 A 
ATOM     32  C   UNL d   1      58.599  39.278  55.599  0.00  0.00     0.029 A 
ATOM     33  C   UNL d   1      59.110  39.905  55.714  0.00  0.00     0.028 A 
ENDBRANCH  28  29
ENDBRANCH  26  28
ENDBRANCH  24  25
ENDBRANCH  23  24
ENDBRANCH   2  23
TORSDOF 10
ENDMDL
MODEL 3
REMARK VINA RESULT:     112.9      3.781      5.923
REMARK  10 active torsions:
REMARK  status: ('A' for Active; 'I' for Inactive)
REMARK    1  A    between atoms: C_18  and  N_1 
REMARK    2  A    between atoms: S_7  and  C_2 
REMARK       I    between atoms: C_6  and  N_14 
REMARK    3  A    between atoms: C_9  and  C_6 
REMARK    4  A    between atoms: C_15  and  S_7 
REMARK    5  A    between atoms: C_8  and  C_15 
REMARK       I    between atoms: N_10  and  C_8 
REMARK    6  A    between atoms: C_19  and  N_10 
REMARK    7  A    between atoms: N_14  and  C_25 
REMARK    8  A    between atoms: C_25  and  C_18 
REMARK    9  A    between atoms: C_23  and  C_19 
REMARK   10  A    between atoms: O_27  and  C_20 
ROOT
ATOM      1  N   UNL d   1      60.418  48.337  50.938  0.00  0.00    -0.302 N 
ATOM      2  C   UNL d   1      59.770  49.182  50.115  0.00  0.00     0.049 A 
ATOM      3  C   UNL d   1      59.665  48.622  50.718  0.00  0.00     0.087 A 
ATOM      4  C   UNL d   1      60.586  49.244  49.961  0.00  0.00     0.024 A 
ATOM      5  C   UNL d   1      60.985  48.722  50.469  0.00  0.00     0.065 A 
ATOM      6  C   UNL d   1      61.019  49.706  49.426  0.00  0.00     0.002 A 
ATOM      7  C   UNL d   1      61.807  48.661  50.443  0.00  0.00     0.018 A 
ATOM      8  C   UNL d   1      61.837  49.645  49.401  0.00  0.00     0.000 A 
ATOM      9  C   UNL d   1      62.235  49.123  49.909  0.00  0.00     0.002 A 
ENDROOT
BRANCH   1  10
ATOM     10  C   UNL d   1      60.570  47.771  51.519  0.00  0.00     0.101 C 
BRANCH  10  11
ATOM     11  C   UNL d   1      60.228  47.024  51.465  0.00  0.00     0.121 C 
BRANCH  11  12
ATOM     12  N   UNL d   1      60.693  46.371  51.272  0.00  0.00    -0.205 NA
ATOM     13  C   UNL d   1      60.344  45.631  51.160  0.00  0.00     0.279 C 
ATOM     14  O   UNL d   1      59.525  45.547  51.242  0.00  0.00    -0.265 OA
BRANCH  13  15
ATOM     15  C   UNL d   1      60.808  44.978  50.966  0.00  0.00     0.058 A 
ATOM     16  C   UNL d   1      61.638  45.062  50.890  0.00  0.00     0.007 A 
ATOM     17  C   UNL d   1      62.101  44.408  50.697  0.00  0.00     0.024 A 
ATOM     18  C   UNL d   1      61.732  43.677  50.581  0.00  0.00     0.094 A 
ATOM     19  C   UNL d   1      60.918  43.593  50.655  0.00  0.00     0.024 A 
ATOM     20  C   UNL d   1      60.459  44.246  50.848  0.00  0.00     0.007 A 
BRANCH  18  21
ATOM     21  O   UNL d   1      62.193  43.005  50.384  0.00  0.00    -0.328 OA
ATOM     22  C   UNL d   1      62.793  42.734  50.883  0.00  0.00     0.181 C 
ENDBRANCH  18  21
ENDBRANCH  13  15
ENDBRANCH  11  12
ENDBRANCH  10  11
ENDBRANCH   1  10
BRANCH   2  23
ATOM     23  S   UNL d   1      59.174  49.606  49.732  0.00  0.00    -0.080 SA
BRANCH  23  24
ATOM     24  C   UNL d   1      58.567  49.195  49.344  0.00  0.00     0.098 C 
BRANCH  24  25
ATOM     25  C   UNL d   1      57.788  49.279  49.600  0.00  0.00     0.286 C 
ATOM     26  N   UNL d   1      57.621  49.364  50.403  0.00  0.00    -0.204 NA
ATOM     27  O   UNL d   1      57.172  49.278  49.052  0.00  0.00    -0.265 OA
BRANCH  26  28
ATOM     28  C   UNL d   1      56.837  49.448  50.657  0.00  0.00     0.127 C 
BRANCH  28  29
ATOM     29  C   UNL d   1      56.653  49.358  51.442  0.00  0.00     0.119 A 
ATOM     30  O   UNL d   1      56.034  49.707  51.851  0.00  0.00    -0.304 OA
ATOM     31  C   UNL d   1      56.056  49.461  52.639  0.00  0.00     0.123 A 
ATOM     32  C   UNL d   1      56.698  48.949  52.724  0.00  0.00     0.029 A 
ATOM     33  C   UNL d   1      57.062  48.887  51.995  0.00  0.00     0.028 A 
ENDBRANCH  28  29
ENDBRANCH  26  28
ENDBRANCH  24  25
ENDBRANCH  23  24
ENDBRANCH   2  23
TORSDOF 10
ENDMDL
