MODEL 1
REMARK VINA RESULT:      50.9      0.000      0.000
REMARK  5 active torsions:
REMARK  status: ('A' for Active; 'I' for Inactive)
REMARK    1  A    between atoms: C_9  and  N_2 
REMARK    2  A    between atoms: C_7  and  O_10 
REMARK    3  A    between atoms: C_11  and  C_9 
REMARK    4  A    between atoms: O_10  and  C_14 
REMARK    5  A    between atoms: C_14  and  C_11 
ROOT
ATOM      1  C   UNL d   1      58.732  49.707  51.241  0.00  0.00     0.086 C 
ENDROOT
BRANCH   1   2
ATOM      2  N   UNL d   1      57.937  49.697  51.031  0.00  0.00    -0.268 N 
ATOM      3  C   UNL d   1      57.302  49.684  51.555  0.00  0.00     0.296 A 
ATOM      4  S   UNL d   1      56.602  49.677  51.104  0.00  0.00    -0.025 SA
ATOM      5  O   UNL d   1      57.340  49.680  52.378  0.00  0.00    -0.259 OA
ATOM      6  C   UNL d   1      56.821  49.685  50.307  0.00  0.00     0.050 A 
ATOM      7  C   UNL d   1      56.367  49.682  49.606  0.00  0.00     0.008 A 
ATOM      8  C   UNL d   1      57.638  49.697  50.259  0.00  0.00     0.073 A 
ATOM      9  C   UNL d   1      56.745  49.692  48.875  0.00  0.00     0.001 A 
ATOM     10  C   UNL d   1      57.572  49.705  48.837  0.00  0.00     0.002 A 
ATOM     11  C   UNL d   1      58.022  49.707  49.528  0.00  0.00     0.018 A 
ENDBRANCH   1   2
BRANCH   1  12
ATOM     12  C   UNL d   1      59.306  49.402  50.725  0.00  0.00     0.046 C 
BRANCH  12  13
ATOM     13  C   UNL d   1      60.102  49.399  50.936  0.00  0.00     0.124 C 
BRANCH  13  14
ATOM     14  O   UNL d   1      60.555  48.728  50.820  0.00  0.00    -0.305 OA
BRANCH  14  15
ATOM     15  C   UNL d   1      61.012  48.049  50.700  0.00  0.00     0.100 A 
ATOM     16  C   UNL d   1      61.080  47.487  51.297  0.00  0.00     0.023 A 
ATOM     17  C   UNL d   1      60.690  47.604  52.016  0.00  0.00     0.002 C 
ATOM     18  C   UNL d   1      61.533  46.816  51.177  0.00  0.00     0.002 A 
ATOM     19  C   UNL d   1      61.920  46.703  50.458  0.00  0.00     0.000 A 
ATOM     20  C   UNL d   1      61.850  47.269  49.860  0.00  0.00     0.002 A 
ATOM     21  C   UNL d   1      61.389  47.946  49.989  0.00  0.00     0.025 A 
ENDBRANCH  14  15
ENDBRANCH  13  14
ENDBRANCH  12  13
ENDBRANCH   1  12
TORSDOF 5
ENDMDL
MODEL 2
REMARK VINA RESULT:      51.6      1.671      2.350
REMARK  5 active torsions:
REMARK  status: ('A' for Active; 'I' for Inactive)
REMARK    1  A    between atoms: C_9  and  N_2 
REMARK    2  A    between atoms: C_7  and  O_10 
REMARK    3  A    between atoms: C_11  and  C_9 
REMARK    4  A    between atoms: O_10  and  C_14 
REMARK    5  A    between atoms: C_14  and  C_11 
ROOT
ATOM      1  C   UNL d   1      59.136  49.588  50.560  0.00  0.00     0.086 C 
ENDROOT
BRANCH   1   2
ATOM      2  N   UNL d   1      58.376  49.531  50.250  0.00  0.00    -0.268 N 
ATOM      3  C   UNL d   1      58.189  49.419  49.456  0.00  0.00     0.296 A 
ATOM      4  S   UNL d   1      57.359  49.395  49.394  0.00  0.00    -0.025 SA
ATOM      5  O   UNL d   1      58.718  49.343  48.829  0.00  0.00    -0.259 OA
ATOM      6  C   UNL d   1      57.050  49.493  50.154  0.00  0.00     0.050 A 
ATOM      7  C   UNL d   1      56.264  49.516  50.436  0.00  0.00     0.008 A 
ATOM      8  C   UNL d   1      57.671  49.577  50.681  0.00  0.00     0.073 A 
ATOM      9  C   UNL d   1      56.122  49.624  51.239  0.00  0.00     0.001 A 
ATOM     10  C   UNL d   1      56.756  49.708  51.764  0.00  0.00     0.002 A 
ATOM     11  C   UNL d   1      57.533  49.685  51.487  0.00  0.00     0.018 A 
ENDBRANCH   1   2
BRANCH   1  12
ATOM     12  C   UNL d   1      59.786  49.702  50.057  0.00  0.00     0.046 C 
BRANCH  12  13
ATOM     13  C   UNL d   1      60.555  49.645  50.346  0.00  0.00     0.124 C 
BRANCH  13  14
ATOM     14  O   UNL d   1      60.688  49.561  51.149  0.00  0.00    -0.305 OA
BRANCH  14  15
ATOM     15  C   UNL d   1      60.825  49.476  51.960  0.00  0.00     0.100 A 
ATOM     16  C   UNL d   1      61.578  49.284  52.233  0.00  0.00     0.023 A 
ATOM     17  C   UNL d   1      62.194  49.176  51.693  0.00  0.00     0.002 C 
ATOM     18  C   UNL d   1      61.712  49.200  53.035  0.00  0.00     0.002 A 
ATOM     19  C   UNL d   1      61.094  49.308  53.571  0.00  0.00     0.000 A 
ATOM     20  C   UNL d   1      60.340  49.501  53.294  0.00  0.00     0.002 A 
ATOM     21  C   UNL d   1      60.212  49.584  52.479  0.00  0.00     0.025 A 
ENDBRANCH  14  15
ENDBRANCH  13  14
ENDBRANCH  12  13
ENDBRANCH   1  12
TORSDOF 5
ENDMDL
MODEL 3
REMARK VINA RESULT:      53.0      1.450      4.292
REMARK  5 active torsions:
REMARK  status: ('A' for Active; 'I' for Inactive)
REMARK    1  A    between atoms: C_9  and  N_2 
REMARK    2  A    between atoms: C_7  and  O_10 
REMARK    3  A    between atoms: C_11  and  C_9 
REMARK    4  A    between atoms: O_10  and  C_14 
REMARK    5  A    between atoms: C_14  and  C_11 
ROOT
ATOM      1  C   UNL d   1      60.523  49.428  50.551  0.00  0.00     0.086 C 
ENDROOT
BRANCH   1   2
ATOM      2  N   UNL d   1      60.698  48.778  51.024  0.00  0.00    -0.268 N 
ATOM      3  C   UNL d   1      60.752  48.782  51.846  0.00  0.00     0.296 A 
ATOM      4  S   UNL d   1      60.938  48.008  52.090  0.00  0.00    -0.025 SA
ATOM      5  O   UNL d   1      60.645  49.429  52.345  0.00  0.00    -0.259 OA
ATOM      6  C   UNL d   1      60.994  47.540  51.412  0.00  0.00     0.050 A 
ATOM      7  C   UNL d   1      61.165  46.729  51.309  0.00  0.00     0.008 A 
ATOM      8  C   UNL d   1      60.847  48.009  50.756  0.00  0.00     0.073 A 
ATOM      9  C   UNL d   1      61.183  46.409  50.551  0.00  0.00     0.001 A 
ATOM     10  C   UNL d   1      61.033  46.891  49.894  0.00  0.00     0.002 A 
ATOM     11  C   UNL d   1      60.865  47.692  49.995  0.00  0.00     0.018 A 
ENDBRANCH   1   2
BRANCH   1  12
ATOM     12  C   UNL d   1      59.743  49.703  50.489  0.00  0.00     0.046 C 
BRANCH  12  13
ATOM     13  C   UNL d   1      59.111  49.225  50.710  0.00  0.00     0.124 C 
BRANCH  13  14
ATOM     14  O   UNL d   1      58.370  49.347  50.386  0.00  0.00    -0.305 OA
BRANCH  14  15
ATOM     15  C   UNL d   1      57.620  49.467  50.057  0.00  0.00     0.100 A 
ATOM     16  C   UNL d   1      56.964  49.558  50.547  0.00  0.00     0.023 A 
ATOM     17  C   UNL d   1      57.059  49.528  51.367  0.00  0.00     0.002 C 
ATOM     18  C   UNL d   1      56.224  49.677  50.220  0.00  0.00     0.002 A 
ATOM     19  C   UNL d   1      56.134  49.706  49.401  0.00  0.00     0.000 A 
ATOM     20  C   UNL d   1      56.794  49.615  48.912  0.00  0.00     0.002 A 
ATOM     21  C   UNL d   1      57.542  49.495  49.250  0.00  0.00     0.025 A 
ENDBRANCH  14  15
ENDBRANCH  13  14
ENDBRANCH  12  13
ENDBRANCH   1  12
TORSDOF 5
ENDMDL
