MODEL 1
REMARK VINA RESULT:     104.4      0.000      0.000
REMARK  6 active torsions:
REMARK  status: ('A' for Active; 'I' for Inactive)
REMARK    1  A    between atoms: C_10  and  C_2 
REMARK    2  A    between atoms: C_14  and  N_3 
REMARK    3  A    between atoms: C_15  and  C_4 
REMARK    4  A    between atoms: N_5  and  C_9 
REMARK       I    between atoms: C_7  and  N_8 
REMARK    5  A    between atoms: C_13  and  C_7 
REMARK    6  A    between atoms: N_8  and  C_10 
ROOT
ATOM      1  N   UNL d   1      59.351  49.702  50.590  0.00  0.00    -0.165 NA
ATOM      2  C   UNL d   1      59.438  48.324  50.980  0.00  0.00     0.071 A 
ATOM      3  N   UNL d   1      58.272  48.856  50.319  0.00  0.00    -0.228 N 
ATOM      4  C   UNL d   1      59.763  49.065  50.938  0.00  0.00     0.105 A 
ATOM      5  C   UNL d   1      58.684  48.220  50.667  0.00  0.00     0.105 A 
ENDROOT
BRANCH   2   6
ATOM      6  C   UNL d   1      59.855  47.678  51.333  0.00  0.00     0.168 C 
BRANCH   6   7
ATOM      7  N   UNL d   1      60.284  47.141  50.874  0.00  0.00    -0.362 NA
ATOM      8  C   UNL d   1      60.711  46.611  50.415  0.00  0.00     0.328 C 
ATOM      9  O   UNL d   1      60.996  46.832  49.673  0.00  0.00    -0.251 OA
BRANCH   8  10
ATOM     10  C   UNL d   1      60.854  45.851  50.700  0.00  0.00     0.070 A 
ATOM     11  C   UNL d   1      61.419  45.734  51.292  0.00  0.00     0.008 A 
ATOM     12  C   UNL d   1      61.567  44.970  51.582  0.00  0.00     0.024 A 
ATOM     13  C   UNL d   1      61.150  44.332  51.279  0.00  0.00     0.127 A 
ATOM     14  C   UNL d   1      60.583  44.442  50.687  0.00  0.00     0.024 A 
ATOM     15  C   UNL d   1      60.437  45.215  50.397  0.00  0.00     0.008 A 
BRANCH  13  16
ATOM     16  N   UNL d   1      61.294  43.570  51.565  0.00  0.00    -0.114 N 
ATOM     17  O   UNL d   1      61.842  43.092  51.176  0.00  0.00    -0.532 OA
ATOM     18  O   UNL d   1      60.895  43.291  52.229  0.00  0.00    -0.532 OA
ENDBRANCH  13  16
ENDBRANCH   8  10
ENDBRANCH   6   7
ENDBRANCH   2   6
BRANCH   4  19
ATOM     19  C   UNL d   1      60.525  49.176  51.253  0.00  0.00     0.019 A 
ATOM     20  C   UNL d   1      60.677  48.869  52.000  0.00  0.00     0.002 A 
ATOM     21  C   UNL d   1      61.429  48.975  52.319  0.00  0.00     0.000 A 
ATOM     22  C   UNL d   1      62.023  49.392  51.877  0.00  0.00     0.000 A 
ATOM     23  C   UNL d   1      61.855  49.692  51.136  0.00  0.00     0.000 A 
ATOM     24  C   UNL d   1      61.116  49.592  50.813  0.00  0.00     0.002 A 
ENDBRANCH   4  19
BRANCH   3  25
ATOM     25  C   UNL d   1      57.529  48.954  49.958  0.00  0.00     0.083 A 
ATOM     26  C   UNL d   1      56.819  48.809  50.393  0.00  0.00     0.019 A 
ATOM     27  C   UNL d   1      56.078  48.905  50.039  0.00  0.00     0.002 A 
ATOM     28  C   UNL d   1      56.046  49.144  49.256  0.00  0.00     0.000 A 
ATOM     29  C   UNL d   1      56.759  49.286  48.832  0.00  0.00     0.002 A 
ATOM     30  C   UNL d   1      57.498  49.191  49.182  0.00  0.00     0.019 A 
ENDBRANCH   3  25
TORSDOF 6
ENDMDL
