MODEL 1
REMARK VINA RESULT:      95.8      0.000      0.000
REMARK  9 active torsions:
REMARK  status: ('A' for Active; 'I' for Inactive)
REMARK    1  A    between atoms: C_5  and  C_1 
REMARK    2  A    between atoms: C_10  and  C_2 
REMARK    3  A    between atoms: S_11  and  C_3 
REMARK    4  A    between atoms: C_9  and  C_4 
REMARK       I    between atoms: N_8  and  C_5 
REMARK    5  A    between atoms: C_13  and  N_8 
REMARK    6  A    between atoms: C_18  and  S_11 
REMARK    7  A    between atoms: C_16  and  C_18 
REMARK    8  A    between atoms: C_23  and  C_16 
REMARK    9  A    between atoms: O_25  and  C_20 
ROOT
ATOM      1  C   UNL d   1     -48.084  29.886  34.665  0.00  0.00     0.077 A 
ATOM      2  C   UNL d   1     -48.423  28.661  35.311  0.00  0.00     0.047 A 
ATOM      3  C   UNL d   1     -48.829  28.415  34.631  0.00  0.00     0.112 A 
ATOM      4  C   UNL d   1     -48.050  29.397  35.328  0.00  0.00     0.032 A 
ATOM      5  C   UNL d   1     -48.489  29.640  33.985  0.00  0.00     0.087 A 
ATOM      6  N   UNL d   1     -48.862  28.904  33.968  0.00  0.00    -0.239 NA
ATOM      7  C   UNL d   1     -48.529  30.129  33.306  0.00  0.00     0.021 C 
ENDROOT
BRANCH   1   8
ATOM      8  C   UNL d   1     -47.701  30.632  34.693  0.00  0.00     0.281 C 
ATOM      9  N   UNL d   1     -48.006  31.257  34.262  0.00  0.00    -0.206 NA
ATOM     10  O   UNL d   1     -47.030  30.727  35.149  0.00  0.00    -0.265 OA
BRANCH   9  11
ATOM     11  C   UNL d   1     -47.639  31.985  34.286  0.00  0.00     0.107 A 
ATOM     12  C   UNL d   1     -48.030  32.659  34.035  0.00  0.00     0.112 A 
ATOM     13  C   UNL d   1     -47.643  33.387  34.065  0.00  0.00     0.026 A 
ATOM     14  C   UNL d   1     -46.859  33.432  34.351  0.00  0.00     0.002 A 
ATOM     15  C   UNL d   1     -46.473  32.756  34.600  0.00  0.00     0.002 A 
ATOM     16  C   UNL d   1     -46.860  32.028  34.570  0.00  0.00     0.021 A 
BRANCH  12  17
ATOM     17  O   UNL d   1     -48.814  32.626  33.747  0.00  0.00    -0.327 OA
ATOM     18  C   UNL d   1     -49.551  33.282  33.677  0.00  0.00     0.181 C 
ENDBRANCH  12  17
ENDBRANCH   9  11
ENDBRANCH   1   8
BRANCH   4  19
ATOM     19  C   UNL d   1     -47.641  29.645  36.013  0.00  0.00     0.100 A 
ATOM     20  O   UNL d   1     -46.843  29.470  36.098  0.00  0.00    -0.305 OA
ATOM     21  C   UNL d   1     -46.597  29.787  36.828  0.00  0.00     0.123 A 
ATOM     22  C   UNL d   1     -47.223  30.144  37.180  0.00  0.00     0.029 A 
ATOM     23  C   UNL d   1     -47.874  30.070  36.699  0.00  0.00     0.027 A 
ENDBRANCH   4  19
BRANCH   2  24
ATOM     24  C   UNL d   1     -48.384  28.166  35.994  0.00  0.00     0.124 C 
ATOM     25  N   UNL d   1     -48.976  28.197  36.555  0.00  0.00    -0.146 N 
ENDBRANCH   2  24
BRANCH   3  26
ATOM     26  S   UNL d   1     -49.212  27.664  34.606  0.00  0.00    -0.064 SA
BRANCH  26  27
ATOM     27  C   UNL d   1     -49.809  27.526  34.066  0.00  0.00     0.079 C 
BRANCH  27  28
ATOM     28  C   UNL d   1     -49.860  26.800  33.716  0.00  0.00     0.202 C 
ATOM     29  O   UNL d   1     -49.166  26.411  33.477  0.00  0.00    -0.286 OA
BRANCH  28  30
ATOM     30  C   UNL d   1     -50.591  26.451  33.598  0.00  0.00     0.040 A 
ATOM     31  C   UNL d   1     -50.659  25.623  33.572  0.00  0.00     0.003 A 
ATOM     32  C   UNL d   1     -51.393  25.267  33.454  0.00  0.00     0.000 A 
ATOM     33  C   UNL d   1     -52.080  25.760  33.358  0.00  0.00     0.000 A 
ATOM     34  C   UNL d   1     -51.989  26.579  33.387  0.00  0.00     0.000 A 
ATOM     35  C   UNL d   1     -51.257  26.923  33.505  0.00  0.00     0.003 A 
ENDBRANCH  28  30
ENDBRANCH  27  28
ENDBRANCH  26  27
ENDBRANCH   3  26
TORSDOF 9
ENDMDL
MODEL 2
REMARK VINA RESULT:      97.8      1.713      6.134
REMARK  9 active torsions:
REMARK  status: ('A' for Active; 'I' for Inactive)
REMARK    1  A    between atoms: C_5  and  C_1 
REMARK    2  A    between atoms: C_10  and  C_2 
REMARK    3  A    between atoms: S_11  and  C_3 
REMARK    4  A    between atoms: C_9  and  C_4 
REMARK       I    between atoms: N_8  and  C_5 
REMARK    5  A    between atoms: C_13  and  N_8 
REMARK    6  A    between atoms: C_18  and  S_11 
REMARK    7  A    between atoms: C_16  and  C_18 
REMARK    8  A    between atoms: C_23  and  C_16 
REMARK    9  A    between atoms: O_25  and  C_20 
ROOT
ATOM      1  C   UNL d   1     -50.223  26.863  34.584  0.00  0.00     0.077 A 
ATOM      2  C   UNL d   1     -49.693  27.617  35.673  0.00  0.00     0.047 A 
ATOM      3  C   UNL d   1     -49.066  27.870  35.193  0.00  0.00     0.112 A 
ATOM      4  C   UNL d   1     -50.272  27.114  35.369  0.00  0.00     0.032 A 
ATOM      5  C   UNL d   1     -49.596  27.116  34.104  0.00  0.00     0.087 A 
ATOM      6  N   UNL d   1     -49.017  27.620  34.408  0.00  0.00    -0.239 NA
ATOM      7  C   UNL d   1     -49.537  26.867  33.306  0.00  0.00     0.021 C 
ENDROOT
BRANCH   1   8
ATOM      8  C   UNL d   1     -50.816  26.351  34.286  0.00  0.00     0.281 C 
ATOM      9  N   UNL d   1     -50.647  25.558  34.178  0.00  0.00    -0.206 NA
ATOM     10  O   UNL d   1     -51.556  26.648  34.106  0.00  0.00    -0.265 OA
BRANCH   9  11
ATOM     11  C   UNL d   1     -51.220  25.055  33.888  0.00  0.00     0.107 A 
ATOM     12  C   UNL d   1     -51.020  24.317  33.597  0.00  0.00     0.112 A 
ATOM     13  C   UNL d   1     -51.612  23.821  33.307  0.00  0.00     0.026 A 
ATOM     14  C   UNL d   1     -52.408  24.073  33.313  0.00  0.00     0.002 A 
ATOM     15  C   UNL d   1     -52.603  24.812  33.606  0.00  0.00     0.002 A 
ATOM     16  C   UNL d   1     -52.010  25.308  33.895  0.00  0.00     0.021 A 
BRANCH  12  17
ATOM     17  O   UNL d   1     -50.226  24.054  33.586  0.00  0.00    -0.327 OA
ATOM     18  C   UNL d   1     -49.784  23.189  33.774  0.00  0.00     0.181 C 
ENDBRANCH  12  17
ENDBRANCH   9  11
ENDBRANCH   1   8
BRANCH   4  19
ATOM     19  C   UNL d   1     -50.903  26.859  35.852  0.00  0.00     0.100 A 
ATOM     20  O   UNL d   1     -50.749  26.413  36.525  0.00  0.00    -0.305 OA
ATOM     21  C   UNL d   1     -51.482  26.247  36.885  0.00  0.00     0.123 A 
ATOM     22  C   UNL d   1     -52.066  26.580  36.449  0.00  0.00     0.029 A 
ATOM     23  C   UNL d   1     -51.736  26.961  35.811  0.00  0.00     0.027 A 
ENDBRANCH   4  19
BRANCH   2  24
ATOM     24  C   UNL d   1     -49.751  27.869  36.476  0.00  0.00     0.124 C 
ATOM     25  N   UNL d   1     -49.257  27.548  37.041  0.00  0.00    -0.146 N 
ENDBRANCH   2  24
BRANCH   3  26
ATOM     26  S   UNL d   1     -48.471  28.385  35.496  0.00  0.00    -0.064 SA
BRANCH  26  27
ATOM     27  C   UNL d   1     -48.386  29.138  35.191  0.00  0.00     0.079 C 
BRANCH  27  28
ATOM     28  C   UNL d   1     -47.686  29.526  35.297  0.00  0.00     0.202 C 
ATOM     29  O   UNL d   1     -47.020  29.105  35.557  0.00  0.00    -0.286 OA
BRANCH  28  30
ATOM     30  C   UNL d   1     -47.634  30.329  35.148  0.00  0.00     0.040 A 
ATOM     31  C   UNL d   1     -47.999  30.655  34.477  0.00  0.00     0.003 A 
ATOM     32  C   UNL d   1     -47.949  31.463  34.323  0.00  0.00     0.000 A 
ATOM     33  C   UNL d   1     -47.518  31.960  34.863  0.00  0.00     0.000 A 
ATOM     34  C   UNL d   1     -47.163  31.616  35.524  0.00  0.00     0.000 A 
ATOM     35  C   UNL d   1     -47.219  30.812  35.668  0.00  0.00     0.003 A 
ENDBRANCH  28  30
ENDBRANCH  27  28
ENDBRANCH  26  27
ENDBRANCH   3  26
TORSDOF 9
ENDMDL
