MODEL 1
REMARK VINA RESULT:      -7.0      0.000      0.000
REMARK  6 active torsions:
REMARK  status: ('A' for Active; 'I' for Inactive)
REMARK    1  A    between atoms: C_2  and  S_1 
REMARK    2  A    between atoms: N_3  and  S_1 
REMARK    3  A    between atoms: C_9  and  N_3 
REMARK    4  A    between atoms: C_13  and  C_7 
REMARK    5  A    between atoms: O_14  and  C_8 
REMARK    6  A    between atoms: C_20  and  O_14 
ROOT
ATOM      1  C   UNL d   1     -47.374  12.543  22.889  0.00  0.00     0.128 A 
ATOM      2  C   UNL d   1     -47.528  13.346  22.772  0.00  0.00     0.015 A 
ATOM      3  C   UNL d   1     -46.910  13.892  22.784  0.00  0.00     0.001 A 
ATOM      4  C   UNL d   1     -46.602  12.293  23.018  0.00  0.00     0.112 A 
ATOM      5  C   UNL d   1     -46.137  13.634  22.913  0.00  0.00     0.002 A 
ATOM      6  C   UNL d   1     -45.982  12.831  23.031  0.00  0.00     0.025 A 
ENDROOT
BRANCH   1   7
ATOM      7  S   UNL d   1     -47.993  12.005  22.876  0.00  0.00     0.287 S 
ATOM      8  O   UNL d   1     -47.946  11.953  22.062  0.00  0.00    -0.198 OA
ATOM      9  O   UNL d   1     -48.045  12.054  23.698  0.00  0.00    -0.198 OA
BRANCH   7  10
ATOM     10  N   UNL d   1     -48.617  11.464  22.871  0.00  0.00    -0.157 NA
BRANCH  10  11
ATOM     11  C   UNL d   1     -49.395  11.736  22.919  0.00  0.00     0.113 A 
ATOM     12  C   UNL d   1     -49.765  12.041  22.256  0.00  0.00     0.119 A 
ATOM     13  N   UNL d   1     -50.543  12.312  22.305  0.00  0.00    -0.241 NA
ATOM     14  C   UNL d   1     -50.953  12.276  23.027  0.00  0.00     0.099 A 
ATOM     15  C   UNL d   1     -50.573  11.966  23.693  0.00  0.00     0.022 A 
ATOM     16  C   UNL d   1     -49.795  11.695  23.644  0.00  0.00     0.023 A 
ENDBRANCH  10  11
ENDBRANCH   7  10
ENDBRANCH   1   7
BRANCH   4  17
ATOM     17  O   UNL d   1     -46.447  11.489  23.135  0.00  0.00    -0.304 OA
BRANCH  17  18
ATOM     18  C   UNL d   1     -45.708  11.247  23.408  0.00  0.00     0.123 C 
ATOM     19  C   UNL d   1     -45.602  10.476  23.689  0.00  0.00     0.029 C 
ENDBRANCH  17  18
ENDBRANCH   4  17
BRANCH   3  20
ATOM     20  C   UNL d   1     -47.065  14.696  22.666  0.00  0.00     0.000 C 
ATOM     21  C   UNL d   1     -47.843  14.963  22.613  0.00  0.00     0.000 C 
ATOM     22  C   UNL d   1     -46.433  15.233  22.603  0.00  0.00     0.000 C 
ENDBRANCH   3  20
TORSDOF 6
ENDMDL
MODEL 2
REMARK VINA RESULT:      -6.9      1.838      3.077
REMARK  6 active torsions:
REMARK  status: ('A' for Active; 'I' for Inactive)
REMARK    1  A    between atoms: C_2  and  S_1 
REMARK    2  A    between atoms: N_3  and  S_1 
REMARK    3  A    between atoms: C_9  and  N_3 
REMARK    4  A    between atoms: C_13  and  C_7 
REMARK    5  A    between atoms: O_14  and  C_8 
REMARK    6  A    between atoms: C_20  and  O_14 
ROOT
ATOM      1  C   UNL d   1     -48.153  13.384  22.880  0.00  0.00     0.128 A 
ATOM      2  C   UNL d   1     -48.725  12.835  23.111  0.00  0.00     0.015 A 
ATOM      3  C   UNL d   1     -48.501  12.071  23.330  0.00  0.00     0.001 A 
ATOM      4  C   UNL d   1     -47.362  13.166  22.871  0.00  0.00     0.112 A 
ATOM      5  C   UNL d   1     -47.703  11.859  23.319  0.00  0.00     0.002 A 
ATOM      6  C   UNL d   1     -47.132  12.409  23.088  0.00  0.00     0.025 A 
ENDROOT
BRANCH   1   7
ATOM      7  S   UNL d   1     -48.384  14.142  22.663  0.00  0.00     0.287 S 
ATOM      8  O   UNL d   1     -48.199  14.424  23.408  0.00  0.00    -0.198 OA
ATOM      9  O   UNL d   1     -48.572  13.861  21.911  0.00  0.00    -0.198 OA
BRANCH   7  10
ATOM     10  N   UNL d   1     -48.617  14.901  22.438  0.00  0.00    -0.157 NA
BRANCH  10  11
ATOM     11  C   UNL d   1     -49.360  15.184  22.660  0.00  0.00     0.113 A 
ATOM     12  C   UNL d   1     -50.016  15.019  22.200  0.00  0.00     0.119 A 
ATOM     13  N   UNL d   1     -50.759  15.302  22.423  0.00  0.00    -0.241 NA
ATOM     14  C   UNL d   1     -50.843  15.756  23.114  0.00  0.00     0.099 A 
ATOM     15  C   UNL d   1     -50.175  15.919  23.574  0.00  0.00     0.022 A 
ATOM     16  C   UNL d   1     -49.433  15.636  23.352  0.00  0.00     0.023 A 
ENDBRANCH  10  11
ENDBRANCH   7  10
ENDBRANCH   1   7
BRANCH   4  17
ATOM     17  O   UNL d   1     -46.790  13.717  22.641  0.00  0.00    -0.304 OA
BRANCH  17  18
ATOM     18  C   UNL d   1     -45.990  13.515  22.662  0.00  0.00     0.123 C 
ATOM     19  C   UNL d   1     -45.438  13.966  22.244  0.00  0.00     0.029 C 
ENDBRANCH  17  18
ENDBRANCH   4  17
BRANCH   3  20
ATOM     20  C   UNL d   1     -49.073  11.521  23.561  0.00  0.00     0.000 C 
ATOM     21  C   UNL d   1     -48.869  10.728  23.657  0.00  0.00     0.000 C 
ATOM     22  C   UNL d   1     -49.855  11.770  23.696  0.00  0.00     0.000 C 
ENDBRANCH   3  20
TORSDOF 6
ENDMDL
MODEL 3
REMARK VINA RESULT:      -6.3      8.237      9.755
REMARK  6 active torsions:
REMARK  status: ('A' for Active; 'I' for Inactive)
REMARK    1  A    between atoms: C_2  and  S_1 
REMARK    2  A    between atoms: N_3  and  S_1 
REMARK    3  A    between atoms: C_9  and  N_3 
REMARK    4  A    between atoms: C_13  and  C_7 
REMARK    5  A    between atoms: O_14  and  C_8 
REMARK    6  A    between atoms: C_20  and  O_14 
ROOT
ATOM      1  C   UNL d   1     -40.036  14.475  18.299  0.00  0.00     0.128 A 
ATOM      2  C   UNL d   1     -39.429  13.926  18.409  0.00  0.00     0.015 A 
ATOM      3  C   UNL d   1     -39.048  13.594  17.756  0.00  0.00     0.001 A 
ATOM      4  C   UNL d   1     -40.257  14.688  17.538  0.00  0.00     0.112 A 
ATOM      5  C   UNL d   1     -39.276  13.813  16.993  0.00  0.00     0.002 A 
ATOM      6  C   UNL d   1     -39.883  14.362  16.884  0.00  0.00     0.025 A 
ENDROOT
BRANCH   1   7
ATOM      7  S   UNL d   1     -40.411  14.800  18.953  0.00  0.00     0.287 S 
ATOM      8  O   UNL d   1     -40.903  14.151  19.009  0.00  0.00    -0.198 OA
ATOM      9  O   UNL d   1     -39.915  15.458  18.901  0.00  0.00    -0.198 OA
BRANCH   7  10
ATOM     10  N   UNL d   1     -40.782  15.134  19.610  0.00  0.00    -0.157 NA
BRANCH  10  11
ATOM     11  C   UNL d   1     -40.419  15.095  20.351  0.00  0.00     0.113 A 
ATOM     12  C   UNL d   1     -39.932  15.702  20.602  0.00  0.00     0.119 A 
ATOM     13  N   UNL d   1     -39.570  15.662  21.342  0.00  0.00    -0.241 NA
ATOM     14  C   UNL d   1     -39.698  15.005  21.835  0.00  0.00     0.099 A 
ATOM     15  C   UNL d   1     -40.192  14.394  21.574  0.00  0.00     0.022 A 
ATOM     16  C   UNL d   1     -40.554  14.434  20.834  0.00  0.00     0.023 A 
ENDBRANCH  10  11
ENDBRANCH   7  10
ENDBRANCH   1   7
BRANCH   4  17
ATOM     17  O   UNL d   1     -40.866  15.237  17.428  0.00  0.00    -0.304 OA
BRANCH  17  18
ATOM     18  C   UNL d   1     -41.056  15.496  16.669  0.00  0.00     0.123 C 
ATOM     19  C   UNL d   1     -41.753  15.922  16.539  0.00  0.00     0.029 C 
ENDBRANCH  17  18
ENDBRANCH   4  17
BRANCH   3  20
ATOM     20  C   UNL d   1     -38.440  13.045  17.866  0.00  0.00     0.000 C 
ATOM     21  C   UNL d   1     -37.940  13.107  18.518  0.00  0.00     0.000 C 
ATOM     22  C   UNL d   1     -38.335  12.430  17.315  0.00  0.00     0.000 C 
ENDBRANCH   3  20
TORSDOF 6
ENDMDL
MODEL 4
REMARK VINA RESULT:      -6.1      1.642      2.425
REMARK  6 active torsions:
REMARK  status: ('A' for Active; 'I' for Inactive)
REMARK    1  A    between atoms: C_2  and  S_1 
REMARK    2  A    between atoms: N_3  and  S_1 
REMARK    3  A    between atoms: C_9  and  N_3 
REMARK    4  A    between atoms: C_13  and  C_7 
REMARK    5  A    between atoms: O_14  and  C_8 
REMARK    6  A    between atoms: C_20  and  O_14 
ROOT
ATOM      1  C   UNL d   1     -47.924  13.149  22.692  0.00  0.00     0.128 A 
ATOM      2  C   UNL d   1     -47.236  13.562  22.494  0.00  0.00     0.015 A 
ATOM      3  C   UNL d   1     -46.496  13.246  22.678  0.00  0.00     0.001 A 
ATOM      4  C   UNL d   1     -47.866  12.424  23.072  0.00  0.00     0.112 A 
ATOM      5  C   UNL d   1     -46.446  12.516  23.060  0.00  0.00     0.002 A 
ATOM      6  C   UNL d   1     -47.133  12.103  23.258  0.00  0.00     0.025 A 
ENDROOT
BRANCH   1   7
ATOM      7  S   UNL d   1     -48.656  13.470  22.506  0.00  0.00     0.287 S 
ATOM      8  O   UNL d   1     -48.807  13.614  23.296  0.00  0.00    -0.198 OA
ATOM      9  O   UNL d   1     -48.509  13.326  21.707  0.00  0.00    -0.198 OA
BRANCH   7  10
ATOM     10  N   UNL d   1     -49.391  13.790  22.311  0.00  0.00    -0.157 NA
BRANCH  10  11
ATOM     11  C   UNL d   1     -49.641  14.491  22.670  0.00  0.00     0.113 A 
ATOM     12  C   UNL d   1     -49.336  15.209  22.425  0.00  0.00     0.119 A 
ATOM     13  N   UNL d   1     -49.586  15.908  22.783  0.00  0.00    -0.241 NA
ATOM     14  C   UNL d   1     -50.149  15.886  23.395  0.00  0.00     0.099 A 
ATOM     15  C   UNL d   1     -50.453  15.156  23.638  0.00  0.00     0.022 A 
ATOM     16  C   UNL d   1     -50.203  14.457  23.279  0.00  0.00     0.023 A 
ENDBRANCH  10  11
ENDBRANCH   7  10
ENDBRANCH   1   7
BRANCH   4  17
ATOM     17  O   UNL d   1     -48.554  12.010  23.269  0.00  0.00    -0.304 OA
BRANCH  17  18
ATOM     18  C   UNL d   1     -48.505  11.307  23.698  0.00  0.00     0.123 C 
ATOM     19  C   UNL d   1     -49.139  10.777  23.697  0.00  0.00     0.029 C 
ENDBRANCH  17  18
ENDBRANCH   4  17
BRANCH   3  20
ATOM     20  C   UNL d   1     -45.808  13.659  22.481  0.00  0.00     0.000 C 
ATOM     21  C   UNL d   1     -45.192  13.273  22.091  0.00  0.00     0.000 C 
ATOM     22  C   UNL d   1     -45.740  14.465  22.676  0.00  0.00     0.000 C 
ENDBRANCH   3  20
TORSDOF 6
ENDMDL
MODEL 5
REMARK VINA RESULT:      -5.7      1.754      2.797
REMARK  6 active torsions:
REMARK  status: ('A' for Active; 'I' for Inactive)
REMARK    1  A    between atoms: C_2  and  S_1 
REMARK    2  A    between atoms: N_3  and  S_1 
REMARK    3  A    between atoms: C_9  and  N_3 
REMARK    4  A    between atoms: C_13  and  C_7 
REMARK    5  A    between atoms: O_14  and  C_8 
REMARK    6  A    between atoms: C_20  and  O_14 
ROOT
ATOM      1  C   UNL d   1     -47.632  13.406  22.862  0.00  0.00     0.128 A 
ATOM      2  C   UNL d   1     -47.964  12.683  23.084  0.00  0.00     0.015 A 
ATOM      3  C   UNL d   1     -47.482  12.074  23.364  0.00  0.00     0.001 A 
ATOM      4  C   UNL d   1     -46.820  13.514  22.922  0.00  0.00     0.112 A 
ATOM      5  C   UNL d   1     -46.667  12.190  23.422  0.00  0.00     0.002 A 
ATOM      6  C   UNL d   1     -46.335  12.913  23.199  0.00  0.00     0.025 A 
ENDROOT
BRANCH   1   7
ATOM      7  S   UNL d   1     -48.117  14.006  22.584  0.00  0.00     0.287 S 
ATOM      8  O   UNL d   1     -48.089  14.380  23.311  0.00  0.00    -0.198 OA
ATOM      9  O   UNL d   1     -48.148  13.633  21.850  0.00  0.00    -0.198 OA
BRANCH   7  10
ATOM     10  N   UNL d   1     -48.606  14.607  22.298  0.00  0.00    -0.157 NA
BRANCH  10  11
ATOM     11  C   UNL d   1     -49.424  14.545  22.382  0.00  0.00     0.113 A 
ATOM     12  C   UNL d   1     -49.795  14.860  23.040  0.00  0.00     0.119 A 
ATOM     13  N   UNL d   1     -50.613  14.797  23.123  0.00  0.00    -0.241 NA
ATOM     14  C   UNL d   1     -51.064  14.413  22.539  0.00  0.00     0.099 A 
ATOM     15  C   UNL d   1     -50.683  14.097  21.877  0.00  0.00     0.022 A 
ATOM     16  C   UNL d   1     -49.865  14.160  21.794  0.00  0.00     0.023 A 
ENDBRANCH  10  11
ENDBRANCH   7  10
ENDBRANCH   1   7
BRANCH   4  17
ATOM     17  O   UNL d   1     -46.487  14.237  22.699  0.00  0.00    -0.304 OA
BRANCH  17  18
ATOM     18  C   UNL d   1     -45.674  14.357  22.771  0.00  0.00     0.123 C 
ATOM     19  C   UNL d   1     -45.253  14.714  22.156  0.00  0.00     0.029 C 
ENDBRANCH  17  18
ENDBRANCH   4  17
BRANCH   3  20
ATOM     20  C   UNL d   1     -47.815  11.351  23.587  0.00  0.00     0.000 C 
ATOM     21  C   UNL d   1     -48.630  11.288  23.698  0.00  0.00     0.000 C 
ATOM     22  C   UNL d   1     -47.325  10.688  23.698  0.00  0.00     0.000 C 
ENDBRANCH   3  20
TORSDOF 6
ENDMDL
MODEL 6
REMARK VINA RESULT:      -5.5      1.193      1.649
REMARK  6 active torsions:
REMARK  status: ('A' for Active; 'I' for Inactive)
REMARK    1  A    between atoms: C_2  and  S_1 
REMARK    2  A    between atoms: N_3  and  S_1 
REMARK    3  A    between atoms: C_9  and  N_3 
REMARK    4  A    between atoms: C_13  and  C_7 
REMARK    5  A    between atoms: O_14  and  C_8 
REMARK    6  A    between atoms: C_20  and  O_14 
ROOT
ATOM      1  C   UNL d   1     -47.704  13.581  22.625  0.00  0.00     0.128 A 
ATOM      2  C   UNL d   1     -48.297  14.156  22.622  0.00  0.00     0.015 A 
ATOM      3  C   UNL d   1     -48.097  14.956  22.580  0.00  0.00     0.001 A 
ATOM      4  C   UNL d   1     -46.917  13.810  22.585  0.00  0.00     0.112 A 
ATOM      5  C   UNL d   1     -47.303  15.179  22.540  0.00  0.00     0.002 A 
ATOM      6  C   UNL d   1     -46.711  14.603  22.543  0.00  0.00     0.025 A 
ENDROOT
BRANCH   1   7
ATOM      7  S   UNL d   1     -47.910  12.787  22.668  0.00  0.00     0.287 S 
ATOM      8  O   UNL d   1     -48.037  12.765  21.861  0.00  0.00    -0.198 OA
ATOM      9  O   UNL d   1     -47.783  12.805  23.483  0.00  0.00    -0.198 OA
BRANCH   7  10
ATOM     10  N   UNL d   1     -48.116  11.990  22.718  0.00  0.00    -0.157 NA
BRANCH  10  11
ATOM     11  C   UNL d   1     -48.895  11.777  22.892  0.00  0.00     0.113 A 
ATOM     12  C   UNL d   1     -49.054  11.284  23.525  0.00  0.00     0.119 A 
ATOM     13  N   UNL d   1     -49.832  11.073  23.698  0.00  0.00    -0.241 NA
ATOM     14  C   UNL d   1     -50.458  11.359  23.230  0.00  0.00     0.099 A 
ATOM     15  C   UNL d   1     -50.289  11.857  22.592  0.00  0.00     0.022 A 
ATOM     16  C   UNL d   1     -49.510  12.069  22.419  0.00  0.00     0.023 A 
ENDBRANCH  10  11
ENDBRANCH   7  10
ENDBRANCH   1   7
BRANCH   4  17
ATOM     17  O   UNL d   1     -46.324  13.234  22.588  0.00  0.00    -0.304 OA
BRANCH  17  18
ATOM     18  C   UNL d   1     -45.536  13.451  22.474  0.00  0.00     0.123 C 
ATOM     19  C   UNL d   1     -44.975  12.880  22.265  0.00  0.00     0.029 C 
ENDBRANCH  17  18
ENDBRANCH   4  17
BRANCH   3  20
ATOM     20  C   UNL d   1     -48.690  15.532  22.577  0.00  0.00     0.000 C 
ATOM     21  C   UNL d   1     -48.978  15.825  21.862  0.00  0.00     0.000 C 
ATOM     22  C   UNL d   1     -48.995  15.814  23.298  0.00  0.00     0.000 C 
ENDBRANCH   3  20
TORSDOF 6
ENDMDL
MODEL 7
REMARK VINA RESULT:      -5.1      9.111     10.207
REMARK  6 active torsions:
REMARK  status: ('A' for Active; 'I' for Inactive)
REMARK    1  A    between atoms: C_2  and  S_1 
REMARK    2  A    between atoms: N_3  and  S_1 
REMARK    3  A    between atoms: C_9  and  N_3 
REMARK    4  A    between atoms: C_13  and  C_7 
REMARK    5  A    between atoms: O_14  and  C_8 
REMARK    6  A    between atoms: C_20  and  O_14 
ROOT
ATOM      1  C   UNL d   1     -39.094  14.040  18.650  0.00  0.00     0.128 A 
ATOM      2  C   UNL d   1     -38.860  13.586  18.001  0.00  0.00     0.015 A 
ATOM      3  C   UNL d   1     -38.309  12.978  18.097  0.00  0.00     0.001 A 
ATOM      4  C   UNL d   1     -38.775  13.883  19.390  0.00  0.00     0.112 A 
ATOM      5  C   UNL d   1     -37.993  12.826  18.844  0.00  0.00     0.002 A 
ATOM      6  C   UNL d   1     -38.227  13.280  19.493  0.00  0.00     0.025 A 
ENDROOT
BRANCH   1   7
ATOM      7  S   UNL d   1     -39.642  14.642  18.547  0.00  0.00     0.287 S 
ATOM      8  O   UNL d   1     -40.254  14.130  18.723  0.00  0.00    -0.198 OA
ATOM      9  O   UNL d   1     -39.027  15.162  18.368  0.00  0.00    -0.198 OA
BRANCH   7  10
ATOM     10  N   UNL d   1     -40.187  15.252  18.441  0.00  0.00    -0.157 NA
BRANCH  10  11
ATOM     11  C   UNL d   1     -40.517  15.383  17.696  0.00  0.00     0.113 A 
ATOM     12  C   UNL d   1     -41.274  15.121  17.530  0.00  0.00     0.119 A 
ATOM     13  N   UNL d   1     -41.602  15.252  16.785  0.00  0.00    -0.241 NA
ATOM     14  C   UNL d   1     -41.166  15.652  16.200  0.00  0.00     0.099 A 
ATOM     15  C   UNL d   1     -40.402  15.914  16.376  0.00  0.00     0.022 A 
ATOM     16  C   UNL d   1     -40.073  15.783  17.121  0.00  0.00     0.023 A 
ENDBRANCH  10  11
ENDBRANCH   7  10
ENDBRANCH   1   7
BRANCH   4  17
ATOM     17  O   UNL d   1     -39.009  14.337  20.040  0.00  0.00    -0.304 OA
BRANCH  17  18
ATOM     18  C   UNL d   1     -38.922  14.040  20.805  0.00  0.00     0.123 C 
ATOM     19  C   UNL d   1     -38.998  14.544  21.456  0.00  0.00     0.029 C 
ENDBRANCH  17  18
ENDBRANCH   4  17
BRANCH   3  20
ATOM     20  C   UNL d   1     -38.075  12.524  17.447  0.00  0.00     0.000 C 
ATOM     21  C   UNL d   1     -37.943  11.714  17.535  0.00  0.00     0.000 C 
ATOM     22  C   UNL d   1     -37.974  12.886  16.705  0.00  0.00     0.000 C 
ENDBRANCH   3  20
TORSDOF 6
ENDMDL
MODEL 8
REMARK VINA RESULT:      -4.0      8.833     10.173
REMARK  6 active torsions:
REMARK  status: ('A' for Active; 'I' for Inactive)
REMARK    1  A    between atoms: C_2  and  S_1 
REMARK    2  A    between atoms: N_3  and  S_1 
REMARK    3  A    between atoms: C_9  and  N_3 
REMARK    4  A    between atoms: C_13  and  C_7 
REMARK    5  A    between atoms: O_14  and  C_8 
REMARK    6  A    between atoms: C_20  and  O_14 
ROOT
ATOM      1  C   UNL d   1     -40.162  15.180  18.250  0.00  0.00     0.128 A 
ATOM      2  C   UNL d   1     -40.052  15.076  19.062  0.00  0.00     0.015 A 
ATOM      3  C   UNL d   1     -40.614  15.358  19.596  0.00  0.00     0.001 A 
ATOM      4  C   UNL d   1     -40.835  15.565  17.979  0.00  0.00     0.112 A 
ATOM      5  C   UNL d   1     -41.288  15.744  19.316  0.00  0.00     0.002 A 
ATOM      6  C   UNL d   1     -41.399  15.848  18.504  0.00  0.00     0.025 A 
ENDROOT
BRANCH   1   7
ATOM      7  S   UNL d   1     -39.598  14.897  17.725  0.00  0.00     0.287 S 
ATOM      8  O   UNL d   1     -39.973  14.172  17.696  0.00  0.00    -0.198 OA
ATOM      9  O   UNL d   1     -39.217  15.628  17.751  0.00  0.00    -0.198 OA
BRANCH   7  10
ATOM     10  N   UNL d   1     -39.028  14.620  17.197  0.00  0.00    -0.157 NA
BRANCH  10  11
ATOM     11  C   UNL d   1     -38.678  13.883  17.322  0.00  0.00     0.113 A 
ATOM     12  C   UNL d   1     -38.321  13.714  18.039  0.00  0.00     0.119 A 
ATOM     13  N   UNL d   1     -37.971  12.978  18.163  0.00  0.00    -0.241 NA
ATOM     14  C   UNL d   1     -37.980  12.404  17.561  0.00  0.00     0.099 A 
ATOM     15  C   UNL d   1     -38.342  12.582  16.839  0.00  0.00     0.022 A 
ATOM     16  C   UNL d   1     -38.692  13.318  16.715  0.00  0.00     0.023 A 
ENDBRANCH  10  11
ENDBRANCH   7  10
ENDBRANCH   1   7
BRANCH   4  17
ATOM     17  O   UNL d   1     -40.946  15.669  17.166  0.00  0.00    -0.304 OA
BRANCH  17  18
ATOM     18  C   UNL d   1     -41.707  15.761  16.861  0.00  0.00     0.123 C 
ATOM     19  C   UNL d   1     -41.816  15.895  16.052  0.00  0.00     0.029 C 
ENDBRANCH  17  18
ENDBRANCH   4  17
BRANCH   3  20
ATOM     20  C   UNL d   1     -40.504  15.254  20.409  0.00  0.00     0.000 C 
ATOM     21  C   UNL d   1     -40.467  14.494  20.727  0.00  0.00     0.000 C 
ATOM     22  C   UNL d   1     -40.430  15.919  20.904  0.00  0.00     0.000 C 
ENDBRANCH   3  20
TORSDOF 6
ENDMDL
