MODEL 1
REMARK VINA RESULT:      -3.3      0.000      0.000
REMARK  6 active torsions:
REMARK  status: ('A' for Active; 'I' for Inactive)
REMARK    1  A    between atoms: N_9  and  C_1 
REMARK    2  A    between atoms: C_4  and  S_13 
REMARK    3  A    between atoms: C_14  and  C_8 
REMARK       I    between atoms: C_12  and  N_9 
REMARK    4  A    between atoms: C_17  and  C_10 
REMARK    5  A    between atoms: C_16  and  C_12 
REMARK    6  A    between atoms: S_13  and  C_16 
ROOT
ATOM      1  S   UNL d   1      33.216  19.187 -22.383  0.00  0.00    -0.043 SA
ENDROOT
BRANCH   1   2
ATOM      2  C   UNL d   1      33.002  18.645 -22.976  0.00  0.00     0.195 A 
ATOM      3  N   UNL d   1      32.513  17.991 -22.885  0.00  0.00    -0.220 NA
ATOM      4  C   UNL d   1      32.457  17.620 -23.609  0.00  0.00     0.103 A 
ATOM      5  C   UNL d   1      32.907  18.038 -24.148  0.00  0.00     0.120 A 
ATOM      6  N   UNL d   1      33.241  18.668 -23.754  0.00  0.00    -0.218 NA
BRANCH   4   7
ATOM      7  C   UNL d   1      32.009  16.940 -23.729  0.00  0.00     0.019 A 
ATOM      8  C   UNL d   1      31.230  16.999 -24.001  0.00  0.00     0.002 A 
ATOM      9  C   UNL d   1      30.792  16.307 -24.117  0.00  0.00     0.000 A 
ATOM     10  C   UNL d   1      31.132  15.572 -23.963  0.00  0.00     0.000 A 
ATOM     11  C   UNL d   1      31.897  15.519 -23.696  0.00  0.00     0.000 A 
ATOM     12  C   UNL d   1      32.343  16.214 -23.577  0.00  0.00     0.002 A 
ENDBRANCH   4   7
ENDBRANCH   1   2
BRANCH   1  13
ATOM     13  C   UNL d   1      33.065  19.992 -22.492  0.00  0.00     0.101 C 
BRANCH  13  14
ATOM     14  C   UNL d   1      32.951  20.487 -21.841  0.00  0.00     0.288 C 
ATOM     15  N   UNL d   1      32.612  21.235 -21.933  0.00  0.00    -0.181 NA
ATOM     16  O   UNL d   1      33.180  20.228 -21.083  0.00  0.00    -0.265 OA
BRANCH  15  17
ATOM     17  C   UNL d   1      32.499  21.730 -21.277  0.00  0.00     0.219 A 
ATOM     18  S   UNL d   1      32.866  22.469 -21.250  0.00  0.00    -0.026 SA
ATOM     19  C   UNL d   1      32.653  22.834 -20.535  0.00  0.00     0.135 A 
ATOM     20  N   UNL d   1      32.155  22.317 -20.126  0.00  0.00    -0.139 NA
ATOM     21  N   UNL d   1      32.059  21.636 -20.581  0.00  0.00    -0.121 NA
BRANCH  19  22
ATOM     22  C   UNL d   1      32.891  23.577 -20.276  0.00  0.00     0.028 C 
ATOM     23  C   UNL d   1      33.129  23.676 -19.491  0.00  0.00     0.002 C 
ENDBRANCH  19  22
ENDBRANCH  15  17
ENDBRANCH  13  14
ENDBRANCH   1  13
TORSDOF 6
ENDMDL
MODEL 2
REMARK VINA RESULT:      -3.2      1.134      5.925
REMARK  6 active torsions:
REMARK  status: ('A' for Active; 'I' for Inactive)
REMARK    1  A    between atoms: N_9  and  C_1 
REMARK    2  A    between atoms: C_4  and  S_13 
REMARK    3  A    between atoms: C_14  and  C_8 
REMARK       I    between atoms: C_12  and  N_9 
REMARK    4  A    between atoms: C_17  and  C_10 
REMARK    5  A    between atoms: C_16  and  C_12 
REMARK    6  A    between atoms: S_13  and  C_16 
ROOT
ATOM      1  S   UNL d   1      33.088  19.740 -22.066  0.00  0.00    -0.043 SA
ENDROOT
BRANCH   1   2
ATOM      2  C   UNL d   1      33.084  20.566 -21.974  0.00  0.00     0.195 A 
ATOM      3  N   UNL d   1      32.923  20.978 -21.281  0.00  0.00    -0.220 NA
ATOM      4  C   UNL d   1      32.982  21.774 -21.446  0.00  0.00     0.103 A 
ATOM      5  C   UNL d   1      33.179  21.860 -22.236  0.00  0.00     0.120 A 
ATOM      6  N   UNL d   1      33.240  21.114 -22.556  0.00  0.00    -0.218 NA
BRANCH   4   7
ATOM      7  C   UNL d   1      32.856  22.359 -20.880  0.00  0.00     0.019 A 
ATOM      8  C   UNL d   1      32.427  23.039 -21.075  0.00  0.00     0.002 A 
ATOM      9  C   UNL d   1      32.309  23.617 -20.496  0.00  0.00     0.000 A 
ATOM     10  C   UNL d   1      32.615  23.513 -19.739  0.00  0.00     0.000 A 
ATOM     11  C   UNL d   1      33.036  22.844 -19.552  0.00  0.00     0.000 A 
ATOM     12  C   UNL d   1      33.159  22.257 -20.132  0.00  0.00     0.002 A 
ENDBRANCH   4   7
ENDBRANCH   1   2
BRANCH   1  13
ATOM     13  C   UNL d   1      33.055  19.414 -22.825  0.00  0.00     0.101 C 
BRANCH  13  14
ATOM     14  C   UNL d   1      32.928  18.605 -22.927  0.00  0.00     0.288 C 
ATOM     15  N   UNL d   1      32.494  18.323 -23.571  0.00  0.00    -0.181 NA
ATOM     16  O   UNL d   1      33.241  18.067 -22.372  0.00  0.00    -0.265 OA
BRANCH  15  17
ATOM     17  C   UNL d   1      32.367  17.508 -23.670  0.00  0.00     0.219 A 
ATOM     18  S   UNL d   1      31.617  17.229 -23.870  0.00  0.00    -0.026 SA
ATOM     19  C   UNL d   1      31.660  16.402 -23.930  0.00  0.00     0.135 A 
ATOM     20  N   UNL d   1      32.437  16.177 -23.766  0.00  0.00    -0.139 NA
ATOM     21  N   UNL d   1      32.876  16.857 -23.605  0.00  0.00    -0.121 NA
BRANCH  19  22
ATOM     22  C   UNL d   1      31.042  15.894 -24.118  0.00  0.00     0.028 C 
ATOM     23  C   UNL d   1      30.562  15.597 -23.515  0.00  0.00     0.002 C 
ENDBRANCH  19  22
ENDBRANCH  15  17
ENDBRANCH  13  14
ENDBRANCH   1  13
TORSDOF 6
ENDMDL
MODEL 3
REMARK VINA RESULT:      -2.3      1.208      1.778
REMARK  6 active torsions:
REMARK  status: ('A' for Active; 'I' for Inactive)
REMARK    1  A    between atoms: N_9  and  C_1 
REMARK    2  A    between atoms: C_4  and  S_13 
REMARK    3  A    between atoms: C_14  and  C_8 
REMARK       I    between atoms: C_12  and  N_9 
REMARK    4  A    between atoms: C_17  and  C_10 
REMARK    5  A    between atoms: C_16  and  C_12 
REMARK    6  A    between atoms: S_13  and  C_16 
ROOT
ATOM      1  S   UNL d   1      33.233  20.516 -21.808  0.00  0.00    -0.043 SA
ENDROOT
BRANCH   1   2
ATOM      2  C   UNL d   1      33.149  19.965 -22.424  0.00  0.00     0.195 A 
ATOM      3  N   UNL d   1      33.004  19.160 -22.342  0.00  0.00    -0.220 NA
ATOM      4  C   UNL d   1      32.964  18.838 -23.089  0.00  0.00     0.103 A 
ATOM      5  C   UNL d   1      33.083  19.434 -23.635  0.00  0.00     0.120 A 
ATOM      6  N   UNL d   1      33.197  20.127 -23.221  0.00  0.00    -0.218 NA
BRANCH   4   7
ATOM      7  C   UNL d   1      32.824  18.037 -23.224  0.00  0.00     0.019 A 
ATOM      8  C   UNL d   1      33.241  17.466 -22.794  0.00  0.00     0.002 A 
ATOM      9  C   UNL d   1      33.090  16.666 -22.939  0.00  0.00     0.000 A 
ATOM     10  C   UNL d   1      32.532  16.447 -23.504  0.00  0.00     0.000 A 
ATOM     11  C   UNL d   1      32.126  17.010 -23.924  0.00  0.00     0.000 A 
ATOM     12  C   UNL d   1      32.274  17.819 -23.781  0.00  0.00     0.002 A 
ENDBRANCH   4   7
ENDBRANCH   1   2
BRANCH   1  13
ATOM     13  C   UNL d   1      32.681  21.126 -21.728  0.00  0.00     0.101 C 
BRANCH  13  14
ATOM     14  C   UNL d   1      32.861  21.796 -21.281  0.00  0.00     0.288 C 
ATOM     15  N   UNL d   1      32.733  21.806 -20.464  0.00  0.00    -0.181 NA
ATOM     16  O   UNL d   1      33.175  22.469 -21.658  0.00  0.00    -0.265 OA
BRANCH  15  17
ATOM     17  C   UNL d   1      32.915  22.482 -20.017  0.00  0.00     0.219 A 
ATOM     18  S   UNL d   1      32.909  22.444 -19.193  0.00  0.00    -0.026 SA
ATOM     19  C   UNL d   1      33.111  23.195 -18.902  0.00  0.00     0.135 A 
ATOM     20  N   UNL d   1      33.240  23.691 -19.549  0.00  0.00    -0.139 NA
ATOM     21  N   UNL d   1      33.121  23.253 -20.238  0.00  0.00    -0.121 NA
BRANCH  19  22
ATOM     22  C   UNL d   1      33.172  23.411 -18.112  0.00  0.00     0.028 C 
ATOM     23  C   UNL d   1      32.496  23.408 -17.636  0.00  0.00     0.002 C 
ENDBRANCH  19  22
ENDBRANCH  15  17
ENDBRANCH  13  14
ENDBRANCH   1  13
TORSDOF 6
ENDMDL
MODEL 4
REMARK VINA RESULT:      -1.3      1.854      5.771
REMARK  6 active torsions:
REMARK  status: ('A' for Active; 'I' for Inactive)
REMARK    1  A    between atoms: N_9  and  C_1 
REMARK    2  A    between atoms: C_4  and  S_13 
REMARK    3  A    between atoms: C_14  and  C_8 
REMARK       I    between atoms: C_12  and  N_9 
REMARK    4  A    between atoms: C_17  and  C_10 
REMARK    5  A    between atoms: C_16  and  C_12 
REMARK    6  A    between atoms: S_13  and  C_16 
ROOT
ATOM      1  S   UNL d   1      32.854  19.470 -22.388  0.00  0.00    -0.043 SA
ENDROOT
BRANCH   1   2
ATOM      2  C   UNL d   1      32.958  20.290 -22.298  0.00  0.00     0.195 A 
ATOM      3  N   UNL d   1      32.820  20.864 -22.870  0.00  0.00    -0.220 NA
ATOM      4  C   UNL d   1      32.994  21.589 -22.540  0.00  0.00     0.103 A 
ATOM      5  C   UNL d   1      33.238  21.471 -21.769  0.00  0.00     0.120 A 
ATOM      6  N   UNL d   1      33.214  20.669 -21.624  0.00  0.00    -0.218 NA
BRANCH   4   7
ATOM      7  C   UNL d   1      32.921  22.297 -22.954  0.00  0.00     0.019 A 
ATOM      8  C   UNL d   1      32.568  22.954 -22.594  0.00  0.00     0.002 A 
ATOM      9  C   UNL d   1      32.502  23.658 -23.021  0.00  0.00     0.000 A 
ATOM     10  C   UNL d   1      32.783  23.701 -23.795  0.00  0.00     0.000 A 
ATOM     11  C   UNL d   1      33.128  23.054 -24.144  0.00  0.00     0.000 A 
ATOM     12  C   UNL d   1      33.198  22.341 -23.718  0.00  0.00     0.002 A 
ENDBRANCH   4   7
ENDBRANCH   1   2
BRANCH   1  13
ATOM     13  C   UNL d   1      33.035  19.114 -23.112  0.00  0.00     0.101 C 
BRANCH  13  14
ATOM     14  C   UNL d   1      32.756  18.356 -23.285  0.00  0.00     0.288 C 
ATOM     15  N   UNL d   1      32.240  18.229 -23.917  0.00  0.00    -0.181 NA
ATOM     16  O   UNL d   1      33.000  17.712 -22.815  0.00  0.00    -0.265 OA
BRANCH  15  17
ATOM     17  C   UNL d   1      31.962  17.466 -24.088  0.00  0.00     0.219 A 
ATOM     18  S   UNL d   1      31.181  17.357 -24.330  0.00  0.00    -0.026 SA
ATOM     19  C   UNL d   1      31.065  16.545 -24.459  0.00  0.00     0.135 A 
ATOM     20  N   UNL d   1      31.776  16.159 -24.296  0.00  0.00    -0.139 NA
ATOM     21  N   UNL d   1      32.331  16.724 -24.067  0.00  0.00    -0.121 NA
BRANCH  19  22
ATOM     22  C   UNL d   1      30.368  16.185 -24.705  0.00  0.00     0.028 C 
ATOM     23  C   UNL d   1      29.836  15.901 -24.140  0.00  0.00     0.002 C 
ENDBRANCH  19  22
ENDBRANCH  15  17
ENDBRANCH  13  14
ENDBRANCH   1  13
TORSDOF 6
ENDMDL
