MODEL 1
REMARK VINA RESULT:      -6.3      0.000      0.000
REMARK  3 active torsions:
REMARK  status: ('A' for Active; 'I' for Inactive)
REMARK    1  A    between atoms: S_8  and  C_1 
REMARK    2  A    between atoms: C_7  and  C_12 
REMARK    3  A    between atoms: C_12  and  S_8 
ROOT
ATOM      1  C   UNL d   1     -48.334  13.194  22.969  0.00  0.00     0.141 A 
ATOM      2  N   UNL d   1     -48.399  12.463  23.326  0.00  0.00    -0.232 NA
ATOM      3  S   UNL d   1     -47.555  13.347  22.810  0.00  0.00    -0.060 SA
ATOM      4  C   UNL d   1     -47.644  12.169  23.383  0.00  0.00     0.088 A 
ATOM      5  C   UNL d   1     -47.122  12.715  23.063  0.00  0.00     0.049 A 
ATOM      6  C   UNL d   1     -47.363  11.450  23.695  0.00  0.00     0.020 A 
ATOM      7  C   UNL d   1     -46.317  12.547  23.054  0.00  0.00     0.008 A 
ATOM      8  C   UNL d   1     -46.543  11.292  23.679  0.00  0.00     0.002 A 
ATOM      9  C   UNL d   1     -46.022  11.838  23.360  0.00  0.00     0.001 A 
ENDROOT
BRANCH   1  10
ATOM     10  S   UNL d   1     -48.966  13.698  22.799  0.00  0.00    -0.060 SA
BRANCH  10  11
ATOM     11  C   UNL d   1     -49.117  14.352  23.262  0.00  0.00     0.044 C 
BRANCH  11  12
ATOM     12  C   UNL d   1     -49.839  14.773  23.191  0.00  0.00     0.036 A 
ATOM     13  S   UNL d   1     -49.897  15.532  23.512  0.00  0.00    -0.086 SA
ATOM     14  C   UNL d   1     -50.657  15.799  23.358  0.00  0.00     0.035 A 
ATOM     15  C   UNL d   1     -51.063  15.208  22.945  0.00  0.00     0.007 A 
ATOM     16  C   UNL d   1     -50.548  14.571  22.843  0.00  0.00     0.007 A 
ENDBRANCH  11  12
ENDBRANCH  10  11
ENDBRANCH   1  10
TORSDOF 3
ENDMDL
MODEL 2
REMARK VINA RESULT:      -6.2      1.281      4.244
REMARK  3 active torsions:
REMARK  status: ('A' for Active; 'I' for Inactive)
REMARK    1  A    between atoms: S_8  and  C_1 
REMARK    2  A    between atoms: C_7  and  C_12 
REMARK    3  A    between atoms: C_12  and  S_8 
ROOT
ATOM      1  C   UNL d   1     -48.607  14.246  22.833  0.00  0.00     0.141 A 
ATOM      2  N   UNL d   1     -48.708  15.046  22.956  0.00  0.00    -0.232 NA
ATOM      3  S   UNL d   1     -49.300  13.860  22.995  0.00  0.00    -0.060 SA
ATOM      4  C   UNL d   1     -49.477  15.145  23.197  0.00  0.00     0.088 A 
ATOM      5  C   UNL d   1     -49.843  14.412  23.220  0.00  0.00     0.049 A 
ATOM      6  C   UNL d   1     -49.898  15.833  23.402  0.00  0.00     0.020 A 
ATOM      7  C   UNL d   1     -50.632  14.361  23.450  0.00  0.00     0.008 A 
ATOM      8  C   UNL d   1     -50.698  15.768  23.632  0.00  0.00     0.002 A 
ATOM      9  C   UNL d   1     -51.064  15.035  23.656  0.00  0.00     0.001 A 
ENDROOT
BRANCH   1  10
ATOM     10  S   UNL d   1     -47.906  13.888  22.582  0.00  0.00    -0.060 SA
BRANCH  10  11
ATOM     11  C   UNL d   1     -47.332  13.669  23.120  0.00  0.00     0.044 C 
BRANCH  11  12
ATOM     12  C   UNL d   1     -46.600  13.352  22.862  0.00  0.00     0.036 A 
ATOM     13  S   UNL d   1     -46.313  12.662  23.215  0.00  0.00    -0.086 SA
ATOM     14  C   UNL d   1     -45.597  12.489  22.853  0.00  0.00     0.035 A 
ATOM     15  C   UNL d   1     -45.446  13.069  22.283  0.00  0.00     0.007 A 
ATOM     16  C   UNL d   1     -46.074  13.604  22.293  0.00  0.00     0.007 A 
ENDBRANCH  11  12
ENDBRANCH  10  11
ENDBRANCH   1  10
TORSDOF 3
ENDMDL
MODEL 3
REMARK VINA RESULT:      -5.9      0.872      4.178
REMARK  3 active torsions:
REMARK  status: ('A' for Active; 'I' for Inactive)
REMARK    1  A    between atoms: S_8  and  C_1 
REMARK    2  A    between atoms: C_7  and  C_12 
REMARK    3  A    between atoms: C_12  and  S_8 
ROOT
ATOM      1  C   UNL d   1     -48.586  13.653  22.744  0.00  0.00     0.141 A 
ATOM      2  N   UNL d   1     -49.274  13.366  22.412  0.00  0.00    -0.232 NA
ATOM      3  S   UNL d   1     -48.704  14.416  22.987  0.00  0.00    -0.060 SA
ATOM      4  C   UNL d   1     -49.818  13.968  22.456  0.00  0.00     0.088 A 
ATOM      5  C   UNL d   1     -49.466  14.617  22.811  0.00  0.00     0.049 A 
ATOM      6  C   UNL d   1     -50.612  14.002  22.208  0.00  0.00     0.020 A 
ATOM      7  C   UNL d   1     -49.904  15.305  22.921  0.00  0.00     0.008 A 
ATOM      8  C   UNL d   1     -51.046  14.706  22.325  0.00  0.00     0.002 A 
ATOM      9  C   UNL d   1     -50.693  15.355  22.681  0.00  0.00     0.001 A 
ENDROOT
BRANCH   1  10
ATOM     10  S   UNL d   1     -47.881  13.229  22.818  0.00  0.00    -0.060 SA
BRANCH  10  11
ATOM     11  C   UNL d   1     -47.826  12.596  23.330  0.00  0.00     0.044 C 
BRANCH  11  12
ATOM     12  C   UNL d   1     -47.114  12.159  23.398  0.00  0.00     0.036 A 
ATOM     13  S   UNL d   1     -47.139  11.390  23.698  0.00  0.00    -0.086 SA
ATOM     14  C   UNL d   1     -46.369  11.108  23.698  0.00  0.00     0.035 A 
ATOM     15  C   UNL d   1     -45.874  11.700  23.399  0.00  0.00     0.007 A 
ATOM     16  C   UNL d   1     -46.343  12.353  23.214  0.00  0.00     0.007 A 
ENDBRANCH  11  12
ENDBRANCH  10  11
ENDBRANCH   1  10
TORSDOF 3
ENDMDL
MODEL 4
REMARK VINA RESULT:      -5.7      1.534      2.029
REMARK  3 active torsions:
REMARK  status: ('A' for Active; 'I' for Inactive)
REMARK    1  A    between atoms: S_8  and  C_1 
REMARK    2  A    between atoms: C_7  and  C_12 
REMARK    3  A    between atoms: C_12  and  S_8 
ROOT
ATOM      1  C   UNL d   1     -47.705  13.048  23.057  0.00  0.00     0.141 A 
ATOM      2  N   UNL d   1     -47.212  12.421  23.228  0.00  0.00    -0.232 NA
ATOM      3  S   UNL d   1     -47.289  13.614  22.654  0.00  0.00    -0.060 SA
ATOM      4  C   UNL d   1     -46.484  12.612  22.924  0.00  0.00     0.088 A 
ATOM      5  C   UNL d   1     -46.531  13.350  22.569  0.00  0.00     0.049 A 
ATOM      6  C   UNL d   1     -45.766  12.191  22.928  0.00  0.00     0.020 A 
ATOM      7  C   UNL d   1     -45.862  13.672  22.215  0.00  0.00     0.008 A 
ATOM      8  C   UNL d   1     -45.094  12.530  22.566  0.00  0.00     0.002 A 
ATOM      9  C   UNL d   1     -45.141  13.267  22.211  0.00  0.00     0.001 A 
ENDROOT
BRANCH   1  10
ATOM     10  S   UNL d   1     -48.504  13.095  23.262  0.00  0.00    -0.060 SA
BRANCH  10  11
ATOM     11  C   UNL d   1     -48.986  12.438  23.225  0.00  0.00     0.044 C 
BRANCH  11  12
ATOM     12  C   UNL d   1     -49.807  12.497  23.380  0.00  0.00     0.036 A 
ATOM     13  S   UNL d   1     -50.231  11.816  23.578  0.00  0.00    -0.086 SA
ATOM     14  C   UNL d   1     -51.009  12.045  23.697  0.00  0.00     0.035 A 
ATOM     15  C   UNL d   1     -51.064  12.862  23.574  0.00  0.00     0.007 A 
ATOM     16  C   UNL d   1     -50.312  13.138  23.377  0.00  0.00     0.007 A 
ENDBRANCH  11  12
ENDBRANCH  10  11
ENDBRANCH   1  10
TORSDOF 3
ENDMDL
MODEL 5
REMARK VINA RESULT:      -5.7      1.669      3.914
REMARK  3 active torsions:
REMARK  status: ('A' for Active; 'I' for Inactive)
REMARK    1  A    between atoms: S_8  and  C_1 
REMARK    2  A    between atoms: C_7  and  C_12 
REMARK    3  A    between atoms: C_12  and  S_8 
ROOT
ATOM      1  C   UNL d   1     -48.403  12.484  23.330  0.00  0.00     0.141 A 
ATOM      2  N   UNL d   1     -48.857  13.161  23.365  0.00  0.00    -0.232 NA
ATOM      3  S   UNL d   1     -48.881  11.836  23.417  0.00  0.00    -0.060 SA
ATOM      4  C   UNL d   1     -49.624  12.917  23.477  0.00  0.00     0.088 A 
ATOM      5  C   UNL d   1     -49.638  12.098  23.509  0.00  0.00     0.049 A 
ATOM      6  C   UNL d   1     -50.327  13.355  23.554  0.00  0.00     0.020 A 
ATOM      7  C   UNL d   1     -50.356  11.710  23.619  0.00  0.00     0.008 A 
ATOM      8  C   UNL d   1     -51.049  12.950  23.666  0.00  0.00     0.002 A 
ATOM      9  C   UNL d   1     -51.064  12.130  23.698  0.00  0.00     0.001 A 
ENDROOT
BRANCH   1  10
ATOM     10  S   UNL d   1     -47.585  12.465  23.221  0.00  0.00    -0.060 SA
BRANCH  10  11
ATOM     11  C   UNL d   1     -47.193  13.094  22.880  0.00  0.00     0.044 C 
BRANCH  11  12
ATOM     12  C   UNL d   1     -46.377  13.043  22.693  0.00  0.00     0.036 A 
ATOM     13  S   UNL d   1     -46.036  13.622  22.212  0.00  0.00    -0.086 SA
ATOM     14  C   UNL d   1     -45.244  13.426  22.128  0.00  0.00     0.035 A 
ATOM     15  C   UNL d   1     -45.100  12.731  22.554  0.00  0.00     0.007 A 
ATOM     16  C   UNL d   1     -45.809  12.497  22.904  0.00  0.00     0.007 A 
ENDBRANCH  11  12
ENDBRANCH  10  11
ENDBRANCH   1  10
TORSDOF 3
ENDMDL
MODEL 6
REMARK VINA RESULT:      -5.0      8.659     10.498
REMARK  3 active torsions:
REMARK  status: ('A' for Active; 'I' for Inactive)
REMARK    1  A    between atoms: S_8  and  C_1 
REMARK    2  A    between atoms: C_7  and  C_12 
REMARK    3  A    between atoms: C_12  and  S_8 
ROOT
ATOM      1  C   UNL d   1     -40.141  14.731  18.591  0.00  0.00     0.141 A 
ATOM      2  N   UNL d   1     -40.403  14.172  19.124  0.00  0.00    -0.232 NA
ATOM      3  S   UNL d   1     -40.239  15.469  18.907  0.00  0.00    -0.060 SA
ATOM      4  C   UNL d   1     -40.664  14.581  19.775  0.00  0.00     0.088 A 
ATOM      5  C   UNL d   1     -40.563  15.384  19.641  0.00  0.00     0.049 A 
ATOM      6  C   UNL d   1     -40.990  14.311  20.492  0.00  0.00     0.020 A 
ATOM      7  C   UNL d   1     -40.786  15.922  20.222  0.00  0.00     0.008 A 
ATOM      8  C   UNL d   1     -41.213  14.867  21.073  0.00  0.00     0.002 A 
ATOM      9  C   UNL d   1     -41.111  15.670  20.939  0.00  0.00     0.001 A 
ENDROOT
BRANCH   1  10
ATOM     10  S   UNL d   1     -39.826  14.566  17.845  0.00  0.00    -0.060 SA
BRANCH  10  11
ATOM     11  C   UNL d   1     -39.356  13.911  17.724  0.00  0.00     0.044 C 
BRANCH  11  12
ATOM     12  C   UNL d   1     -38.896  13.833  17.028  0.00  0.00     0.036 A 
ATOM     13  S   UNL d   1     -38.286  13.276  17.007  0.00  0.00    -0.086 SA
ATOM     14  C   UNL d   1     -37.940  13.328  16.265  0.00  0.00     0.035 A 
ATOM     15  C   UNL d   1     -38.335  13.914  15.833  0.00  0.00     0.007 A 
ATOM     16  C   UNL d   1     -38.929  14.225  16.314  0.00  0.00     0.007 A 
ENDBRANCH  11  12
ENDBRANCH  10  11
ENDBRANCH   1  10
TORSDOF 3
ENDMDL
MODEL 7
REMARK VINA RESULT:      -4.9      8.961     10.378
REMARK  3 active torsions:
REMARK  status: ('A' for Active; 'I' for Inactive)
REMARK    1  A    between atoms: S_8  and  C_1 
REMARK    2  A    between atoms: C_7  and  C_12 
REMARK    3  A    between atoms: C_12  and  S_8 
ROOT
ATOM      1  C   UNL d   1     -39.761  14.690  18.156  0.00  0.00     0.141 A 
ATOM      2  N   UNL d   1     -39.609  15.140  17.491  0.00  0.00    -0.232 NA
ATOM      3  S   UNL d   1     -39.413  13.964  18.073  0.00  0.00    -0.060 SA
ATOM      4  C   UNL d   1     -39.161  14.675  16.998  0.00  0.00     0.088 A 
ATOM      5  C   UNL d   1     -39.040  13.948  17.358  0.00  0.00     0.049 A 
ATOM      6  C   UNL d   1     -38.842  14.832  16.246  0.00  0.00     0.020 A 
ATOM      7  C   UNL d   1     -38.598  13.373  16.968  0.00  0.00     0.008 A 
ATOM      8  C   UNL d   1     -38.396  14.240  15.861  0.00  0.00     0.002 A 
ATOM      9  C   UNL d   1     -38.275  13.513  16.221  0.00  0.00     0.001 A 
ENDROOT
BRANCH   1  10
ATOM     10  S   UNL d   1     -40.200  14.940  18.809  0.00  0.00    -0.060 SA
BRANCH  10  11
ATOM     11  C   UNL d   1     -39.830  15.202  19.487  0.00  0.00     0.044 C 
BRANCH  11  12
ATOM     12  C   UNL d   1     -40.276  15.486  20.138  0.00  0.00     0.036 A 
ATOM     13  S   UNL d   1     -39.893  15.635  20.855  0.00  0.00    -0.086 SA
ATOM     14  C   UNL d   1     -40.464  15.904  21.379  0.00  0.00     0.035 A 
ATOM     15  C   UNL d   1     -41.192  15.921  20.986  0.00  0.00     0.007 A 
ATOM     16  C   UNL d   1     -41.069  15.660  20.213  0.00  0.00     0.007 A 
ENDBRANCH  11  12
ENDBRANCH  10  11
ENDBRANCH   1  10
TORSDOF 3
ENDMDL
MODEL 8
REMARK VINA RESULT:      -4.8      9.228     10.025
REMARK  3 active torsions:
REMARK  status: ('A' for Active; 'I' for Inactive)
REMARK    1  A    between atoms: S_8  and  C_1 
REMARK    2  A    between atoms: C_7  and  C_12 
REMARK    3  A    between atoms: C_12  and  S_8 
ROOT
ATOM      1  C   UNL d   1     -40.170  14.707  19.606  0.00  0.00     0.141 A 
ATOM      2  N   UNL d   1     -40.024  14.241  18.953  0.00  0.00    -0.232 NA
ATOM      3  S   UNL d   1     -40.505  15.405  19.368  0.00  0.00    -0.060 SA
ATOM      4  C   UNL d   1     -40.275  14.666  18.307  0.00  0.00     0.088 A 
ATOM      5  C   UNL d   1     -40.572  15.386  18.564  0.00  0.00     0.049 A 
ATOM      6  C   UNL d   1     -40.267  14.477  17.497  0.00  0.00     0.020 A 
ATOM      7  C   UNL d   1     -40.864  15.922  18.013  0.00  0.00     0.008 A 
ATOM      8  C   UNL d   1     -40.566  15.031  16.947  0.00  0.00     0.002 A 
ATOM      9  C   UNL d   1     -40.864  15.750  17.204  0.00  0.00     0.001 A 
ENDROOT
BRANCH   1  10
ATOM     10  S   UNL d   1     -40.003  14.498  20.387  0.00  0.00    -0.060 SA
BRANCH  10  11
ATOM     11  C   UNL d   1     -39.238  14.513  20.671  0.00  0.00     0.044 C 
BRANCH  11  12
ATOM     12  C   UNL d   1     -39.061  14.246  21.445  0.00  0.00     0.036 A 
ATOM     13  S   UNL d   1     -38.397  14.549  21.834  0.00  0.00    -0.086 SA
ATOM     14  C   UNL d   1     -38.367  14.189  22.570  0.00  0.00     0.035 A 
ATOM     15  C   UNL d   1     -39.008  13.670  22.634  0.00  0.00     0.007 A 
ATOM     16  C   UNL d   1     -39.437  13.709  21.930  0.00  0.00     0.007 A 
ENDBRANCH  11  12
ENDBRANCH  10  11
ENDBRANCH   1  10
TORSDOF 3
ENDMDL
