MODEL 1
REMARK VINA RESULT:     123.0      0.000      0.000
REMARK  6 active torsions:
REMARK  status: ('A' for Active; 'I' for Inactive)
REMARK    1  A    between atoms: N_7  and  C_1 
REMARK    2  A    between atoms: C_6  and  C_4 
REMARK    3  A    between atoms: C_22  and  C_12 
REMARK    4  A    between atoms: C_23  and  N_13 
REMARK    5  A    between atoms: O_17  and  C_22 
REMARK    6  A    between atoms: C_18  and  O_17 
ROOT
ATOM      1  C   UNL d   1     -55.463-101.509 -44.740  0.00  0.00     0.198 A 
ATOM      2  C   UNL d   1     -55.507-100.880 -44.231  0.00  0.00     0.191 A 
ATOM      3  O   UNL d   1     -55.288-102.163 -44.290  0.00  0.00    -0.268 OA
ATOM      4  C   UNL d   1     -55.229-101.926 -43.518  0.00  0.00     0.208 A 
ATOM      5  N   UNL d   1     -55.360-101.170 -43.495  0.00  0.00    -0.206 NA
ATOM      6  C   UNL d   1     -55.674-100.069 -44.404  0.00  0.00     0.124 C 
ATOM      7  N   UNL d   1     -55.840 -99.265 -44.587  0.00  0.00    -0.190 NA
ENDROOT
BRANCH   1   8
ATOM      8  N   UNL d   1     -55.548-101.631 -45.555  0.00  0.00    -0.280 N 
ATOM      9  C   UNL d   1     -55.530-102.379 -45.849  0.00  0.00     0.101 A 
ATOM     10  C   UNL d   1     -55.616-102.501 -46.665  0.00  0.00     0.100 A 
ATOM     11  N   UNL d   1     -55.713-101.889 -47.152  0.00  0.00    -0.300 N 
ATOM     12  C   UNL d   1     -55.734-101.109 -46.870  0.00  0.00     0.100 A 
ATOM     13  C   UNL d   1     -55.651-100.970 -46.061  0.00  0.00     0.101 A 
BRANCH  11  14
ATOM     14  C   UNL d   1     -55.798-102.012 -47.967  0.00  0.00     0.080 C 
ATOM     15  C   UNL d   1     -56.244-102.666 -48.282  0.00  0.00     0.021 C 
ENDBRANCH  11  14
ENDBRANCH   1   8
BRANCH   4  16
ATOM     16  C   UNL d   1     -55.125-101.925 -42.722  0.00  0.00     0.141 A 
ATOM     17  O   UNL d   1     -54.787-101.714 -41.969  0.00  0.00    -0.301 OA
ATOM     18  C   UNL d   1     -55.209-102.145 -41.407  0.00  0.00     0.125 A 
ATOM     19  C   UNL d   1     -55.763-102.586 -41.796  0.00  0.00     0.029 A 
ATOM     20  C   UNL d   1     -55.706-102.447 -42.592  0.00  0.00     0.030 A 
BRANCH  18  21
ATOM     21  C   UNL d   1     -55.064-102.108 -40.611  0.00  0.00     0.147 C 
BRANCH  21  22
ATOM     22  O   UNL d   1     -55.104-102.763 -40.144  0.00  0.00    -0.303 OA
BRANCH  22  23
ATOM     23  C   UNL d   1     -55.394-102.730 -39.398  0.00  0.00     0.100 A 
ATOM     24  C   UNL d   1     -56.212-102.710 -39.263  0.00  0.00     0.023 A 
ATOM     25  C   UNL d   1     -56.723-102.725 -39.916  0.00  0.00     0.002 C 
ATOM     26  C   UNL d   1     -56.499-102.678 -38.526  0.00  0.00     0.002 A 
ATOM     27  C   UNL d   1     -55.988-102.663 -37.873  0.00  0.00     0.000 A 
ATOM     28  C   UNL d   1     -55.162-102.683 -38.005  0.00  0.00     0.002 A 
ATOM     29  C   UNL d   1     -54.875-102.716 -38.742  0.00  0.00     0.025 A 
ENDBRANCH  22  23
ENDBRANCH  21  22
ENDBRANCH  18  21
ENDBRANCH   4  16
TORSDOF 6
ENDMDL
