MODEL 1
REMARK VINA RESULT:       2.7      0.000      0.000
REMARK  8 active torsions:
REMARK  status: ('A' for Active; 'I' for Inactive)
REMARK    1  A    between atoms: C_7  and  N_1 
REMARK    2  A    between atoms: C_2  and  C_5 
REMARK    3  A    between atoms: C_9  and  C_4 
REMARK       I    between atoms: N_20  and  C_9 
REMARK    4  A    between atoms: O_25  and  C_14 
REMARK    5  A    between atoms: O_26  and  C_16 
REMARK    6  A    between atoms: C_27  and  N_20 
REMARK    7  A    between atoms: C_23  and  C_28 
REMARK    8  A    between atoms: C_28  and  C_27 
ROOT
ATOM      1  C   UNL d   1     -42.319-122.686 -50.282  0.00  0.00     0.101 A 
ATOM      2  O   UNL d   1     -41.696-122.658 -50.821  0.00  0.00    -0.302 OA
ATOM      3  C   UNL d   1     -42.006-122.438 -51.550  0.00  0.00     0.158 A 
ATOM      4  C   UNL d   1     -43.011-122.486 -50.667  0.00  0.00     0.027 A 
ATOM      5  C   UNL d   1     -42.820-122.329 -51.463  0.00  0.00     0.032 A 
ENDROOT
BRANCH   3   6
ATOM      6  C   UNL d   1     -41.581-122.340 -52.250  0.00  0.00     0.302 C 
ATOM      7  O   UNL d   1     -41.123-121.669 -52.367  0.00  0.00    -0.263 OA
ATOM      8  N   UNL d   1     -41.620-122.921 -52.834  0.00  0.00    -0.205 NA
BRANCH   8   9
ATOM      9  C   UNL d   1     -41.193-122.823 -53.537  0.00  0.00     0.102 C 
BRANCH   9  10
ATOM     10  C   UNL d   1     -41.469-123.156 -54.239  0.00  0.00     0.021 C 
BRANCH  10  11
ATOM     11  C   UNL d   1     -41.686-122.676 -54.864  0.00  0.00     0.004 A 
ATOM     12  C   UNL d   1     -42.464-122.683 -55.129  0.00  0.00     0.026 A 
ATOM     13  C   UNL d   1     -42.684-122.199 -55.760  0.00  0.00     0.116 A 
ATOM     14  C   UNL d   1     -42.124-121.709 -56.122  0.00  0.00     0.116 A 
ATOM     15  C   UNL d   1     -41.346-121.705 -55.853  0.00  0.00     0.026 A 
ATOM     16  C   UNL d   1     -41.127-122.190 -55.222  0.00  0.00     0.002 A 
BRANCH  13  17
ATOM     17  O   UNL d   1     -43.466-122.202 -56.032  0.00  0.00    -0.326 OA
ATOM     18  C   UNL d   1     -44.030-122.667 -55.644  0.00  0.00     0.181 C 
ENDBRANCH  13  17
BRANCH  14  19
ATOM     19  O   UNL d   1     -42.344-121.227 -56.750  0.00  0.00    -0.326 OA
ATOM     20  C   UNL d   1     -41.794-120.722 -57.095  0.00  0.00     0.181 C 
ENDBRANCH  14  19
ENDBRANCH  10  11
ENDBRANCH   9  10
ENDBRANCH   8   9
ENDBRANCH   3   6
BRANCH   1  21
ATOM     21  C   UNL d   1     -42.246-122.886 -49.485  0.00  0.00     0.034 A 
ATOM     22  C   UNL d   1     -41.573-123.280 -49.207  0.00  0.00     0.004 A 
ATOM     23  C   UNL d   1     -41.513-123.473 -48.407  0.00  0.00     0.024 A 
ATOM     24  C   UNL d   1     -42.117-123.277 -47.888  0.00  0.00     0.128 A 
ATOM     25  C   UNL d   1     -42.790-122.883 -48.166  0.00  0.00     0.035 A 
ATOM     26  C   UNL d   1     -42.856-122.687 -48.962  0.00  0.00     0.061 A 
ATOM     27 CL   UNL d   1     -43.526-122.297 -49.231  0.00  0.00    -0.082 Cl
BRANCH  24  28
ATOM     28  N   UNL d   1     -42.057-123.470 -47.086  0.00  0.00    -0.114 N 
ATOM     29  O   UNL d   1     -42.693-123.814 -46.691  0.00  0.00    -0.532 OA
ATOM     30  O   UNL d   1     -41.357-123.318 -46.680  0.00  0.00    -0.532 OA
ENDBRANCH  24  28
ENDBRANCH   1  21
TORSDOF 8
ENDMDL
MODEL 2
REMARK VINA RESULT:       5.4      1.576      6.767
REMARK  8 active torsions:
REMARK  status: ('A' for Active; 'I' for Inactive)
REMARK    1  A    between atoms: C_7  and  N_1 
REMARK    2  A    between atoms: C_2  and  C_5 
REMARK    3  A    between atoms: C_9  and  C_4 
REMARK       I    between atoms: N_20  and  C_9 
REMARK    4  A    between atoms: O_25  and  C_14 
REMARK    5  A    between atoms: O_26  and  C_16 
REMARK    6  A    between atoms: C_27  and  N_20 
REMARK    7  A    between atoms: C_23  and  C_28 
REMARK    8  A    between atoms: C_28  and  C_27 
ROOT
ATOM      1  C   UNL d   1     -41.877-121.893 -53.518  0.00  0.00     0.101 A 
ATOM      2  O   UNL d   1     -41.722-122.622 -53.166  0.00  0.00    -0.302 OA
ATOM      3  C   UNL d   1     -41.575-122.488 -52.368  0.00  0.00     0.158 A 
ATOM      4  C   UNL d   1     -41.829-121.309 -52.949  0.00  0.00     0.027 A 
ATOM      5  C   UNL d   1     -41.640-121.677 -52.226  0.00  0.00     0.032 A 
ENDROOT
BRANCH   3   6
ATOM      6  C   UNL d   1     -41.394-123.061 -51.803  0.00  0.00     0.302 C 
ATOM      7  O   UNL d   1     -41.172-123.817 -52.036  0.00  0.00    -0.263 OA
ATOM      8  N   UNL d   1     -41.438-122.872 -51.003  0.00  0.00    -0.205 NA
BRANCH   8   9
ATOM      9  C   UNL d   1     -41.256-123.447 -50.435  0.00  0.00     0.102 C 
BRANCH   9  10
ATOM     10  C   UNL d   1     -41.808-123.649 -49.858  0.00  0.00     0.021 C 
BRANCH  10  11
ATOM     11  C   UNL d   1     -41.738-123.350 -49.100  0.00  0.00     0.004 A 
ATOM     12  C   UNL d   1     -42.137-123.716 -48.482  0.00  0.00     0.026 A 
ATOM     13  C   UNL d   1     -42.067-123.415 -47.717  0.00  0.00     0.116 A 
ATOM     14  C   UNL d   1     -41.597-122.748 -47.574  0.00  0.00     0.116 A 
ATOM     15  C   UNL d   1     -41.200-122.385 -48.197  0.00  0.00     0.026 A 
ATOM     16  C   UNL d   1     -41.271-122.687 -48.961  0.00  0.00     0.002 A 
BRANCH  13  17
ATOM     17  O   UNL d   1     -42.466-123.779 -47.089  0.00  0.00    -0.326 OA
ATOM     18  C   UNL d   1     -43.282-123.669 -47.008  0.00  0.00     0.181 C 
ENDBRANCH  13  17
BRANCH  14  19
ATOM     19  O   UNL d   1     -41.528-122.450 -46.812  0.00  0.00    -0.326 OA
ATOM     20  C   UNL d   1     -41.124-121.745 -46.681  0.00  0.00     0.181 C 
ENDBRANCH  14  19
ENDBRANCH  10  11
ENDBRANCH   9  10
ENDBRANCH   8   9
ENDBRANCH   3   6
BRANCH   1  21
ATOM     21  C   UNL d   1     -42.052-121.781 -54.317  0.00  0.00     0.034 A 
ATOM     22  C   UNL d   1     -41.525-121.380 -54.814  0.00  0.00     0.004 A 
ATOM     23  C   UNL d   1     -41.712-121.275 -55.610  0.00  0.00     0.024 A 
ATOM     24  C   UNL d   1     -42.418-121.566 -55.910  0.00  0.00     0.128 A 
ATOM     25  C   UNL d   1     -42.945-121.966 -55.413  0.00  0.00     0.035 A 
ATOM     26  C   UNL d   1     -42.765-122.075 -54.618  0.00  0.00     0.061 A 
ATOM     27 CL   UNL d   1     -43.291-122.473 -54.131  0.00  0.00    -0.082 Cl
BRANCH  24  28
ATOM     28  N   UNL d   1     -42.607-121.461 -56.709  0.00  0.00    -0.114 N 
ATOM     29  O   UNL d   1     -43.302-121.775 -57.018  0.00  0.00    -0.532 OA
ATOM     30  O   UNL d   1     -42.095-121.039 -57.198  0.00  0.00    -0.532 OA
ENDBRANCH  24  28
ENDBRANCH   1  21
TORSDOF 8
ENDMDL
