MODEL 1
REMARK VINA RESULT:      -1.9      0.000      0.000
REMARK  8 active torsions:
REMARK  status: ('A' for Active; 'I' for Inactive)
REMARK    1  A    between atoms: N_10  and  C_1 
REMARK    2  A    between atoms: C_20  and  N_2 
REMARK    3  A    between atoms: C_4  and  S_13 
REMARK       I    between atoms: C_14  and  N_10 
REMARK       I    between atoms: C_12  and  N_18 
REMARK    4  A    between atoms: C_16  and  C_12 
REMARK    5  A    between atoms: S_13  and  C_19 
REMARK    6  A    between atoms: C_19  and  C_14 
REMARK    7  A    between atoms: N_18  and  C_22 
REMARK    8  A    between atoms: C_22  and  C_20 
ROOT
ATOM      1  N   UNL d   1      57.869   0.492  31.428  0.00  0.00    -0.302 N 
ATOM      2  C   UNL d   1      58.491   0.143  30.298  0.00  0.00     0.049 A 
ATOM      3  C   UNL d   1      57.753   0.267  30.631  0.00  0.00     0.087 A 
ATOM      4  C   UNL d   1      59.069   0.288  30.876  0.00  0.00     0.024 A 
ATOM      5  C   UNL d   1      58.681   0.503  31.571  0.00  0.00     0.065 A 
ATOM      6  C   UNL d   1      59.886   0.250  30.849  0.00  0.00     0.002 A 
ATOM      7  C   UNL d   1      59.120   0.678  32.238  0.00  0.00     0.018 A 
ATOM      8  C   UNL d   1      60.325   0.428  31.523  0.00  0.00     0.000 A 
ATOM      9  C   UNL d   1      59.944   0.643  32.221  0.00  0.00     0.002 A 
ENDROOT
BRANCH   1  10
ATOM     10  C   UNL d   1      57.283   0.671  31.975  0.00  0.00     0.101 C 
BRANCH  10  11
ATOM     11  C   UNL d   1      56.763   0.085  32.228  0.00  0.00     0.121 C 
BRANCH  11  12
ATOM     12  N   UNL d   1      56.074   0.297  32.638  0.00  0.00    -0.205 NA
ATOM     13  C   UNL d   1      55.968   0.048  33.420  0.00  0.00     0.279 C 
ATOM     14  O   UNL d   1      56.550  -0.412  33.790  0.00  0.00    -0.265 OA
BRANCH  13  15
ATOM     15  C   UNL d   1      55.286   0.258  33.825  0.00  0.00     0.058 A 
ATOM     16  C   UNL d   1      54.610   0.443  33.422  0.00  0.00     0.005 A 
ATOM     17  C   UNL d   1      53.917   0.656  33.813  0.00  0.00     0.000 A 
ATOM     18  C   UNL d   1      53.908   0.682  34.638  0.00  0.00     0.000 A 
ATOM     19  C   UNL d   1      54.597   0.493  35.061  0.00  0.00     0.000 A 
ATOM     20  C   UNL d   1      55.285   0.282  34.653  0.00  0.00     0.005 A 
ENDBRANCH  13  15
ENDBRANCH  11  12
ENDBRANCH  10  11
ENDBRANCH   1  10
BRANCH   2  21
ATOM     21  S   UNL d   1      58.639  -0.086  29.519  0.00  0.00    -0.080 SA
BRANCH  21  22
ATOM     22  C   UNL d   1      58.260  -0.749  29.212  0.00  0.00     0.098 C 
BRANCH  22  23
ATOM     23  C   UNL d   1      58.698  -1.429  29.024  0.00  0.00     0.288 C 
ATOM     24  N   UNL d   1      58.357  -2.168  29.118  0.00  0.00    -0.181 NA
ATOM     25  O   UNL d   1      59.466  -1.356  28.745  0.00  0.00    -0.265 OA
BRANCH  24  26
ATOM     26  C   UNL d   1      58.787  -2.854  28.933  0.00  0.00     0.219 A 
ATOM     27  S   UNL d   1      59.592  -2.901  28.792  0.00  0.00    -0.026 SA
ATOM     28  C   UNL d   1      59.774  -3.690  28.630  0.00  0.00     0.135 A 
ATOM     29  C   UNL d   1      60.525  -3.987  28.457  0.00  0.00     0.030 C 
ATOM     30  N   UNL d   1      59.092  -4.133  28.669  0.00  0.00    -0.139 NA
ATOM     31  N   UNL d   1      58.475  -3.621  28.856  0.00  0.00    -0.121 NA
ENDBRANCH  24  26
ENDBRANCH  22  23
ENDBRANCH  21  22
ENDBRANCH   2  21
TORSDOF 8
ENDMDL
