MODEL 1
REMARK VINA RESULT:      52.5      0.000      0.000
REMARK  3 active torsions:
REMARK  status: ('A' for Active; 'I' for Inactive)
REMARK    1  A    between atoms: C_11  and  C_4 
REMARK       I    between atoms: C_6  and  N_8 
REMARK    2  A    between atoms: C_9  and  C_6 
REMARK    3  A    between atoms: N_8  and  C_19 
ROOT
ATOM      1  C   UNL d   1      13.461  12.425  -3.423  0.00  0.00     0.021 A 
ATOM      2  C   UNL d   1      13.277  13.183  -4.631  0.00  0.00     0.085 A 
ATOM      3  C   UNL d   1      13.565  13.121  -3.860  0.00  0.00     0.021 A 
ATOM      4  C   UNL d   1      13.061  11.779  -3.767  0.00  0.00     0.002 A 
ATOM      5  C   UNL d   1      12.771  11.836  -4.537  0.00  0.00     0.002 A 
ATOM      6  C   UNL d   1      12.876  12.537  -4.975  0.00  0.00     0.019 A 
ENDROOT
BRANCH   2   7
ATOM      7  N   UNL d   1      13.385  13.879  -5.058  0.00  0.00    -0.208 NA
ATOM      8  C   UNL d   1      13.278  14.619  -4.697  0.00  0.00     0.279 C 
ATOM      9  O   UNL d   1      13.058  14.651  -3.893  0.00  0.00    -0.265 OA
BRANCH   8  10
ATOM     10  C   UNL d   1      13.385  15.315  -5.123  0.00  0.00     0.060 A 
ATOM     11  C   UNL d   1      14.016  15.811  -4.949  0.00  0.00     0.031 A 
ATOM     12  C   UNL d   1      14.116  16.497  -5.373  0.00  0.00     0.119 A 
ATOM     13  O   UNL d   1      14.689  17.102  -5.329  0.00  0.00    -0.300 OA
ATOM     14  C   UNL d   1      13.590  16.698  -5.976  0.00  0.00     0.119 A 
ATOM     15  C   UNL d   1      14.508  17.667  -5.906  0.00  0.00     0.304 A 
ATOM     16  O   UNL d   1      13.829  17.417  -6.305  0.00  0.00    -0.300 OA
ATOM     17  C   UNL d   1      12.957  16.203  -6.153  0.00  0.00     0.026 A 
ATOM     18  C   UNL d   1      12.853  15.505  -5.724  0.00  0.00     0.007 A 
ENDBRANCH   8  10
ENDBRANCH   2   7
BRANCH   1  19
ATOM     19  C   UNL d   1      13.749  12.363  -2.653  0.00  0.00     0.118 A 
ATOM     20  N   UNL d   1      14.458  12.671  -2.371  0.00  0.00    -0.059 NA
ATOM     21  C   UNL d   1      14.519  12.475  -1.566  0.00  0.00     0.735 A 
ATOM     22  N   UNL d   1      13.845  12.047  -1.358  0.00  0.00    -0.136 N 
ATOM     23  N   UNL d   1      15.107  12.638  -1.010  0.00  0.00    -0.059 NA
ATOM     24  C   UNL d   1      13.367  11.976  -2.027  0.00  0.00     0.118 A 
ATOM     25  C   UNL d   1      13.762  11.779  -0.576  0.00  0.00     0.100 A 
ATOM     26  C   UNL d   1      14.339  11.936  -0.017  0.00  0.00     0.041 A 
ATOM     27  C   UNL d   1      15.016  12.368  -0.235  0.00  0.00     0.119 A 
ENDBRANCH   1  19
TORSDOF 3
ENDMDL
