MODEL 1
REMARK VINA RESULT:     -12.4      0.000      0.000
REMARK  0 active torsions:
REMARK  status: ('A' for Active; 'I' for Inactive)
ROOT
ATOM      1  N   UNL d   1      53.031  32.570  53.391  0.00  0.00    -0.176 N 
ATOM      2  C   UNL d   1      53.570  32.431  54.000  0.00  0.00     0.167 A 
ATOM      3  N   UNL d   1      52.821  33.317  53.196  0.00  0.00    -0.150 NA
ATOM      4  C   UNL d   1      52.704  31.911  52.978  0.00  0.00     0.283 A 
ATOM      5  N   UNL d   1      53.779  31.633  54.190  0.00  0.00    -0.227 NA
ATOM      6  C   UNL d   1      53.147  33.970  53.609  0.00  0.00     0.159 A 
ATOM      7  C   UNL d   1      52.911  31.132  53.167  0.00  0.00     0.076 A 
ATOM      8  C   UNL d   1      53.896  33.039  54.409  0.00  0.00     0.038 A 
ATOM      9  C   UNL d   1      53.451  30.992  53.776  0.00  0.00     0.088 A 
ATOM     10  C   UNL d   1      53.686  33.830  54.218  0.00  0.00     0.033 A 
ATOM     11  O   UNL d   1      52.161  32.052  52.365  0.00  0.00    -0.265 OA
ATOM     12 CL   UNL d   1      52.938  34.721  53.415  0.00  0.00    -0.060 Cl
ATOM     13  C   UNL d   1      52.587  30.501  52.758  0.00  0.00     0.006 A 
ATOM     14  C   UNL d   1      54.435  32.899  55.018  0.00  0.00     0.003 A 
ATOM     15  C   UNL d   1      54.012  34.443  54.628  0.00  0.00     0.003 A 
ATOM     16  C   UNL d   1      53.662  30.223  53.971  0.00  0.00     0.019 A 
ATOM     17  C   UNL d   1      52.795  29.727  52.948  0.00  0.00     0.000 A 
ATOM     18  C   UNL d   1      54.765  33.551  55.435  0.00  0.00     0.000 A 
ATOM     19  C   UNL d   1      54.551  34.303  55.237  0.00  0.00     0.000 A 
ATOM     20  C   UNL d   1      53.334  29.588  53.557  0.00  0.00     0.002 A 
ENDROOT
TORSDOF 0
ENDMDL
MODEL 2
REMARK VINA RESULT:     -11.8      1.330      2.231
REMARK  0 active torsions:
REMARK  status: ('A' for Active; 'I' for Inactive)
ROOT
ATOM      1  N   UNL d   1      53.198  32.901  53.755  0.00  0.00    -0.176 N 
ATOM      2  C   UNL d   1      52.511  32.808  53.308  0.00  0.00     0.167 A 
ATOM      3  N   UNL d   1      53.408  33.620  54.033  0.00  0.00    -0.150 NA
ATOM      4  C   UNL d   1      53.676  32.224  53.914  0.00  0.00     0.283 A 
ATOM      5  N   UNL d   1      52.307  32.038  53.023  0.00  0.00    -0.227 NA
ATOM      6  C   UNL d   1      52.932  34.292  53.874  0.00  0.00     0.159 A 
ATOM      7  C   UNL d   1      53.472  31.471  53.633  0.00  0.00     0.076 A 
ATOM      8  C   UNL d   1      52.039  33.434  53.142  0.00  0.00     0.038 A 
ATOM      9  C   UNL d   1      52.785  31.378  53.186  0.00  0.00     0.088 A 
ATOM     10  C   UNL d   1      52.245  34.198  53.426  0.00  0.00     0.033 A 
ATOM     11  O   UNL d   1      54.368  32.318  54.365  0.00  0.00    -0.265 OA
ATOM     12 CL   UNL d   1      53.141  35.016  54.152  0.00  0.00    -0.060 Cl
ATOM     13  C   UNL d   1      53.944  30.822  53.795  0.00  0.00     0.006 A 
ATOM     14  C   UNL d   1      51.353  33.341  52.695  0.00  0.00     0.003 A 
ATOM     15  C   UNL d   1      51.772  34.830  53.261  0.00  0.00     0.003 A 
ATOM     16  C   UNL d   1      52.575  30.636  52.903  0.00  0.00     0.019 A 
ATOM     17  C   UNL d   1      53.739  30.075  53.514  0.00  0.00     0.000 A 
ATOM     18  C   UNL d   1      50.871  34.012  52.532  0.00  0.00     0.000 A 
ATOM     19  C   UNL d   1      51.085  34.737  52.814  0.00  0.00     0.000 A 
ATOM     20  C   UNL d   1      53.053  29.982  53.067  0.00  0.00     0.002 A 
ENDROOT
TORSDOF 0
ENDMDL
MODEL 3
REMARK VINA RESULT:     -11.0      1.738      3.372
REMARK  0 active torsions:
REMARK  status: ('A' for Active; 'I' for Inactive)
ROOT
ATOM      1  N   UNL d   1      52.952  33.372  53.373  0.00  0.00    -0.176 N 
ATOM      2  C   UNL d   1      52.558  32.666  53.210  0.00  0.00     0.167 A 
ATOM      3  N   UNL d   1      53.728  33.371  53.565  0.00  0.00    -0.150 NA
ATOM      4  C   UNL d   1      52.521  34.097  53.333  0.00  0.00     0.283 A 
ATOM      5  N   UNL d   1      51.737  32.689  53.009  0.00  0.00    -0.227 NA
ATOM      6  C   UNL d   1      54.153  32.650  53.604  0.00  0.00     0.159 A 
ATOM      7  C   UNL d   1      51.717  34.115  53.135  0.00  0.00     0.076 A 
ATOM      8  C   UNL d   1      52.943  31.963  53.241  0.00  0.00     0.038 A 
ATOM      9  C   UNL d   1      51.323  33.409  52.972  0.00  0.00     0.088 A 
ATOM     10  C   UNL d   1      53.760  31.943  53.442  0.00  0.00     0.033 A 
ATOM     11  O   UNL d   1      52.918  34.809  53.496  0.00  0.00    -0.265 OA
ATOM     12 CL   UNL d   1      54.933  32.646  53.797  0.00  0.00    -0.060 Cl
ATOM     13  C   UNL d   1      51.311  34.825  53.099  0.00  0.00     0.006 A 
ATOM     14  C   UNL d   1      52.550  31.257  53.078  0.00  0.00     0.003 A 
ATOM     15  C   UNL d   1      54.149  31.238  53.473  0.00  0.00     0.003 A 
ATOM     16  C   UNL d   1      50.526  33.417  52.775  0.00  0.00     0.019 A 
ATOM     17  C   UNL d   1      50.511  34.841  52.903  0.00  0.00     0.000 A 
ATOM     18  C   UNL d   1      52.972  30.530  53.116  0.00  0.00     0.000 A 
ATOM     19  C   UNL d   1      53.755  30.531  53.311  0.00  0.00     0.000 A 
ATOM     20  C   UNL d   1      50.117  34.134  52.740  0.00  0.00     0.002 A 
ENDROOT
TORSDOF 0
ENDMDL
MODEL 4
REMARK VINA RESULT:     -10.8      1.596      2.808
REMARK  0 active torsions:
REMARK  status: ('A' for Active; 'I' for Inactive)
ROOT
ATOM      1  N   UNL d   1      52.774  32.892  53.288  0.00  0.00    -0.176 N 
ATOM      2  C   UNL d   1      52.913  33.527  53.796  0.00  0.00     0.167 A 
ATOM      3  N   UNL d   1      53.297  32.289  53.239  0.00  0.00    -0.150 NA
ATOM      4  C   UNL d   1      52.072  32.890  52.821  0.00  0.00     0.283 A 
ATOM      5  N   UNL d   1      52.348  34.156  53.833  0.00  0.00    -0.227 NA
ATOM      6  C   UNL d   1      53.994  32.293  53.705  0.00  0.00     0.159 A 
ATOM      7  C   UNL d   1      51.521  33.508  52.859  0.00  0.00     0.076 A 
ATOM      8  C   UNL d   1      53.572  33.554  54.252  0.00  0.00     0.038 A 
ATOM      9  C   UNL d   1      51.659  34.143  53.367  0.00  0.00     0.088 A 
ATOM     10  C   UNL d   1      54.132  32.928  54.213  0.00  0.00     0.033 A 
ATOM     11  O   UNL d   1      51.933  32.250  52.309  0.00  0.00    -0.265 OA
ATOM     12 CL   UNL d   1      54.520  31.688  53.658  0.00  0.00    -0.060 Cl
ATOM     13  C   UNL d   1      50.843  33.494  52.400  0.00  0.00     0.006 A 
ATOM     14  C   UNL d   1      53.710  34.190  54.760  0.00  0.00     0.003 A 
ATOM     15  C   UNL d   1      54.796  32.953  54.670  0.00  0.00     0.003 A 
ATOM     16  C   UNL d   1      51.119  34.759  53.413  0.00  0.00     0.019 A 
ATOM     17  C   UNL d   1      50.297  34.109  52.441  0.00  0.00     0.000 A 
ATOM     18  C   UNL d   1      54.408  34.199  55.229  0.00  0.00     0.000 A 
ATOM     19  C   UNL d   1      54.934  33.589  55.178  0.00  0.00     0.000 A 
ATOM     20  C   UNL d   1      50.435  34.744  52.949  0.00  0.00     0.002 A 
ENDROOT
TORSDOF 0
ENDMDL
MODEL 5
REMARK VINA RESULT:     -10.1      1.077      3.316
REMARK  0 active torsions:
REMARK  status: ('A' for Active; 'I' for Inactive)
ROOT
ATOM      1  N   UNL d   1      52.964  32.940  53.766  0.00  0.00    -0.176 N 
ATOM      2  C   UNL d   1      53.475  32.307  53.904  0.00  0.00     0.167 A 
ATOM      3  N   UNL d   1      52.299  32.839  53.333  0.00  0.00    -0.150 NA
ATOM      4  C   UNL d   1      53.155  33.696  54.088  0.00  0.00     0.283 A 
ATOM      5  N   UNL d   1      54.174  32.436  54.365  0.00  0.00    -0.227 NA
ATOM      6  C   UNL d   1      52.112  32.086  53.014  0.00  0.00     0.159 A 
ATOM      7  C   UNL d   1      53.840  33.818  54.538  0.00  0.00     0.076 A 
ATOM      8  C   UNL d   1      53.318  31.578  53.610  0.00  0.00     0.038 A 
ATOM      9  C   UNL d   1      54.351  33.185  54.677  0.00  0.00     0.088 A 
ATOM     10  C   UNL d   1      52.623  31.454  53.153  0.00  0.00     0.033 A 
ATOM     11  O   UNL d   1      52.640  34.333  53.948  0.00  0.00    -0.265 OA
ATOM     12 CL   UNL d   1      51.444  31.982  52.579  0.00  0.00    -0.060 Cl
ATOM     13  C   UNL d   1      54.014  34.556  54.845  0.00  0.00     0.006 A 
ATOM     14  C   UNL d   1      53.829  30.946  53.749  0.00  0.00     0.003 A 
ATOM     15  C   UNL d   1      52.463  30.722  52.856  0.00  0.00     0.003 A 
ATOM     16  C   UNL d   1      55.032  33.296  55.122  0.00  0.00     0.019 A 
ATOM     17  C   UNL d   1      54.695  34.674  55.292  0.00  0.00     0.000 A 
ATOM     18  C   UNL d   1      53.645  30.189  53.431  0.00  0.00     0.000 A 
ATOM     19  C   UNL d   1      52.974  30.089  52.995  0.00  0.00     0.000 A 
ATOM     20  C   UNL d   1      55.206  34.042  55.431  0.00  0.00     0.002 A 
ENDROOT
TORSDOF 0
ENDMDL
