MODEL 1
REMARK VINA RESULT:      -0.1      0.000      0.000
REMARK  4 active torsions:
REMARK  status: ('A' for Active; 'I' for Inactive)
REMARK    1  A    between atoms: N_10  and  C_3 
REMARK    2  A    between atoms: C_11  and  C_5 
REMARK    3  A    between atoms: C_12  and  N_10 
REMARK    4  A    between atoms: O_21  and  C_14 
ROOT
ATOM      1  N   UNL d   1     -41.826-122.539 -52.260  0.00  0.00    -0.184 N 
ATOM      2  C   UNL d   1     -41.775-122.167 -53.010  0.00  0.00     0.168 A 
ATOM      3  C   UNL d   1     -41.669-122.102 -51.575  0.00  0.00     0.217 A 
ATOM      4  N   UNL d   1     -42.184-123.760 -52.889  0.00  0.00    -0.162 NA
ATOM      5  C   UNL d   1     -41.928-122.593 -53.678  0.00  0.00     0.055 A 
ATOM      6  N   UNL d   1     -41.569-121.372 -53.049  0.00  0.00    -0.227 NA
ATOM      7  C   UNL d   1     -41.467-121.318 -51.630  0.00  0.00     0.066 A 
ATOM      8  C   UNL d   1     -42.134-123.393 -53.628  0.00  0.00     0.104 A 
ATOM      9  C   UNL d   1     -41.414-120.938 -52.376  0.00  0.00     0.087 A 
ATOM     10  C   UNL d   1     -41.286-120.759 -51.071  0.00  0.00     0.006 A 
ATOM     11  C   UNL d   1     -42.287-123.817 -54.310  0.00  0.00     0.023 C 
ATOM     12  C   UNL d   1     -41.202-120.156 -52.258  0.00  0.00     0.019 A 
ATOM     13  C   UNL d   1     -41.123-120.047 -51.438  0.00  0.00     0.002 A 
ENDROOT
BRANCH   3  14
ATOM     14  N   UNL d   1     -41.719-122.475 -50.816  0.00  0.00    -0.383 NA
BRANCH  14  15
ATOM     15  C   UNL d   1     -41.786-122.809 -50.048  0.00  0.00     0.134 A 
ATOM     16  C   UNL d   1     -41.144-123.189 -49.684  0.00  0.00     0.034 A 
ATOM     17  C   UNL d   1     -41.215-123.522 -48.916  0.00  0.00     0.027 A 
ATOM     18  C   UNL d   1     -41.947-123.476 -48.497  0.00  0.00     0.094 A 
ATOM     19  C   UNL d   1     -42.616-123.085 -48.865  0.00  0.00     0.027 A 
ATOM     20  C   UNL d   1     -42.541-122.754 -49.633  0.00  0.00     0.034 A 
BRANCH  18  21
ATOM     21  O   UNL d   1     -42.022-123.808 -47.730  0.00  0.00    -0.328 OA
ATOM     22  C   UNL d   1     -41.581-123.489 -47.083  0.00  0.00     0.181 C 
ENDBRANCH  18  21
ENDBRANCH  14  15
ENDBRANCH   3  14
BRANCH   5  23
ATOM     23  C   UNL d   1     -41.878-122.229 -54.413  0.00  0.00     0.004 A 
ATOM     24  C   UNL d   1     -41.178-122.255 -54.840  0.00  0.00     0.000 A 
ATOM     25  C   UNL d   1     -41.124-121.893 -55.572  0.00  0.00     0.000 A 
ATOM     26  C   UNL d   1     -41.779-121.500 -55.883  0.00  0.00     0.000 A 
ATOM     27  C   UNL d   1     -42.474-121.469 -55.467  0.00  0.00     0.000 A 
ATOM     28  C   UNL d   1     -42.525-121.837 -54.724  0.00  0.00     0.000 A 
ENDBRANCH   5  23
TORSDOF 4
ENDMDL
