MODEL 1
REMARK VINA RESULT:      -4.0      0.000      0.000
REMARK  1 active torsions:
REMARK  status: ('A' for Active; 'I' for Inactive)
REMARK    1  A    between atoms: O_8  and  C_4 
ROOT
ATOM      1  C   UNL d   1     -41.798-122.637 -54.499  0.00  0.00     0.021 A 
ATOM      2  C   UNL d   1     -41.931-122.175 -53.829  0.00  0.00     0.024 A 
ATOM      3  C   UNL d   1     -41.396-123.356 -54.443  0.00  0.00     0.103 A 
ATOM      4  C   UNL d   1     -41.663-122.426 -53.097  0.00  0.00     0.094 A 
ATOM      5  C   UNL d   1     -41.124-123.613 -53.707  0.00  0.00     0.023 A 
ATOM      6  C   UNL d   1     -41.257-123.151 -53.037  0.00  0.00     0.026 A 
ATOM      7  N   UNL d   1     -41.268-123.812 -55.124  0.00  0.00    -0.148 N 
ATOM      8  C   UNL d   1     -42.068-122.383 -55.233  0.00  0.00     0.002 A 
ATOM      9  C   UNL d   1     -42.334-121.460 -53.897  0.00  0.00     0.002 A 
ATOM     10  C   UNL d   1     -42.472-121.666 -55.303  0.00  0.00     0.000 A 
ATOM     11  C   UNL d   1     -42.606-121.203 -54.633  0.00  0.00     0.000 A 
ENDROOT
BRANCH   4  12
ATOM     12  O   UNL d   1     -41.797-121.962 -52.423  0.00  0.00    -0.328 OA
ATOM     13  C   UNL d   1     -41.454-122.167 -51.708  0.00  0.00     0.181 C 
ENDBRANCH   4  12
TORSDOF 1
ENDMDL
MODEL 2
REMARK VINA RESULT:      -3.9      2.068      3.572
REMARK  1 active torsions:
REMARK  status: ('A' for Active; 'I' for Inactive)
REMARK    1  A    between atoms: O_8  and  C_4 
ROOT
ATOM      1  C   UNL d   1     -41.153-122.385 -51.241  0.00  0.00     0.021 A 
ATOM      2  C   UNL d   1     -41.179-123.099 -51.653  0.00  0.00     0.024 A 
ATOM      3  C   UNL d   1     -41.149-121.664 -51.643  0.00  0.00     0.103 A 
ATOM      4  C   UNL d   1     -41.202-123.099 -52.472  0.00  0.00     0.094 A 
ATOM      5  C   UNL d   1     -41.172-121.660 -52.469  0.00  0.00     0.023 A 
ATOM      6  C   UNL d   1     -41.198-122.374 -52.881  0.00  0.00     0.026 A 
ATOM      7  N   UNL d   1     -41.123-120.953 -51.217  0.00  0.00    -0.148 N 
ATOM      8  C   UNL d   1     -41.130-122.386 -50.418  0.00  0.00     0.002 A 
ATOM      9  C   UNL d   1     -41.183-123.811 -51.240  0.00  0.00     0.002 A 
ATOM     10  C   UNL d   1     -41.133-123.100 -50.003  0.00  0.00     0.000 A 
ATOM     11  C   UNL d   1     -41.160-123.814 -50.415  0.00  0.00     0.000 A 
ENDROOT
BRANCH   4  12
ATOM     12  O   UNL d   1     -41.228-123.817 -52.886  0.00  0.00    -0.328 OA
ATOM     13  C   UNL d   1     -41.264-123.817 -53.705  0.00  0.00     0.181 C 
ENDBRANCH   4  12
TORSDOF 1
ENDMDL
MODEL 3
REMARK VINA RESULT:      -3.0      1.781      2.670
REMARK  1 active torsions:
REMARK  status: ('A' for Active; 'I' for Inactive)
REMARK    1  A    between atoms: O_8  and  C_4 
ROOT
ATOM      1  C   UNL d   1     -41.280-122.335 -52.496  0.00  0.00     0.021 A 
ATOM      2  C   UNL d   1     -41.215-123.042 -52.076  0.00  0.00     0.024 A 
ATOM      3  C   UNL d   1     -41.336-121.612 -52.101  0.00  0.00     0.103 A 
ATOM      4  C   UNL d   1     -41.206-123.034 -51.257  0.00  0.00     0.094 A 
ATOM      5  C   UNL d   1     -41.327-121.600 -51.275  0.00  0.00     0.023 A 
ATOM      6  C   UNL d   1     -41.263-122.307 -50.855  0.00  0.00     0.026 A 
ATOM      7  N   UNL d   1     -41.400-120.908 -52.534  0.00  0.00    -0.148 N 
ATOM      8  C   UNL d   1     -41.288-122.345 -53.319  0.00  0.00     0.002 A 
ATOM      9  C   UNL d   1     -41.160-123.756 -52.482  0.00  0.00     0.002 A 
ATOM     10  C   UNL d   1     -41.233-123.061 -53.727  0.00  0.00     0.000 A 
ATOM     11  C   UNL d   1     -41.169-123.769 -53.307  0.00  0.00     0.000 A 
ENDROOT
BRANCH   4  12
ATOM     12  O   UNL d   1     -41.142-123.745 -50.836  0.00  0.00    -0.328 OA
ATOM     13  C   UNL d   1     -41.238-123.750 -50.022  0.00  0.00     0.181 C 
ENDBRANCH   4  12
TORSDOF 1
ENDMDL
MODEL 4
REMARK VINA RESULT:      -2.9      1.478      2.593
REMARK  1 active torsions:
REMARK  status: ('A' for Active; 'I' for Inactive)
REMARK    1  A    between atoms: O_8  and  C_4 
ROOT
ATOM      1  C   UNL d   1     -41.239-122.550 -52.048  0.00  0.00     0.021 A 
ATOM      2  C   UNL d   1     -41.349-122.165 -52.770  0.00  0.00     0.024 A 
ATOM      3  C   UNL d   1     -41.240-123.374 -52.004  0.00  0.00     0.103 A 
ATOM      4  C   UNL d   1     -41.462-122.601 -53.454  0.00  0.00     0.094 A 
ATOM      5  C   UNL d   1     -41.353-123.817 -52.692  0.00  0.00     0.023 A 
ATOM      6  C   UNL d   1     -41.464-123.433 -53.413  0.00  0.00     0.026 A 
ATOM      7  N   UNL d   1     -41.128-123.749 -51.273  0.00  0.00    -0.148 N 
ATOM      8  C   UNL d   1     -41.126-122.110 -51.362  0.00  0.00     0.002 A 
ATOM      9  C   UNL d   1     -41.346-121.343 -52.801  0.00  0.00     0.002 A 
ATOM     10  C   UNL d   1     -41.123-121.285 -51.392  0.00  0.00     0.000 A 
ATOM     11  C   UNL d   1     -41.233-120.900 -52.113  0.00  0.00     0.000 A 
ENDROOT
BRANCH   4  12
ATOM     12  O   UNL d   1     -41.573-122.215 -54.179  0.00  0.00    -0.328 OA
ATOM     13  C   UNL d   1     -41.531-122.637 -54.880  0.00  0.00     0.181 C 
ENDBRANCH   4  12
TORSDOF 1
ENDMDL
MODEL 5
REMARK VINA RESULT:      -2.7      1.212      1.901
REMARK  1 active torsions:
REMARK  status: ('A' for Active; 'I' for Inactive)
REMARK    1  A    between atoms: O_8  and  C_4 
ROOT
ATOM      1  C   UNL d   1     -41.667-122.417 -53.920  0.00  0.00     0.021 A 
ATOM      2  C   UNL d   1     -41.418-123.072 -53.484  0.00  0.00     0.024 A 
ATOM      3  C   UNL d   1     -41.874-121.712 -53.543  0.00  0.00     0.103 A 
ATOM      4  C   UNL d   1     -41.373-123.029 -52.667  0.00  0.00     0.094 A 
ATOM      5  C   UNL d   1     -41.830-121.665 -52.720  0.00  0.00     0.023 A 
ATOM      6  C   UNL d   1     -41.581-122.319 -52.284  0.00  0.00     0.026 A 
ATOM      7  N   UNL d   1     -42.122-121.061 -53.992  0.00  0.00    -0.148 N 
ATOM      8  C   UNL d   1     -41.712-122.463 -54.740  0.00  0.00     0.002 A 
ATOM      9  C   UNL d   1     -41.215-123.769 -53.871  0.00  0.00     0.002 A 
ATOM     10  C   UNL d   1     -41.508-123.162 -55.130  0.00  0.00     0.000 A 
ATOM     11  C   UNL d   1     -41.259-123.817 -54.694  0.00  0.00     0.000 A 
ENDROOT
BRANCH   4  12
ATOM     12  O   UNL d   1     -41.123-123.687 -52.230  0.00  0.00    -0.328 OA
ATOM     13  C   UNL d   1     -41.275-123.727 -51.425  0.00  0.00     0.181 C 
ENDBRANCH   4  12
TORSDOF 1
ENDMDL
MODEL 6
REMARK VINA RESULT:      -2.7      1.884      3.226
REMARK  1 active torsions:
REMARK  status: ('A' for Active; 'I' for Inactive)
REMARK    1  A    between atoms: O_8  and  C_4 
ROOT
ATOM      1  C   UNL d   1     -41.295-123.089 -51.538  0.00  0.00     0.021 A 
ATOM      2  C   UNL d   1     -41.242-122.380 -51.120  0.00  0.00     0.024 A 
ATOM      3  C   UNL d   1     -41.283-123.096 -52.364  0.00  0.00     0.103 A 
ATOM      4  C   UNL d   1     -41.177-121.670 -51.523  0.00  0.00     0.094 A 
ATOM      5  C   UNL d   1     -41.217-122.382 -52.774  0.00  0.00     0.023 A 
ATOM      6  C   UNL d   1     -41.165-121.672 -52.356  0.00  0.00     0.026 A 
ATOM      7  N   UNL d   1     -41.336-123.815 -52.773  0.00  0.00    -0.148 N 
ATOM      8  C   UNL d   1     -41.360-123.802 -51.132  0.00  0.00     0.002 A 
ATOM      9  C   UNL d   1     -41.255-122.387 -50.298  0.00  0.00     0.002 A 
ATOM     10  C   UNL d   1     -41.373-123.810 -50.306  0.00  0.00     0.000 A 
ATOM     11  C   UNL d   1     -41.320-123.101 -49.888  0.00  0.00     0.000 A 
ENDROOT
BRANCH   4  12
ATOM     12  O   UNL d   1     -41.125-120.957 -51.103  0.00  0.00    -0.328 OA
ATOM     13  C   UNL d   1     -41.123-120.243 -51.505  0.00  0.00     0.181 C 
ENDBRANCH   4  12
TORSDOF 1
ENDMDL
MODEL 7
REMARK VINA RESULT:      -2.5      3.733      4.978
REMARK  1 active torsions:
REMARK  status: ('A' for Active; 'I' for Inactive)
REMARK    1  A    between atoms: O_8  and  C_4 
ROOT
ATOM      1  C   UNL d   1     -42.383-123.026 -49.786  0.00  0.00     0.021 A 
ATOM      2  C   UNL d   1     -41.771-123.400 -49.378  0.00  0.00     0.024 A 
ATOM      3  C   UNL d   1     -43.018-122.690 -49.379  0.00  0.00     0.103 A 
ATOM      4  C   UNL d   1     -41.788-123.442 -48.561  0.00  0.00     0.094 A 
ATOM      5  C   UNL d   1     -43.039-122.730 -48.555  0.00  0.00     0.023 A 
ATOM      6  C   UNL d   1     -42.427-123.104 -48.147  0.00  0.00     0.026 A 
ATOM      7  N   UNL d   1     -43.628-122.317 -49.800  0.00  0.00    -0.148 N 
ATOM      8  C   UNL d   1     -42.365-122.985 -50.608  0.00  0.00     0.002 A 
ATOM      9  C   UNL d   1     -41.144-123.731 -49.795  0.00  0.00     0.002 A 
ATOM     10  C   UNL d   1     -41.735-123.317 -51.027  0.00  0.00     0.000 A 
ATOM     11  C   UNL d   1     -41.123-123.691 -50.619  0.00  0.00     0.000 A 
ENDROOT
BRANCH   4  12
ATOM     12  O   UNL d   1     -41.173-123.817 -48.151  0.00  0.00    -0.328 OA
ATOM     13  C   UNL d   1     -41.163-123.815 -47.332  0.00  0.00     0.181 C 
ENDBRANCH   4  12
TORSDOF 1
ENDMDL
MODEL 8
REMARK VINA RESULT:      -2.4      2.092      2.752
REMARK  1 active torsions:
REMARK  status: ('A' for Active; 'I' for Inactive)
REMARK    1  A    between atoms: O_8  and  C_4 
ROOT
ATOM      1  C   UNL d   1     -41.256-122.377 -51.980  0.00  0.00     0.021 A 
ATOM      2  C   UNL d   1     -41.223-122.381 -51.155  0.00  0.00     0.024 A 
ATOM      3  C   UNL d   1     -41.223-123.082 -52.408  0.00  0.00     0.103 A 
ATOM      4  C   UNL d   1     -41.156-123.090 -50.751  0.00  0.00     0.094 A 
ATOM      5  C   UNL d   1     -41.156-123.799 -52.003  0.00  0.00     0.023 A 
ATOM      6  C   UNL d   1     -41.123-123.803 -51.179  0.00  0.00     0.026 A 
ATOM      7  N   UNL d   1     -41.257-123.066 -53.236  0.00  0.00    -0.148 N 
ATOM      8  C   UNL d   1     -41.323-121.664 -52.385  0.00  0.00     0.002 A 
ATOM      9  C   UNL d   1     -41.257-121.672 -50.740  0.00  0.00     0.002 A 
ATOM     10  C   UNL d   1     -41.358-120.951 -51.969  0.00  0.00     0.000 A 
ATOM     11  C   UNL d   1     -41.325-120.954 -51.145  0.00  0.00     0.000 A 
ENDROOT
BRANCH   4  12
ATOM     12  O   UNL d   1     -41.123-123.094 -49.923  0.00  0.00    -0.328 OA
ATOM     13  C   UNL d   1     -41.193-123.799 -49.512  0.00  0.00     0.181 C 
ENDBRANCH   4  12
TORSDOF 1
ENDMDL
MODEL 9
REMARK VINA RESULT:      -1.7      3.070      4.852
REMARK  1 active torsions:
REMARK  status: ('A' for Active; 'I' for Inactive)
REMARK    1  A    between atoms: O_8  and  C_4 
ROOT
ATOM      1  C   UNL d   1     -42.537-122.848 -49.462  0.00  0.00     0.021 A 
ATOM      2  C   UNL d   1     -41.882-123.117 -49.885  0.00  0.00     0.024 A 
ATOM      3  C   UNL d   1     -43.102-122.364 -49.820  0.00  0.00     0.103 A 
ATOM      4  C   UNL d   1     -41.784-122.903 -50.670  0.00  0.00     0.094 A 
ATOM      5  C   UNL d   1     -43.007-122.146 -50.611  0.00  0.00     0.023 A 
ATOM      6  C   UNL d   1     -42.351-122.415 -51.034  0.00  0.00     0.026 A 
ATOM      7  N   UNL d   1     -43.757-122.100 -49.385  0.00  0.00    -0.148 N 
ATOM      8  C   UNL d   1     -42.634-123.063 -48.674  0.00  0.00     0.002 A 
ATOM      9  C   UNL d   1     -41.326-123.599 -49.517  0.00  0.00     0.002 A 
ATOM     10  C   UNL d   1     -42.077-123.548 -48.303  0.00  0.00     0.000 A 
ATOM     11  C   UNL d   1     -41.421-123.816 -48.726  0.00  0.00     0.000 A 
ENDROOT
BRANCH   4  12
ATOM     12  O   UNL d   1     -41.125-123.173 -51.094  0.00  0.00    -0.328 OA
ATOM     13  C   UNL d   1     -41.123-123.141 -51.913  0.00  0.00     0.181 C 
ENDBRANCH   4  12
TORSDOF 1
ENDMDL
