MODEL 1
REMARK VINA RESULT:      18.9      0.000      0.000
REMARK  4 active torsions:
REMARK  status: ('A' for Active; 'I' for Inactive)
REMARK    1  A    between atoms: N_2  and  C_1 
REMARK       I    between atoms: C_4  and  N_2 
REMARK    2  A    between atoms: C_11  and  C_4 
REMARK    3  A    between atoms: C_7  and  C_5 
REMARK    4  A    between atoms: C_9  and  C_7 
REMARK       I    between atoms: N_13  and  C_9 
ROOT
ATOM      1  C   UNL d   1      13.399  12.265  -3.377  0.00  0.00     0.197 A 
ATOM      2  N   UNL d   1      13.344  13.040  -3.630  0.00  0.00    -0.220 NA
ATOM      3  C   UNL d   1      12.985  13.046  -4.361  0.00  0.00     0.095 A 
ATOM      4  S   UNL d   1      13.070  11.782  -3.957  0.00  0.00    -0.046 SA
ATOM      5  C   UNL d   1      12.814  12.263  -4.568  0.00  0.00     0.058 A 
ENDROOT
BRANCH   1   6
ATOM      6  N   UNL d   1      13.724  12.007  -2.667  0.00  0.00    -0.183 NA
ATOM      7  C   UNL d   1      14.047  12.551  -2.134  0.00  0.00     0.281 C 
ATOM      8  O   UNL d   1      14.038  13.358  -2.323  0.00  0.00    -0.265 OA
BRANCH   7   9
ATOM      9  C   UNL d   1      14.371  12.294  -1.428  0.00  0.00     0.058 A 
ATOM     10  C   UNL d   1      15.191  12.255  -1.350  0.00  0.00     0.005 A 
ATOM     11  C   UNL d   1      15.516  11.997  -0.639  0.00  0.00     0.000 A 
ATOM     12  C   UNL d   1      15.032  11.781  -0.014  0.00  0.00     0.000 A 
ATOM     13  C   UNL d   1      14.207  11.820  -0.095  0.00  0.00     0.000 A 
ATOM     14  C   UNL d   1      13.880  12.080  -0.809  0.00  0.00     0.005 A 
ENDBRANCH   7   9
ENDBRANCH   1   6
BRANCH   3  15
ATOM     15  C   UNL d   1      12.820  13.713  -4.819  0.00  0.00     0.084 C 
BRANCH  15  16
ATOM     16  C   UNL d   1      13.118  14.451  -4.595  0.00  0.00     0.306 C 
ATOM     17  O   UNL d   1      12.770  14.861  -3.971  0.00  0.00    -0.263 OA
ATOM     18  N   UNL d   1      13.758  14.768  -4.996  0.00  0.00    -0.053 NA
ATOM     19  O   UNL d   1      14.062  15.506  -4.779  0.00  0.00    -0.058 OA
ENDBRANCH  15  16
ENDBRANCH   3  15
TORSDOF 4
ENDMDL
