MODEL 1
REMARK VINA RESULT:      28.9      0.000      0.000
REMARK  2 active torsions:
REMARK  status: ('A' for Active; 'I' for Inactive)
REMARK    1  A    between atoms: N_5  and  C_1 
REMARK    2  A    between atoms: C_8  and  C_4 
ROOT
ATOM      1  C   UNL d   1      46.000 -17.948  44.059  0.00  0.00     0.166 A 
ATOM      2  N   UNL d   1      45.986 -17.350  44.603  0.00  0.00    -0.225 NA
ATOM      3  N   UNL d   1      45.948 -16.954  43.039  0.00  0.00    -0.241 NA
ATOM      4  C   UNL d   1      45.981 -17.747  43.263  0.00  0.00     0.116 A 
ATOM      5  C   UNL d   1      45.954 -16.563  44.411  0.00  0.00     0.101 A 
ATOM      6  C   UNL d   1      45.935 -16.361  43.614  0.00  0.00     0.099 A 
ATOM      7  C   UNL d   1      45.940 -15.963  44.955  0.00  0.00     0.021 A 
ATOM      8  C   UNL d   1      45.902 -15.568  43.391  0.00  0.00     0.021 A 
ATOM      9  C   UNL d   1      45.890 -15.004  43.959  0.00  0.00     0.002 A 
ATOM     10  C   UNL d   1      45.909 -15.206  44.755  0.00  0.00     0.002 A 
ENDROOT
BRANCH   1  11
ATOM     11  N   UNL d   1      46.031 -18.732  44.252  0.00  0.00    -0.284 N 
ATOM     12  C   UNL d   1      45.441 -19.034  44.749  0.00  0.00     0.108 A 
ATOM     13  C   UNL d   1      45.468 -19.847  44.954  0.00  0.00     0.142 A 
ATOM     14  O   UNL d   1      46.071 -20.320  44.660  0.00  0.00    -0.300 OA
ATOM     15  C   UNL d   1      46.646 -20.006  44.171  0.00  0.00     0.142 A 
ATOM     16  C   UNL d   1      46.644 -19.208  43.954  0.00  0.00     0.108 A 
ENDBRANCH   1  11
BRANCH   4  17
ATOM     17  C   UNL d   1      45.994 -18.336  42.688  0.00  0.00     0.021 A 
ATOM     18  C   UNL d   1      45.369 -18.872  42.631  0.00  0.00     0.002 A 
ATOM     19  C   UNL d   1      45.381 -19.464  42.055  0.00  0.00     0.000 A 
ATOM     20  C   UNL d   1      46.019 -19.520  41.536  0.00  0.00     0.000 A 
ATOM     21  C   UNL d   1      46.646 -18.984  41.593  0.00  0.00     0.000 A 
ATOM     22  C   UNL d   1      46.632 -18.392  42.169  0.00  0.00     0.002 A 
ENDBRANCH   4  17
TORSDOF 2
ENDMDL
MODEL 2
REMARK VINA RESULT:      30.0      1.267      3.346
REMARK  2 active torsions:
REMARK  status: ('A' for Active; 'I' for Inactive)
REMARK    1  A    between atoms: N_5  and  C_1 
REMARK    2  A    between atoms: C_8  and  C_4 
ROOT
ATOM      1  C   UNL d   1      46.315 -18.406  42.742  0.00  0.00     0.166 A 
ATOM      2  N   UNL d   1      46.450 -18.071  42.018  0.00  0.00    -0.225 NA
ATOM      3  N   UNL d   1      46.231 -19.669  42.087  0.00  0.00    -0.241 NA
ATOM      4  C   UNL d   1      46.204 -19.220  42.777  0.00  0.00     0.116 A 
ATOM      5  C   UNL d   1      46.482 -18.489  41.324  0.00  0.00     0.101 A 
ATOM      6  C   UNL d   1      46.371 -19.303  41.359  0.00  0.00     0.099 A 
ATOM      7  C   UNL d   1      46.617 -18.155  40.599  0.00  0.00     0.021 A 
ATOM      8  C   UNL d   1      46.398 -19.753  40.668  0.00  0.00     0.021 A 
ATOM      9  C   UNL d   1      46.534 -19.385  39.970  0.00  0.00     0.002 A 
ATOM     10  C   UNL d   1      46.646 -18.571  39.935  0.00  0.00     0.002 A 
ENDROOT
BRANCH   1  11
ATOM     11  N   UNL d   1      46.284 -17.988  43.433  0.00  0.00    -0.284 N 
ATOM     12  C   UNL d   1      45.916 -17.246  43.422  0.00  0.00     0.108 A 
ATOM     13  C   UNL d   1      45.879 -16.807  44.136  0.00  0.00     0.142 A 
ATOM     14  O   UNL d   1      46.205 -17.118  44.821  0.00  0.00    -0.300 OA
ATOM     15  C   UNL d   1      46.565 -17.853  44.815  0.00  0.00     0.142 A 
ATOM     16  C   UNL d   1      46.615 -18.307  44.126  0.00  0.00     0.108 A 
ENDBRANCH   1  11
BRANCH   4  17
ATOM     17  C   UNL d   1      46.065 -19.586  43.501  0.00  0.00     0.021 A 
ATOM     18  C   UNL d   1      46.647 -19.577  44.087  0.00  0.00     0.002 A 
ATOM     19  C   UNL d   1      46.508 -19.944  44.814  0.00  0.00     0.000 A 
ATOM     20  C   UNL d   1      45.788 -20.320  44.955  0.00  0.00     0.000 A 
ATOM     21  C   UNL d   1      45.205 -20.329  44.369  0.00  0.00     0.000 A 
ATOM     22  C   UNL d   1      45.344 -19.962  43.642  0.00  0.00     0.002 A 
ENDBRANCH   4  17
TORSDOF 2
ENDMDL
