MODEL 1
REMARK VINA RESULT:      22.6      0.000      0.000
REMARK  0 active torsions:
REMARK  status: ('A' for Active; 'I' for Inactive)
ROOT
ATOM      1  C   UNL d   1      57.471  49.672  51.364  0.00  0.00     0.134 A 
ATOM      2  N   UNL d   1      58.288  49.676  51.476  0.00  0.00    -0.234 NA
ATOM      3  C   UNL d   1      57.167  49.678  50.595  0.00  0.00     0.045 A 
ATOM      4  C   UNL d   1      58.794  49.687  50.825  0.00  0.00     0.207 A 
ATOM      5  N   UNL d   1      58.492  49.693  50.051  0.00  0.00    -0.244 NA
ATOM      6  C   UNL d   1      57.676  49.689  49.940  0.00  0.00     0.081 A 
ATOM      7  S   UNL d   1      56.962  49.661  52.013  0.00  0.00    -0.058 SA
ATOM      8  C   UNL d   1      56.349  49.674  50.480  0.00  0.00     0.004 A 
ATOM      9  C   UNL d   1      59.103  49.681  51.588  0.00  0.00     0.023 A 
ATOM     10  C   UNL d   1      59.296  49.697  50.170  0.00  0.00     0.023 A 
ATOM     11  C   UNL d   1      57.364  49.695  49.174  0.00  0.00     0.019 A 
ATOM     12  C   UNL d   1      56.039  49.680  49.718  0.00  0.00     0.000 A 
ATOM     13  C   UNL d   1      60.106  49.702  50.278  0.00  0.00    -0.001 A 
ATOM     14  C   UNL d   1      59.919  49.685  51.699  0.00  0.00    -0.001 A 
ATOM     15  C   UNL d   1      56.548  49.690  49.063  0.00  0.00     0.002 A 
ATOM     16  C   UNL d   1      60.422  49.696  51.045  0.00  0.00    -0.000 A 
ENDROOT
TORSDOF 0
ENDMDL
MODEL 2
REMARK VINA RESULT:      22.9      1.101      3.237
REMARK  0 active torsions:
REMARK  status: ('A' for Active; 'I' for Inactive)
ROOT
ATOM      1  C   UNL d   1      59.243  49.708  49.761  0.00  0.00     0.134 A 
ATOM      2  N   UNL d   1      58.419  49.708  49.737  0.00  0.00    -0.234 NA
ATOM      3  C   UNL d   1      59.626  49.707  50.495  0.00  0.00     0.045 A 
ATOM      4  C   UNL d   1      57.985  49.707  50.438  0.00  0.00     0.207 A 
ATOM      5  N   UNL d   1      58.366  49.707  51.175  0.00  0.00    -0.244 NA
ATOM      6  C   UNL d   1      59.189  49.707  51.199  0.00  0.00     0.081 A 
ATOM      7  S   UNL d   1      59.681  49.708  49.063  0.00  0.00    -0.058 SA
ATOM      8  C   UNL d   1      60.453  49.707  50.522  0.00  0.00     0.004 A 
ATOM      9  C   UNL d   1      57.597  49.708  49.711  0.00  0.00     0.023 A 
ATOM     10  C   UNL d   1      57.554  49.707  51.141  0.00  0.00     0.023 A 
ATOM     11  C   UNL d   1      59.581  49.707  51.928  0.00  0.00     0.019 A 
ATOM     12  C   UNL d   1      60.840  49.707  51.248  0.00  0.00     0.000 A 
ATOM     13  C   UNL d   1      56.738  49.707  51.120  0.00  0.00    -0.001 A 
ATOM     14  C   UNL d   1      56.774  49.708  49.686  0.00  0.00    -0.001 A 
ATOM     15  C   UNL d   1      60.403  49.707  51.952  0.00  0.00     0.002 A 
ATOM     16  C   UNL d   1      56.342  49.707  50.389  0.00  0.00    -0.000 A 
ENDROOT
TORSDOF 0
ENDMDL
MODEL 3
REMARK VINA RESULT:      25.2      0.986      1.594
REMARK  0 active torsions:
REMARK  status: ('A' for Active; 'I' for Inactive)
ROOT
ATOM      1  C   UNL d   1      58.460  49.678  49.738  0.00  0.00     0.134 A 
ATOM      2  N   UNL d   1      59.135  49.685  50.210  0.00  0.00    -0.234 NA
ATOM      3  C   UNL d   1      57.715  49.676  50.097  0.00  0.00     0.045 A 
ATOM      4  C   UNL d   1      59.065  49.691  51.032  0.00  0.00     0.207 A 
ATOM      5  N   UNL d   1      58.318  49.690  51.395  0.00  0.00    -0.244 NA
ATOM      6  C   UNL d   1      57.644  49.683  50.923  0.00  0.00     0.081 A 
ATOM      7  S   UNL d   1      58.527  49.671  48.916  0.00  0.00    -0.058 SA
ATOM      8  C   UNL d   1      57.036  49.669  49.625  0.00  0.00     0.004 A 
ATOM      9  C   UNL d   1      59.810  49.692  50.682  0.00  0.00     0.023 A 
ATOM     10  C   UNL d   1      58.990  49.697  51.854  0.00  0.00     0.023 A 
ATOM     11  C   UNL d   1      56.895  49.682  51.273  0.00  0.00     0.019 A 
ATOM     12  C   UNL d   1      56.291  49.668  49.975  0.00  0.00     0.000 A 
ATOM     13  C   UNL d   1      59.657  49.704  52.325  0.00  0.00    -0.001 A 
ATOM     14  C   UNL d   1      60.485  49.699  51.154  0.00  0.00    -0.001 A 
ATOM     15  C   UNL d   1      56.220  49.674  50.801  0.00  0.00     0.002 A 
ATOM     16  C   UNL d   1      60.411  49.705  51.976  0.00  0.00    -0.000 A 
ENDROOT
TORSDOF 0
ENDMDL
