MODEL 1
REMARK VINA RESULT:      47.1      0.000      0.000
REMARK  4 active torsions:
REMARK  status: ('A' for Active; 'I' for Inactive)
REMARK    1  A    between atoms: C_2  and  C_1 
REMARK       I    between atoms: N_3  and  C_1 
REMARK       I    between atoms: N_4  and  C_2 
REMARK    2  A    between atoms: C_8  and  N_3 
REMARK    3  A    between atoms: C_9  and  N_4 
REMARK    4  A    between atoms: C_10  and  C_9 
ROOT
ATOM      1  C   UNL d   1     -50.759  26.060  33.754  0.00  0.00     0.337 C 
ATOM      2  N   UNL d   1     -50.669  25.333  33.374  0.00  0.00    -0.204 NA
ATOM      3  O   UNL d   1     -50.133  26.597  33.771  0.00  0.00    -0.260 OA
ENDROOT
BRANCH   1   4
ATOM      4  C   UNL d   1     -51.473  26.249  34.115  0.00  0.00     0.337 C 
ATOM      5  N   UNL d   1     -51.485  26.508  34.902  0.00  0.00    -0.201 NA
ATOM      6  O   UNL d   1     -52.180  26.182  33.694  0.00  0.00    -0.260 OA
BRANCH   5   7
ATOM      7  C   UNL d   1     -50.779  26.575  35.323  0.00  0.00     0.121 C 
BRANCH   7   8
ATOM      8  C   UNL d   1     -50.786  26.749  36.117  0.00  0.00     0.101 A 
ATOM      9  N   UNL d   1     -50.152  27.162  36.448  0.00  0.00    -0.242 NA
ATOM     10  C   UNL d   1     -50.153  27.343  37.254  0.00  0.00     0.099 A 
ATOM     11  C   UNL d   1     -50.784  27.112  37.725  0.00  0.00     0.021 A 
ATOM     12  C   UNL d   1     -51.417  26.699  37.394  0.00  0.00     0.003 A 
ATOM     13  C   UNL d   1     -51.416  26.519  36.588  0.00  0.00     0.021 A 
ENDBRANCH   7   8
ENDBRANCH   5   7
ENDBRANCH   1   4
BRANCH   2  14
ATOM     14  C   UNL d   1     -51.296  24.797  33.357  0.00  0.00     0.085 A 
ATOM     15  C   UNL d   1     -52.075  25.072  33.364  0.00  0.00     0.019 A 
ATOM     16  C   UNL d   1     -52.701  24.535  33.347  0.00  0.00     0.002 A 
ATOM     17  C   UNL d   1     -52.549  23.725  33.323  0.00  0.00     0.000 A 
ATOM     18  C   UNL d   1     -51.777  23.456  33.316  0.00  0.00     0.002 A 
ATOM     19  C   UNL d   1     -53.176  23.188  33.306  0.00  0.00     0.000 C 
ATOM     20  C   UNL d   1     -51.151  23.993  33.333  0.00  0.00     0.019 A 
ENDBRANCH   2  14
TORSDOF 4
ENDMDL
MODEL 2
REMARK VINA RESULT:      49.0      1.755      4.225
REMARK  4 active torsions:
REMARK  status: ('A' for Active; 'I' for Inactive)
REMARK    1  A    between atoms: C_2  and  C_1 
REMARK       I    between atoms: N_3  and  C_1 
REMARK       I    between atoms: N_4  and  C_2 
REMARK    2  A    between atoms: C_8  and  N_3 
REMARK    3  A    between atoms: C_9  and  N_4 
REMARK    4  A    between atoms: C_10  and  C_9 
ROOT
ATOM      1  C   UNL d   1     -51.510  26.978  33.701  0.00  0.00     0.337 C 
ATOM      2  N   UNL d   1     -50.997  27.588  33.487  0.00  0.00    -0.204 NA
ATOM      3  O   UNL d   1     -52.279  26.964  33.403  0.00  0.00    -0.260 OA
ENDROOT
BRANCH   1   4
ATOM      4  C   UNL d   1     -51.254  26.387  34.210  0.00  0.00     0.337 C 
ATOM      5  N   UNL d   1     -51.516  25.607  34.107  0.00  0.00    -0.201 NA
ATOM      6  O   UNL d   1     -50.735  26.567  34.826  0.00  0.00    -0.260 OA
BRANCH   5   7
ATOM      7  C   UNL d   1     -52.035  25.427  33.492  0.00  0.00     0.121 C 
BRANCH   7   8
ATOM      8  C   UNL d   1     -52.364  24.685  33.432  0.00  0.00     0.101 A 
ATOM      9  N   UNL d   1     -53.184  24.607  33.386  0.00  0.00    -0.242 NA
ATOM     10  C   UNL d   1     -53.524  23.856  33.325  0.00  0.00     0.099 A 
ATOM     11  C   UNL d   1     -53.047  23.190  33.311  0.00  0.00     0.021 A 
ATOM     12  C   UNL d   1     -52.226  23.269  33.357  0.00  0.00     0.003 A 
ATOM     13  C   UNL d   1     -51.886  24.019  33.418  0.00  0.00     0.021 A 
ENDBRANCH   7   8
ENDBRANCH   5   7
ENDBRANCH   1   4
BRANCH   2  14
ATOM     14  C   UNL d   1     -50.228  27.603  33.784  0.00  0.00     0.085 A 
ATOM     15  C   UNL d   1     -49.730  26.954  33.674  0.00  0.00     0.019 A 
ATOM     16  C   UNL d   1     -48.960  26.969  33.972  0.00  0.00     0.002 A 
ATOM     17  C   UNL d   1     -48.689  27.633  34.380  0.00  0.00     0.000 A 
ATOM     18  C   UNL d   1     -49.185  28.274  34.487  0.00  0.00     0.002 A 
ATOM     19  C   UNL d   1     -47.920  27.647  34.678  0.00  0.00     0.000 C 
ATOM     20  C   UNL d   1     -49.954  28.259  34.190  0.00  0.00     0.019 A 
ENDBRANCH   2  14
TORSDOF 4
ENDMDL
