MODEL 1
REMARK VINA RESULT:      22.9      0.000      0.000
REMARK  3 active torsions:
REMARK  status: ('A' for Active; 'I' for Inactive)
REMARK    1  A    between atoms: C_4  and  N_1 
REMARK    2  A    between atoms: C_2  and  O_5 
REMARK       I    between atoms: N_3  and  C_2 
REMARK    3  A    between atoms: O_5  and  C_10 
ROOT
ATOM      1  C   UNL d   1      61.114  49.634  51.633  0.00  0.00     0.129 A 
ATOM      2  C   UNL d   1      60.293  49.650  51.682  0.00  0.00     0.048 A 
ATOM      3  C   UNL d   1      59.847  49.685  50.994  0.00  0.00     0.106 A 
ATOM      4  C   UNL d   1      61.485  49.652  50.896  0.00  0.00     0.024 A 
ATOM      5  C   UNL d   1      61.031  49.687  50.217  0.00  0.00     0.004 A 
ATOM      6  C   UNL d   1      60.210  49.703  50.265  0.00  0.00     0.025 A 
ENDROOT
BRANCH   3   7
ATOM      7  O   UNL d   1      59.022  49.701  51.043  0.00  0.00    -0.259 OA
BRANCH   7   8
ATOM      8  C   UNL d   1      58.553  49.575  50.380  0.00  0.00     0.377 C 
ATOM      9  N   UNL d   1      57.721  49.533  50.440  0.00  0.00    -0.252 N 
ATOM     10  C   UNL d   1      57.259  49.404  49.753  0.00  0.00     0.085 A 
ATOM     11  C   UNL d   1      57.338  49.618  51.175  0.00  0.00     0.085 A 
ATOM     12  C   UNL d   1      56.423  49.362  49.813  0.00  0.00     0.019 A 
ATOM     13  C   UNL d   1      56.058  49.450  50.559  0.00  0.00     0.003 A 
ATOM     14  C   UNL d   1      56.514  49.577  51.234  0.00  0.00     0.019 A 
ATOM     15  O   UNL d   1      58.932  49.488  49.634  0.00  0.00    -0.237 OA
ENDBRANCH   7   8
ENDBRANCH   3   7
BRANCH   1  16
ATOM     16  N   UNL d   1      61.573  49.599  52.321  0.00  0.00    -0.114 N 
ATOM     17  O   UNL d   1      62.394  49.516  52.271  0.00  0.00    -0.532 OA
ATOM     18  O   UNL d   1      61.201  49.648  53.058  0.00  0.00    -0.532 OA
ENDBRANCH   1  16
TORSDOF 3
ENDMDL
MODEL 2
REMARK VINA RESULT:      24.0      1.306      1.722
REMARK  3 active torsions:
REMARK  status: ('A' for Active; 'I' for Inactive)
REMARK    1  A    between atoms: C_4  and  N_1 
REMARK    2  A    between atoms: C_2  and  O_5 
REMARK       I    between atoms: N_3  and  C_2 
REMARK    3  A    between atoms: O_5  and  C_10 
ROOT
ATOM      1  C   UNL d   1      60.901  48.700  50.702  0.00  0.00     0.129 A 
ATOM      2  C   UNL d   1      60.221  48.965  50.322  0.00  0.00     0.048 A 
ATOM      3  C   UNL d   1      59.689  49.440  50.727  0.00  0.00     0.106 A 
ATOM      4  C   UNL d   1      61.045  48.913  51.486  0.00  0.00     0.024 A 
ATOM      5  C   UNL d   1      60.508  49.388  51.881  0.00  0.00     0.004 A 
ATOM      6  C   UNL d   1      59.829  49.652  51.501  0.00  0.00     0.025 A 
ENDROOT
BRANCH   3   7
ATOM      7  O   UNL d   1      59.006  49.706  50.345  0.00  0.00    -0.259 OA
BRANCH   7   8
ATOM      8  C   UNL d   1      58.278  49.707  50.725  0.00  0.00     0.377 C 
ATOM      9  N   UNL d   1      57.564  49.707  50.292  0.00  0.00    -0.252 N 
ATOM     10  C   UNL d   1      56.830  49.707  50.697  0.00  0.00     0.085 A 
ATOM     11  C   UNL d   1      57.565  49.706  49.459  0.00  0.00     0.085 A 
ATOM     12  C   UNL d   1      56.112  49.707  50.263  0.00  0.00     0.019 A 
ATOM     13  C   UNL d   1      56.135  49.706  49.428  0.00  0.00     0.003 A 
ATOM     14  C   UNL d   1      56.858  49.705  49.031  0.00  0.00     0.019 A 
ATOM     15  O   UNL d   1      58.266  49.708  51.566  0.00  0.00    -0.237 OA
ENDBRANCH   7   8
ENDBRANCH   3   7
BRANCH   1  16
ATOM     16  N   UNL d   1      61.443  48.221  50.302  0.00  0.00    -0.114 N 
ATOM     17  O   UNL d   1      61.439  47.401  50.415  0.00  0.00    -0.532 OA
ATOM     18  O   UNL d   1      61.991  48.569  49.789  0.00  0.00    -0.532 OA
ENDBRANCH   1  16
TORSDOF 3
ENDMDL
