MODEL 1
REMARK VINA RESULT:      -6.9      0.000      0.000
REMARK  5 active torsions:
REMARK  status: ('A' for Active; 'I' for Inactive)
REMARK    1  A    between atoms: N_3  and  C_1 
REMARK    2  A    between atoms: C_12  and  N_2 
REMARK       I    between atoms: C_5  and  N_3 
REMARK    3  A    between atoms: C_8  and  C_5 
REMARK    4  A    between atoms: C_15  and  C_12 
REMARK    5  A    between atoms: O_22  and  C_15 
ROOT
ATOM      1  C   UNL d   1     -48.330  13.632  22.845  0.00  0.00     0.183 A 
ATOM      2  N   UNL d   1     -49.057  13.264  22.960  0.00  0.00    -0.280 N 
ATOM      3  S   UNL d   1     -48.437  14.445  22.944  0.00  0.00    -0.048 SA
ATOM      4  C   UNL d   1     -49.622  13.846  23.132  0.00  0.00     0.072 A 
ATOM      5  C   UNL d   1     -49.237  14.579  23.122  0.00  0.00     0.048 A 
ATOM      6  C   UNL d   1     -50.431  13.805  23.295  0.00  0.00     0.018 A 
ATOM      7  C   UNL d   1     -49.661  15.271  23.275  0.00  0.00     0.008 A 
ATOM      8  C   UNL d   1     -50.855  14.497  23.448  0.00  0.00     0.002 A 
ATOM      9  C   UNL d   1     -50.470  15.231  23.438  0.00  0.00     0.001 A 
ATOM     10  C   UNL d   1     -50.887  15.919  23.590  0.00  0.00     0.000 C 
ENDROOT
BRANCH   1  11
ATOM     11  N   UNL d   1     -47.620  13.247  22.662  0.00  0.00    -0.183 NA
ATOM     12  C   UNL d   1     -46.901  13.616  22.834  0.00  0.00     0.287 C 
ATOM     13  O   UNL d   1     -46.897  14.364  23.187  0.00  0.00    -0.265 OA
BRANCH  12  14
ATOM     14  C   UNL d   1     -46.197  13.244  22.657  0.00  0.00     0.088 A 
ATOM     15  S   UNL d   1     -45.659  13.464  22.061  0.00  0.00    -0.071 SA
ATOM     16  C   UNL d   1     -45.035  12.941  22.079  0.00  0.00     0.087 A 
ATOM     17 CL   UNL d   1     -44.373  12.940  21.593  0.00  0.00    -0.075 Cl
ATOM     18  C   UNL d   1     -45.179  12.403  22.675  0.00  0.00     0.019 A 
ATOM     19  C   UNL d   1     -45.892  12.591  23.027  0.00  0.00     0.013 A 
ENDBRANCH  12  14
ENDBRANCH   1  11
BRANCH   2  20
ATOM     20  C   UNL d   1     -49.537  12.595  22.996  0.00  0.00     0.151 C 
BRANCH  20  21
ATOM     21  C   UNL d   1     -49.196  11.851  22.997  0.00  0.00     0.314 C 
ATOM     22  O   UNL d   1     -49.001  11.497  22.284  0.00  0.00    -0.257 OA
BRANCH  21  23
ATOM     23  O   UNL d   1     -49.051  11.466  23.698  0.00  0.00    -0.295 OA
ATOM     24  C   UNL d   1     -48.821  10.685  23.696  0.00  0.00     0.185 C 
ENDBRANCH  21  23
ENDBRANCH  20  21
ENDBRANCH   2  20
TORSDOF 5
ENDMDL
MODEL 2
REMARK VINA RESULT:      -6.0      1.847      2.839
REMARK  5 active torsions:
REMARK  status: ('A' for Active; 'I' for Inactive)
REMARK    1  A    between atoms: N_3  and  C_1 
REMARK    2  A    between atoms: C_12  and  N_2 
REMARK       I    between atoms: C_5  and  N_3 
REMARK    3  A    between atoms: C_8  and  C_5 
REMARK    4  A    between atoms: C_15  and  C_12 
REMARK    5  A    between atoms: O_22  and  C_15 
ROOT
ATOM      1  C   UNL d   1     -47.573  12.123  23.322  0.00  0.00     0.183 A 
ATOM      2  N   UNL d   1     -47.916  12.838  23.101  0.00  0.00    -0.280 N 
ATOM      3  S   UNL d   1     -48.178  11.617  23.568  0.00  0.00    -0.048 SA
ATOM      4  C   UNL d   1     -48.736  12.781  23.209  0.00  0.00     0.072 A 
ATOM      5  C   UNL d   1     -48.898  12.023  23.498  0.00  0.00     0.048 A 
ATOM      6  C   UNL d   1     -49.352  13.317  23.081  0.00  0.00     0.018 A 
ATOM      7  C   UNL d   1     -49.677  11.800  23.661  0.00  0.00     0.008 A 
ATOM      8  C   UNL d   1     -50.130  13.094  23.243  0.00  0.00     0.002 A 
ATOM      9  C   UNL d   1     -50.293  12.336  23.533  0.00  0.00     0.001 A 
ATOM     10  C   UNL d   1     -51.064  12.111  23.695  0.00  0.00     0.000 C 
ENDROOT
BRANCH   1  11
ATOM     11  N   UNL d   1     -46.764  11.949  23.299  0.00  0.00    -0.183 NA
ATOM     12  C   UNL d   1     -46.506  11.187  23.485  0.00  0.00     0.287 C 
ATOM     13  O   UNL d   1     -47.056  10.606  23.692  0.00  0.00    -0.265 OA
BRANCH  12  14
ATOM     14  C   UNL d   1     -45.710  11.008  23.465  0.00  0.00     0.088 A 
ATOM     15  S   UNL d   1     -45.364  10.276  23.656  0.00  0.00    -0.071 SA
ATOM     16  C   UNL d   1     -44.558  10.344  23.559  0.00  0.00     0.087 A 
ATOM     17 CL   UNL d   1     -43.991   9.764  23.683  0.00  0.00    -0.075 Cl
ATOM     18  C   UNL d   1     -44.402  11.106  23.311  0.00  0.00     0.019 A 
ATOM     19  C   UNL d   1     -45.110  11.510  23.254  0.00  0.00     0.013 A 
ENDBRANCH  12  14
ENDBRANCH   1  11
BRANCH   2  20
ATOM     20  C   UNL d   1     -47.869  13.611  22.819  0.00  0.00     0.151 C 
BRANCH  20  21
ATOM     21  C   UNL d   1     -47.163  13.889  22.513  0.00  0.00     0.314 C 
ATOM     22  O   UNL d   1     -46.982  13.747  21.726  0.00  0.00    -0.257 OA
BRANCH  21  23
ATOM     23  O   UNL d   1     -46.645  14.302  22.983  0.00  0.00    -0.295 OA
ATOM     24  C   UNL d   1     -46.166  14.875  22.660  0.00  0.00     0.185 C 
ENDBRANCH  21  23
ENDBRANCH  20  21
ENDBRANCH   2  20
TORSDOF 5
ENDMDL
MODEL 3
REMARK VINA RESULT:      -5.9      8.884      9.744
REMARK  5 active torsions:
REMARK  status: ('A' for Active; 'I' for Inactive)
REMARK    1  A    between atoms: N_3  and  C_1 
REMARK    2  A    between atoms: C_12  and  N_2 
REMARK       I    between atoms: C_5  and  N_3 
REMARK    3  A    between atoms: C_8  and  C_5 
REMARK    4  A    between atoms: C_15  and  C_12 
REMARK    5  A    between atoms: O_22  and  C_15 
ROOT
ATOM      1  C   UNL d   1     -39.916  14.740  19.049  0.00  0.00     0.183 A 
ATOM      2  N   UNL d   1     -39.635  14.498  18.315  0.00  0.00    -0.280 N 
ATOM      3  S   UNL d   1     -40.593  15.197  18.924  0.00  0.00    -0.048 SA
ATOM      4  C   UNL d   1     -40.135  14.803  17.728  0.00  0.00     0.072 A 
ATOM      5  C   UNL d   1     -40.730  15.237  18.107  0.00  0.00     0.048 A 
ATOM      6  C   UNL d   1     -40.127  14.742  16.904  0.00  0.00     0.018 A 
ATOM      7  C   UNL d   1     -41.317  15.610  17.661  0.00  0.00     0.008 A 
ATOM      8  C   UNL d   1     -40.714  15.116  16.459  0.00  0.00     0.002 A 
ATOM      9  C   UNL d   1     -41.309  15.550  16.837  0.00  0.00     0.001 A 
ATOM     10  C   UNL d   1     -41.893  15.922  16.399  0.00  0.00     0.000 C 
ENDROOT
BRANCH   1  11
ATOM     11  N   UNL d   1     -39.575  14.554  19.781  0.00  0.00    -0.183 NA
ATOM     12  C   UNL d   1     -40.007  14.678  20.474  0.00  0.00     0.287 C 
ATOM     13  O   UNL d   1     -40.773  14.985  20.433  0.00  0.00    -0.265 OA
BRANCH  12  14
ATOM     14  C   UNL d   1     -39.678  14.497  21.198  0.00  0.00     0.088 A 
ATOM     15  S   UNL d   1     -39.187  14.991  21.654  0.00  0.00    -0.071 SA
ATOM     16  C   UNL d   1     -38.985  14.590  22.334  0.00  0.00     0.087 A 
ATOM     17 CL   UNL d   1     -38.510  14.858  22.947  0.00  0.00    -0.075 Cl
ATOM     18  C   UNL d   1     -39.344  13.858  22.305  0.00  0.00     0.019 A 
ATOM     19  C   UNL d   1     -39.767  13.804  21.608  0.00  0.00     0.013 A 
ENDBRANCH  12  14
ENDBRANCH   1  11
BRANCH   2  20
ATOM     20  C   UNL d   1     -39.096  14.096  17.838  0.00  0.00     0.151 C 
BRANCH  20  21
ATOM     21  C   UNL d   1     -38.622  13.514  18.164  0.00  0.00     0.314 C 
ATOM     22  O   UNL d   1     -37.940  13.728  18.564  0.00  0.00    -0.257 OA
BRANCH  21  23
ATOM     23  O   UNL d   1     -38.824  12.730  18.092  0.00  0.00    -0.295 OA
ATOM     24  C   UNL d   1     -38.246  12.163  18.011  0.00  0.00     0.185 C 
ENDBRANCH  21  23
ENDBRANCH  20  21
ENDBRANCH   2  20
TORSDOF 5
ENDMDL
MODEL 4
REMARK VINA RESULT:      -5.1      9.150     10.405
REMARK  5 active torsions:
REMARK  status: ('A' for Active; 'I' for Inactive)
REMARK    1  A    between atoms: N_3  and  C_1 
REMARK    2  A    between atoms: C_12  and  N_2 
REMARK       I    between atoms: C_5  and  N_3 
REMARK    3  A    between atoms: C_8  and  C_5 
REMARK    4  A    between atoms: C_15  and  C_12 
REMARK    5  A    between atoms: O_22  and  C_15 
ROOT
ATOM      1  C   UNL d   1     -38.889  14.349  19.095  0.00  0.00     0.183 A 
ATOM      2  N   UNL d   1     -39.582  14.540  19.496  0.00  0.00    -0.280 N 
ATOM      3  S   UNL d   1     -38.353  14.042  19.644  0.00  0.00    -0.048 SA
ATOM      4  C   UNL d   1     -39.481  14.353  20.298  0.00  0.00     0.072 A 
ATOM      5  C   UNL d   1     -38.718  14.045  20.389  0.00  0.00     0.048 A 
ATOM      6  C   UNL d   1     -39.980  14.424  20.952  0.00  0.00     0.018 A 
ATOM      7  C   UNL d   1     -38.455  13.806  21.135  0.00  0.00     0.008 A 
ATOM      8  C   UNL d   1     -39.717  14.185  21.698  0.00  0.00     0.002 A 
ATOM      9  C   UNL d   1     -38.954  13.877  21.790  0.00  0.00     0.001 A 
ATOM     10  C   UNL d   1     -38.690  13.639  22.528  0.00  0.00     0.000 C 
ENDROOT
BRANCH   1  11
ATOM     11  N   UNL d   1     -38.760  14.449  18.283  0.00  0.00    -0.183 NA
ATOM     12  C   UNL d   1     -38.329  13.880  17.866  0.00  0.00     0.287 C 
ATOM     13  O   UNL d   1     -38.033  13.218  18.261  0.00  0.00    -0.265 OA
BRANCH  12  14
ATOM     14  C   UNL d   1     -38.198  13.972  17.066  0.00  0.00     0.088 A 
ATOM     15  S   UNL d   1     -38.160  13.364  16.500  0.00  0.00    -0.071 SA
ATOM     16  C   UNL d   1     -38.020  13.704  15.772  0.00  0.00     0.087 A 
ATOM     17 CL   UNL d   1     -37.940  13.320  15.051  0.00  0.00    -0.075 Cl
ATOM     18  C   UNL d   1     -37.970  14.511  15.882  0.00  0.00     0.019 A 
ATOM     19  C   UNL d   1     -38.080  14.672  16.675  0.00  0.00     0.013 A 
ENDBRANCH  12  14
ENDBRANCH   1  11
BRANCH   2  20
ATOM     20  C   UNL d   1     -40.353  14.830  19.521  0.00  0.00     0.151 C 
BRANCH  20  21
ATOM     21  C   UNL d   1     -40.750  14.984  18.822  0.00  0.00     0.314 C 
ATOM     22  O   UNL d   1     -41.084  14.364  18.404  0.00  0.00    -0.257 OA
BRANCH  21  23
ATOM     23  O   UNL d   1     -40.813  15.745  18.544  0.00  0.00    -0.295 OA
ATOM     24  C   UNL d   1     -41.330  15.919  17.940  0.00  0.00     0.185 C 
ENDBRANCH  21  23
ENDBRANCH  20  21
ENDBRANCH   2  20
TORSDOF 5
ENDMDL
MODEL 5
REMARK VINA RESULT:      -5.0      1.330      2.483
REMARK  5 active torsions:
REMARK  status: ('A' for Active; 'I' for Inactive)
REMARK    1  A    between atoms: N_3  and  C_1 
REMARK    2  A    between atoms: C_12  and  N_2 
REMARK       I    between atoms: C_5  and  N_3 
REMARK    3  A    between atoms: C_8  and  C_5 
REMARK    4  A    between atoms: C_15  and  C_12 
REMARK    5  A    between atoms: O_22  and  C_15 
ROOT
ATOM      1  C   UNL d   1     -48.206  12.868  22.705  0.00  0.00     0.183 A 
ATOM      2  N   UNL d   1     -48.876  13.341  22.776  0.00  0.00    -0.280 N 
ATOM      3  S   UNL d   1     -48.421  12.092  22.891  0.00  0.00    -0.048 SA
ATOM      4  C   UNL d   1     -49.513  12.862  23.005  0.00  0.00     0.072 A 
ATOM      5  C   UNL d   1     -49.230  12.087  23.076  0.00  0.00     0.048 A 
ATOM      6  C   UNL d   1     -50.308  13.028  23.157  0.00  0.00     0.018 A 
ATOM      7  C   UNL d   1     -49.742  11.478  23.300  0.00  0.00     0.008 A 
ATOM      8  C   UNL d   1     -50.820  12.420  23.381  0.00  0.00     0.002 A 
ATOM      9  C   UNL d   1     -50.537  11.645  23.453  0.00  0.00     0.001 A 
ATOM     10  C   UNL d   1     -51.042  11.039  23.674  0.00  0.00     0.000 C 
ENDROOT
BRANCH   1  11
ATOM     11  N   UNL d   1     -47.452  13.132  22.487  0.00  0.00    -0.183 NA
ATOM     12  C   UNL d   1     -46.787  12.698  22.715  0.00  0.00     0.287 C 
ATOM     13  O   UNL d   1     -46.880  12.006  23.158  0.00  0.00    -0.265 OA
BRANCH  12  14
ATOM     14  C   UNL d   1     -46.041  12.951  22.503  0.00  0.00     0.088 A 
ATOM     15  S   UNL d   1     -45.472  12.513  22.083  0.00  0.00    -0.071 SA
ATOM     16  C   UNL d   1     -44.809  12.978  21.994  0.00  0.00     0.087 A 
ATOM     17 CL   UNL d   1     -44.109  12.779  21.616  0.00  0.00    -0.075 Cl
ATOM     18  C   UNL d   1     -44.961  13.696  22.352  0.00  0.00     0.019 A 
ATOM     19  C   UNL d   1     -45.716  13.676  22.663  0.00  0.00     0.013 A 
ENDBRANCH  12  14
ENDBRANCH   1  11
BRANCH   2  20
ATOM     20  C   UNL d   1     -49.262  14.069  22.736  0.00  0.00     0.151 C 
BRANCH  20  21
ATOM     21  C   UNL d   1     -48.973  14.654  22.242  0.00  0.00     0.314 C 
ATOM     22  O   UNL d   1     -49.062  14.576  21.431  0.00  0.00    -0.257 OA
BRANCH  21  23
ATOM     23  O   UNL d   1     -48.601  15.307  22.552  0.00  0.00    -0.295 OA
ATOM     24  C   UNL d   1     -48.382  15.922  22.067  0.00  0.00     0.185 C 
ENDBRANCH  21  23
ENDBRANCH  20  21
ENDBRANCH   2  20
TORSDOF 5
ENDMDL
MODEL 6
REMARK VINA RESULT:      -5.0      8.171     10.085
REMARK  5 active torsions:
REMARK  status: ('A' for Active; 'I' for Inactive)
REMARK    1  A    between atoms: N_3  and  C_1 
REMARK    2  A    between atoms: C_12  and  N_2 
REMARK       I    between atoms: C_5  and  N_3 
REMARK    3  A    between atoms: C_8  and  C_5 
REMARK    4  A    between atoms: C_15  and  C_12 
REMARK    5  A    between atoms: O_22  and  C_15 
ROOT
ATOM      1  C   UNL d   1     -39.044  14.618  19.626  0.00  0.00     0.183 A 
ATOM      2  N   UNL d   1     -39.717  14.821  19.199  0.00  0.00    -0.280 N 
ATOM      3  S   UNL d   1     -38.445  14.438  19.086  0.00  0.00    -0.048 SA
ATOM      4  C   UNL d   1     -39.542  14.769  18.390  0.00  0.00     0.072 A 
ATOM      5  C   UNL d   1     -38.752  14.531  18.320  0.00  0.00     0.048 A 
ATOM      6  C   UNL d   1     -39.995  14.906  17.713  0.00  0.00     0.018 A 
ATOM      7  C   UNL d   1     -38.415  14.429  17.573  0.00  0.00     0.008 A 
ATOM      8  C   UNL d   1     -39.658  14.804  16.966  0.00  0.00     0.002 A 
ATOM      9  C   UNL d   1     -38.868  14.566  16.895  0.00  0.00     0.001 A 
ATOM     10  C   UNL d   1     -38.530  14.465  16.156  0.00  0.00     0.000 C 
ENDROOT
BRANCH   1  11
ATOM     11  N   UNL d   1     -38.984  14.600  20.451  0.00  0.00    -0.183 NA
ATOM     12  C   UNL d   1     -38.440  14.091  20.809  0.00  0.00     0.287 C 
ATOM     13  O   UNL d   1     -37.961  13.607  20.342  0.00  0.00    -0.265 OA
BRANCH  12  14
ATOM     14  C   UNL d   1     -38.376  14.068  21.622  0.00  0.00     0.088 A 
ATOM     15  S   UNL d   1     -38.428  13.390  22.102  0.00  0.00    -0.071 SA
ATOM     16  C   UNL d   1     -38.332  13.620  22.877  0.00  0.00     0.087 A 
ATOM     17 CL   UNL d   1     -38.342  13.141  23.544  0.00  0.00    -0.075 Cl
ATOM     18  C   UNL d   1     -38.222  14.428  22.883  0.00  0.00     0.019 A 
ATOM     19  C   UNL d   1     -38.249  14.700  22.113  0.00  0.00     0.013 A 
ENDBRANCH  12  14
ENDBRANCH   1  11
BRANCH   2  20
ATOM     20  C   UNL d   1     -40.505  15.059  19.152  0.00  0.00     0.151 C 
BRANCH  20  21
ATOM     21  C   UNL d   1     -40.951  15.121  19.835  0.00  0.00     0.314 C 
ATOM     22  O   UNL d   1     -41.247  14.442  20.186  0.00  0.00    -0.257 OA
BRANCH  21  23
ATOM     23  O   UNL d   1     -41.101  15.849  20.163  0.00  0.00    -0.295 OA
ATOM     24  C   UNL d   1     -41.590  15.914  20.811  0.00  0.00     0.185 C 
ENDBRANCH  21  23
ENDBRANCH  20  21
ENDBRANCH   2  20
TORSDOF 5
ENDMDL
MODEL 7
REMARK VINA RESULT:      -4.5      9.455     10.254
REMARK  5 active torsions:
REMARK  status: ('A' for Active; 'I' for Inactive)
REMARK    1  A    between atoms: N_3  and  C_1 
REMARK    2  A    between atoms: C_12  and  N_2 
REMARK       I    between atoms: C_5  and  N_3 
REMARK    3  A    between atoms: C_8  and  C_5 
REMARK    4  A    between atoms: C_15  and  C_12 
REMARK    5  A    between atoms: O_22  and  C_15 
ROOT
ATOM      1  C   UNL d   1     -39.315  14.672  19.470  0.00  0.00     0.183 A 
ATOM      2  N   UNL d   1     -38.838  14.030  19.665  0.00  0.00    -0.280 N 
ATOM      3  S   UNL d   1     -39.513  15.064  20.170  0.00  0.00    -0.048 SA
ATOM      4  C   UNL d   1     -38.736  14.018  20.487  0.00  0.00     0.072 A 
ATOM      5  C   UNL d   1     -39.155  14.660  20.801  0.00  0.00     0.048 A 
ATOM      6  C   UNL d   1     -38.319  13.510  20.989  0.00  0.00     0.018 A 
ATOM      7  C   UNL d   1     -39.157  14.794  21.616  0.00  0.00     0.008 A 
ATOM      8  C   UNL d   1     -38.321  13.645  21.804  0.00  0.00     0.002 A 
ATOM      9  C   UNL d   1     -38.740  14.286  22.118  0.00  0.00     0.001 A 
ATOM     10  C   UNL d   1     -38.744  14.423  22.926  0.00  0.00     0.000 C 
ENDROOT
BRANCH   1  11
ATOM     11  N   UNL d   1     -39.551  14.882  18.705  0.00  0.00    -0.183 NA
ATOM     12  C   UNL d   1     -40.251  15.307  18.597  0.00  0.00     0.287 C 
ATOM     13  O   UNL d   1     -40.709  15.519  19.252  0.00  0.00    -0.265 OA
BRANCH  12  14
ATOM     14  C   UNL d   1     -40.490  15.518  17.846  0.00  0.00     0.088 A 
ATOM     15  S   UNL d   1     -41.275  15.571  17.575  0.00  0.00    -0.071 SA
ATOM     16  C   UNL d   1     -41.258  15.799  16.793  0.00  0.00     0.087 A 
ATOM     17 CL   UNL d   1     -41.900  15.922  16.296  0.00  0.00    -0.075 Cl
ATOM     18  C   UNL d   1     -40.476  15.886  16.578  0.00  0.00     0.019 A 
ATOM     19  C   UNL d   1     -40.008  15.714  17.225  0.00  0.00     0.013 A 
ENDBRANCH  12  14
ENDBRANCH   1  11
BRANCH   2  20
ATOM     20  C   UNL d   1     -38.392  13.367  19.463  0.00  0.00     0.151 C 
BRANCH  20  21
ATOM     21  C   UNL d   1     -38.187  13.238  18.682  0.00  0.00     0.314 C 
ATOM     22  O   UNL d   1     -37.939  13.870  18.221  0.00  0.00    -0.257 OA
BRANCH  21  23
ATOM     23  O   UNL d   1     -38.229  12.492  18.362  0.00  0.00    -0.295 OA
ATOM     24  C   UNL d   1     -38.069  12.375  17.573  0.00  0.00     0.185 C 
ENDBRANCH  21  23
ENDBRANCH  20  21
ENDBRANCH   2  20
TORSDOF 5
ENDMDL
MODEL 8
REMARK VINA RESULT:      -4.1      1.303      1.645
REMARK  5 active torsions:
REMARK  status: ('A' for Active; 'I' for Inactive)
REMARK    1  A    between atoms: N_3  and  C_1 
REMARK    2  A    between atoms: C_12  and  N_2 
REMARK       I    between atoms: C_5  and  N_3 
REMARK    3  A    between atoms: C_8  and  C_5 
REMARK    4  A    between atoms: C_15  and  C_12 
REMARK    5  A    between atoms: O_22  and  C_15 
ROOT
ATOM      1  C   UNL d   1     -47.281  13.002  23.029  0.00  0.00     0.183 A 
ATOM      2  N   UNL d   1     -48.095  12.885  23.076  0.00  0.00    -0.280 N 
ATOM      3  S   UNL d   1     -47.149  13.792  22.825  0.00  0.00    -0.048 SA
ATOM      4  C   UNL d   1     -48.473  13.602  22.901  0.00  0.00     0.072 A 
ATOM      5  C   UNL d   1     -47.886  14.164  22.746  0.00  0.00     0.048 A 
ATOM      6  C   UNL d   1     -49.271  13.814  22.864  0.00  0.00     0.018 A 
ATOM      7  C   UNL d   1     -48.097  14.940  22.553  0.00  0.00     0.008 A 
ATOM      8  C   UNL d   1     -49.482  14.589  22.671  0.00  0.00     0.002 A 
ATOM      9  C   UNL d   1     -48.894  15.152  22.515  0.00  0.00     0.001 A 
ATOM     10  C   UNL d   1     -49.099  15.922  22.324  0.00  0.00     0.000 C 
ENDROOT
BRANCH   1  11
ATOM     11  N   UNL d   1     -46.703  12.425  23.164  0.00  0.00    -0.183 NA
ATOM     12  C   UNL d   1     -45.962  12.499  22.806  0.00  0.00     0.287 C 
ATOM     13  O   UNL d   1     -45.804  13.147  22.318  0.00  0.00    -0.265 OA
BRANCH  12  14
ATOM     14  C   UNL d   1     -45.388  11.934  22.934  0.00  0.00     0.088 A 
ATOM     15  S   UNL d   1     -45.482  11.222  23.353  0.00  0.00    -0.071 SA
ATOM     16  C   UNL d   1     -44.769  10.827  23.345  0.00  0.00     0.087 A 
ATOM     17 CL   UNL d   1     -44.597  10.102  23.688  0.00  0.00    -0.075 Cl
ATOM     18  C   UNL d   1     -44.238  11.285  22.927  0.00  0.00     0.019 A 
ATOM     19  C   UNL d   1     -44.620  11.962  22.677  0.00  0.00     0.013 A 
ENDBRANCH  12  14
ENDBRANCH   1  11
BRANCH   2  20
ATOM     20  C   UNL d   1     -48.756  12.412  23.210  0.00  0.00     0.151 C 
BRANCH  20  21
ATOM     21  C   UNL d   1     -48.764  11.641  22.937  0.00  0.00     0.314 C 
ATOM     22  O   UNL d   1     -48.705  11.498  22.131  0.00  0.00    -0.257 OA
BRANCH  21  23
ATOM     23  O   UNL d   1     -48.829  11.020  23.457  0.00  0.00    -0.295 OA
ATOM     24  C   UNL d   1     -49.563  10.763  23.698  0.00  0.00     0.185 C 
ENDBRANCH  21  23
ENDBRANCH  20  21
ENDBRANCH   2  20
TORSDOF 5
ENDMDL
MODEL 9
REMARK VINA RESULT:      -4.1      8.327     10.873
REMARK  5 active torsions:
REMARK  status: ('A' for Active; 'I' for Inactive)
REMARK    1  A    between atoms: N_3  and  C_1 
REMARK    2  A    between atoms: C_12  and  N_2 
REMARK       I    between atoms: C_5  and  N_3 
REMARK    3  A    between atoms: C_8  and  C_5 
REMARK    4  A    between atoms: C_15  and  C_12 
REMARK    5  A    between atoms: O_22  and  C_15 
ROOT
ATOM      1  C   UNL d   1     -39.126  14.636  18.034  0.00  0.00     0.183 A 
ATOM      2  N   UNL d   1     -38.653  14.116  17.606  0.00  0.00    -0.280 N 
ATOM      3  S   UNL d   1     -39.241  15.314  17.575  0.00  0.00    -0.048 SA
ATOM      4  C   UNL d   1     -38.471  14.467  16.877  0.00  0.00     0.072 A 
ATOM      5  C   UNL d   1     -38.835  15.210  16.859  0.00  0.00     0.048 A 
ATOM      6  C   UNL d   1     -38.023  14.209  16.233  0.00  0.00     0.018 A 
ATOM      7  C   UNL d   1     -38.752  15.696  16.195  0.00  0.00     0.008 A 
ATOM      8  C   UNL d   1     -37.940  14.695  15.569  0.00  0.00     0.002 A 
ATOM      9  C   UNL d   1     -38.304  15.438  15.550  0.00  0.00     0.001 A 
ATOM     10  C   UNL d   1     -38.224  15.922  14.894  0.00  0.00     0.000 C 
ENDROOT
BRANCH   1  11
ATOM     11  N   UNL d   1     -39.430  14.497  18.792  0.00  0.00    -0.183 NA
ATOM     12  C   UNL d   1     -40.017  14.995  19.093  0.00  0.00     0.287 C 
ATOM     13  O   UNL d   1     -40.294  15.626  18.637  0.00  0.00    -0.265 OA
BRANCH  12  14
ATOM     14  C   UNL d   1     -40.321  14.865  19.839  0.00  0.00     0.088 A 
ATOM     15  S   UNL d   1     -40.906  14.309  20.042  0.00  0.00    -0.071 SA
ATOM     16  C   UNL d   1     -41.042  14.367  20.844  0.00  0.00     0.087 A 
ATOM     17 CL   UNL d   1     -41.572  13.929  21.291  0.00  0.00    -0.075 Cl
ATOM     18  C   UNL d   1     -40.550  14.948  21.136  0.00  0.00     0.019 A 
ATOM     19  C   UNL d   1     -40.110  15.251  20.519  0.00  0.00     0.013 A 
ENDBRANCH  12  14
ENDBRANCH   1  11
BRANCH   2  20
ATOM     20  C   UNL d   1     -38.251  13.402  17.517  0.00  0.00     0.151 C 
BRANCH  20  21
ATOM     21  C   UNL d   1     -38.346  12.812  18.075  0.00  0.00     0.314 C 
ATOM     22  O   UNL d   1     -38.202  12.976  18.865  0.00  0.00    -0.257 OA
BRANCH  21  23
ATOM     23  O   UNL d   1     -38.582  12.067  17.849  0.00  0.00    -0.295 OA
ATOM     24  C   UNL d   1     -38.059  11.444  17.884  0.00  0.00     0.185 C 
ENDBRANCH  21  23
ENDBRANCH  20  21
ENDBRANCH   2  20
TORSDOF 5
ENDMDL
