MODEL 1
REMARK VINA RESULT:      -3.5      0.000      0.000
REMARK  3 active torsions:
REMARK  status: ('A' for Active; 'I' for Inactive)
REMARK    1  A    between atoms: N_2  and  S_1 
REMARK    2  A    between atoms: C_3  and  S_1 
REMARK    3  A    between atoms: C_4  and  N_2 
ROOT
ATOM      1  S   UNL d   1      31.689  16.709 -24.392  0.00  0.00     0.287 S 
ATOM      2  O   UNL d   1      32.490  16.921 -24.427  0.00  0.00    -0.198 OA
ATOM      3  O   UNL d   1      31.873  15.970 -24.710  0.00  0.00    -0.198 OA
ENDROOT
BRANCH   1   4
ATOM      4  N   UNL d   1      31.512  17.449 -24.074  0.00  0.00    -0.139 NA
BRANCH   4   5
ATOM      5  C   UNL d   1      32.097  18.020 -23.985  0.00  0.00     0.175 A 
ATOM      6  N   UNL d   1      32.341  18.256 -23.236  0.00  0.00    -0.226 NA
ATOM      7  C   UNL d   1      32.896  18.796 -23.178  0.00  0.00     0.083 A 
ATOM      8  C   UNL d   1      33.164  19.056 -22.435  0.00  0.00     0.021 C 
ATOM      9  C   UNL d   1      33.241  19.135 -23.847  0.00  0.00     0.019 A 
ATOM     10  C   UNL d   1      33.008  18.910 -24.527  0.00  0.00     0.005 A 
ATOM     11  C   UNL d   1      32.443  18.358 -24.653  0.00  0.00     0.040 A 
ENDBRANCH   4   5
ENDBRANCH   1   4
BRANCH   1  12
ATOM     12  C   UNL d   1      30.902  16.496 -24.359  0.00  0.00     0.105 A 
ATOM     13  C   UNL d   1      30.585  16.189 -23.663  0.00  0.00     0.013 A 
ATOM     14  C   UNL d   1      29.789  15.975 -23.633  0.00  0.00     0.001 A 
ATOM     15  C   UNL d   1      29.473  15.669 -22.941  0.00  0.00     0.000 A 
ATOM     16  C   UNL d   1      29.310  16.068 -24.298  0.00  0.00     0.000 A 
ATOM     17  C   UNL d   1      28.674  15.453 -22.906  0.00  0.00     0.000 A 
ATOM     18  C   UNL d   1      28.194  15.548 -23.578  0.00  0.00     0.000 A 
ATOM     19  C   UNL d   1      28.510  15.854 -24.270  0.00  0.00     0.000 A 
ATOM     20  C   UNL d   1      29.628  16.376 -24.994  0.00  0.00     0.001 A 
ATOM     21  C   UNL d   1      30.424  16.590 -25.022  0.00  0.00     0.013 A 
ENDBRANCH   1  12
TORSDOF 3
ENDMDL
MODEL 2
REMARK VINA RESULT:      -2.6      0.895      3.972
REMARK  3 active torsions:
REMARK  status: ('A' for Active; 'I' for Inactive)
REMARK    1  A    between atoms: N_2  and  S_1 
REMARK    2  A    between atoms: C_3  and  S_1 
REMARK    3  A    between atoms: C_4  and  N_2 
ROOT
ATOM      1  S   UNL d   1      31.393  16.299 -24.301  0.00  0.00     0.287 S 
ATOM      2  O   UNL d   1      31.024  15.558 -24.344  0.00  0.00    -0.198 OA
ATOM      3  O   UNL d   1      32.095  15.962 -24.573  0.00  0.00    -0.198 OA
ENDROOT
BRANCH   1   4
ATOM      4  N   UNL d   1      30.689  16.630 -24.030  0.00  0.00    -0.139 NA
BRANCH   4   5
ATOM      5  C   UNL d   1      29.967  16.262 -24.175  0.00  0.00     0.175 A 
ATOM      6  N   UNL d   1      29.351  16.320 -23.635  0.00  0.00    -0.226 NA
ATOM      7  C   UNL d   1      28.680  15.964 -23.796  0.00  0.00     0.083 A 
ATOM      8  C   UNL d   1      28.037  16.004 -23.269  0.00  0.00     0.021 C 
ATOM      9  C   UNL d   1      28.575  15.532 -24.491  0.00  0.00     0.019 A 
ATOM     10  C   UNL d   1      29.148  15.487 -24.978  0.00  0.00     0.005 A 
ATOM     11  C   UNL d   1      29.862  15.830 -24.871  0.00  0.00     0.040 A 
ENDBRANCH   4   5
ENDBRANCH   1   4
BRANCH   1  12
ATOM     12  C   UNL d   1      31.761  17.026 -24.261  0.00  0.00     0.105 A 
ATOM     13  C   UNL d   1      32.130  17.266 -23.563  0.00  0.00     0.013 A 
ATOM     14  C   UNL d   1      32.500  18.001 -23.525  0.00  0.00     0.001 A 
ATOM     15  C   UNL d   1      32.868  18.239 -22.831  0.00  0.00     0.000 A 
ATOM     16  C   UNL d   1      32.502  18.498 -24.183  0.00  0.00     0.000 A 
ATOM     17  C   UNL d   1      33.241  18.977 -22.788  0.00  0.00     0.000 A 
ATOM     18  C   UNL d   1      33.241  19.476 -23.454  0.00  0.00     0.000 A 
ATOM     19  C   UNL d   1      32.874  19.238 -24.147  0.00  0.00     0.000 A 
ATOM     20  C   UNL d   1      32.133  18.258 -24.881  0.00  0.00     0.001 A 
ATOM     21  C   UNL d   1      31.763  17.523 -24.917  0.00  0.00     0.013 A 
ENDBRANCH   1  12
TORSDOF 3
ENDMDL
MODEL 3
REMARK VINA RESULT:      -2.3      1.439      2.398
REMARK  3 active torsions:
REMARK  status: ('A' for Active; 'I' for Inactive)
REMARK    1  A    between atoms: N_2  and  S_1 
REMARK    2  A    between atoms: C_3  and  S_1 
REMARK    3  A    between atoms: C_4  and  N_2 
ROOT
ATOM      1  S   UNL d   1      32.862  18.627 -23.934  0.00  0.00     0.287 S 
ATOM      2  O   UNL d   1      33.238  19.361 -24.025  0.00  0.00    -0.198 OA
ATOM      3  O   UNL d   1      32.891  18.515 -24.751  0.00  0.00    -0.198 OA
ENDROOT
BRANCH   1   4
ATOM      4  N   UNL d   1      32.837  18.746 -23.119  0.00  0.00    -0.139 NA
BRANCH   4   5
ATOM      5  C   UNL d   1      32.952  19.495 -22.799  0.00  0.00     0.175 A 
ATOM      6  N   UNL d   1      32.883  19.620 -21.989  0.00  0.00    -0.226 NA
ATOM      7  C   UNL d   1      32.995  20.336 -21.712  0.00  0.00     0.083 A 
ATOM      8  C   UNL d   1      32.932  20.495 -20.897  0.00  0.00     0.021 C 
ATOM      9  C   UNL d   1      33.181  20.968 -22.208  0.00  0.00     0.019 A 
ATOM     10  C   UNL d   1      33.241  20.841 -22.948  0.00  0.00     0.005 A 
ATOM     11  C   UNL d   1      33.137  20.127 -23.295  0.00  0.00     0.040 A 
ENDBRANCH   4   5
ENDBRANCH   1   4
BRANCH   1  12
ATOM     12  C   UNL d   1      32.493  17.905 -23.849  0.00  0.00     0.105 A 
ATOM     13  C   UNL d   1      31.702  17.815 -24.065  0.00  0.00     0.013 A 
ATOM     14  C   UNL d   1      31.332  17.084 -23.978  0.00  0.00     0.001 A 
ATOM     15  C   UNL d   1      30.545  16.995 -24.193  0.00  0.00     0.000 A 
ATOM     16  C   UNL d   1      31.752  16.441 -23.675  0.00  0.00     0.000 A 
ATOM     17  C   UNL d   1      30.169  16.262 -24.107  0.00  0.00     0.000 A 
ATOM     18  C   UNL d   1      30.595  15.616 -23.802  0.00  0.00     0.000 A 
ATOM     19  C   UNL d   1      31.381  15.705 -23.587  0.00  0.00     0.000 A 
ATOM     20  C   UNL d   1      32.543  16.531 -23.460  0.00  0.00     0.001 A 
ATOM     21  C   UNL d   1      32.911  17.263 -23.547  0.00  0.00     0.013 A 
ENDBRANCH   1  12
TORSDOF 3
ENDMDL
MODEL 4
REMARK VINA RESULT:      -2.0      3.091      4.626
REMARK  3 active torsions:
REMARK  status: ('A' for Active; 'I' for Inactive)
REMARK    1  A    between atoms: N_2  and  S_1 
REMARK    2  A    between atoms: C_3  and  S_1 
REMARK    3  A    between atoms: C_4  and  N_2 
ROOT
ATOM      1  S   UNL d   1      32.996  20.205 -21.729  0.00  0.00     0.287 S 
ATOM      2  O   UNL d   1      33.031  20.594 -20.998  0.00  0.00    -0.198 OA
ATOM      3  O   UNL d   1      33.241  19.506 -21.366  0.00  0.00    -0.198 OA
ENDROOT
BRANCH   1   4
ATOM      4  N   UNL d   1      32.751  20.907 -22.086  0.00  0.00    -0.139 NA
BRANCH   4   5
ATOM      5  C   UNL d   1      32.617  21.583 -21.637  0.00  0.00     0.175 A 
ATOM      6  N   UNL d   1      32.961  22.300 -21.846  0.00  0.00    -0.226 NA
ATOM      7  C   UNL d   1      32.819  22.923 -21.406  0.00  0.00     0.083 A 
ATOM      8  C   UNL d   1      33.153  23.663 -21.591  0.00  0.00     0.021 C 
ATOM      9  C   UNL d   1      32.335  22.881 -20.740  0.00  0.00     0.019 A 
ATOM     10  C   UNL d   1      32.026  22.219 -20.559  0.00  0.00     0.005 A 
ATOM     11  C   UNL d   1      32.133  21.541 -20.971  0.00  0.00     0.040 A 
ENDBRANCH   4   5
ENDBRANCH   1   4
BRANCH   1  12
ATOM     12  C   UNL d   1      32.962  19.818 -22.446  0.00  0.00     0.105 A 
ATOM     13  C   UNL d   1      32.649  19.056 -22.492  0.00  0.00     0.013 A 
ATOM     14  C   UNL d   1      32.616  18.668 -23.218  0.00  0.00     0.001 A 
ATOM     15  C   UNL d   1      32.305  17.910 -23.264  0.00  0.00     0.000 A 
ATOM     16  C   UNL d   1      32.896  19.040 -23.900  0.00  0.00     0.000 A 
ATOM     17  C   UNL d   1      32.270  17.516 -23.992  0.00  0.00     0.000 A 
ATOM     18  C   UNL d   1      32.553  17.894 -24.676  0.00  0.00     0.000 A 
ATOM     19  C   UNL d   1      32.864  18.651 -24.631  0.00  0.00     0.000 A 
ATOM     20  C   UNL d   1      33.209  19.802 -23.854  0.00  0.00     0.001 A 
ATOM     21  C   UNL d   1      33.241  20.189 -23.127  0.00  0.00     0.013 A 
ENDBRANCH   1  12
TORSDOF 3
ENDMDL
MODEL 5
REMARK VINA RESULT:      -1.3      2.804      4.265
REMARK  3 active torsions:
REMARK  status: ('A' for Active; 'I' for Inactive)
REMARK    1  A    between atoms: N_2  and  S_1 
REMARK    2  A    between atoms: C_3  and  S_1 
REMARK    3  A    between atoms: C_4  and  N_2 
ROOT
ATOM      1  S   UNL d   1      33.059  20.366 -22.640  0.00  0.00     0.287 S 
ATOM      2  O   UNL d   1      33.198  21.166 -22.470  0.00  0.00    -0.198 OA
ATOM      3  O   UNL d   1      33.240  20.506 -23.432  0.00  0.00    -0.198 OA
ENDROOT
BRANCH   1   4
ATOM      4  N   UNL d   1      32.880  20.233 -21.846  0.00  0.00    -0.139 NA
BRANCH   4   5
ATOM      5  C   UNL d   1      32.811  20.861 -21.319  0.00  0.00     0.175 A 
ATOM      6  N   UNL d   1      32.321  21.499 -21.488  0.00  0.00    -0.226 NA
ATOM      7  C   UNL d   1      32.273  22.079 -20.974  0.00  0.00     0.083 A 
ATOM      8  C   UNL d   1      31.785  22.738 -21.116  0.00  0.00     0.021 C 
ATOM      9  C   UNL d   1      32.702  22.069 -20.269  0.00  0.00     0.019 A 
ATOM     10  C   UNL d   1      33.148  21.479 -20.127  0.00  0.00     0.005 A 
ATOM     11  C   UNL d   1      33.240  20.851 -20.614  0.00  0.00     0.040 A 
ENDBRANCH   4   5
ENDBRANCH   1   4
BRANCH   1  12
ATOM     12  C   UNL d   1      32.924  19.581 -22.811  0.00  0.00     0.105 A 
ATOM     13  C   UNL d   1      32.479  19.371 -23.474  0.00  0.00     0.013 A 
ATOM     14  C   UNL d   1      32.344  18.576 -23.644  0.00  0.00     0.001 A 
ATOM     15  C   UNL d   1      31.902  18.368 -24.303  0.00  0.00     0.000 A 
ATOM     16  C   UNL d   1      32.652  17.989 -23.153  0.00  0.00     0.000 A 
ATOM     17  C   UNL d   1      31.764  17.571 -24.479  0.00  0.00     0.000 A 
ATOM     18  C   UNL d   1      32.076  16.982 -23.982  0.00  0.00     0.000 A 
ATOM     19  C   UNL d   1      32.517  17.190 -23.323  0.00  0.00     0.000 A 
ATOM     20  C   UNL d   1      33.096  18.199 -22.490  0.00  0.00     0.001 A 
ATOM     21  C   UNL d   1      33.231  18.994 -22.321  0.00  0.00     0.013 A 
ENDBRANCH   1  12
TORSDOF 3
ENDMDL
