MODEL 1
REMARK VINA RESULT:      -3.2      0.000      0.000
REMARK  4 active torsions:
REMARK  status: ('A' for Active; 'I' for Inactive)
REMARK    1  A    between atoms: N_8  and  C_2 
REMARK    2  A    between atoms: C_9  and  C_3 
REMARK       I    between atoms: C_6  and  N_7 
REMARK    3  A    between atoms: C_11  and  C_6 
REMARK    4  A    between atoms: N_7  and  N_8 
ROOT
ATOM      1  N   UNL d   1      32.634  18.922 -22.551  0.00  0.00    -0.221 NA
ATOM      2  C   UNL d   1      32.690  18.553 -23.274  0.00  0.00     0.186 A 
ATOM      3  C   UNL d   1      32.976  19.651 -22.628  0.00  0.00     0.090 A 
ATOM      4  S   UNL d   1      33.063  19.050 -23.792  0.00  0.00    -0.047 SA
ATOM      5  C   UNL d   1      33.241  19.733 -23.391  0.00  0.00     0.058 A 
ENDROOT
BRANCH   2   6
ATOM      6  N   UNL d   1      32.409  17.782 -23.459  0.00  0.00    -0.275 N 
ATOM      7  H   UNL d   1      31.645  17.694 -23.753  0.00  0.00     0.189 HD
BRANCH   6   8
ATOM      8  N   UNL d   1      32.898  17.127 -23.344  0.00  0.00    -0.264 N 
ATOM      9  C   UNL d   1      32.615  16.377 -23.550  0.00  0.00     0.271 C 
ATOM     10  O   UNL d   1      33.106  15.722 -23.434  0.00  0.00    -0.266 OA
ATOM     11  H   UNL d   1      33.645  17.236 -23.030  0.00  0.00     0.190 HD
BRANCH   9  12
ATOM     12  C   UNL d   1      31.870  16.279 -23.861  0.00  0.00     0.057 A 
ATOM     13  C   UNL d   1      31.257  16.102 -23.332  0.00  0.00     0.005 A 
ATOM     14  C   UNL d   1      30.487  15.997 -23.618  0.00  0.00     0.000 A 
ATOM     15  C   UNL d   1      30.321  16.065 -24.419  0.00  0.00     0.000 A 
ATOM     16  C   UNL d   1      30.951  16.245 -24.951  0.00  0.00     0.000 A 
ATOM     17  C   UNL d   1      31.716  16.350 -24.668  0.00  0.00     0.005 A 
ENDBRANCH   9  12
ENDBRANCH   6   8
ENDBRANCH   2   6
BRANCH   3  18
ATOM     18  C   UNL d   1      33.041  20.213 -22.029  0.00  0.00     0.018 A 
ATOM     19  C   UNL d   1      33.172  19.965 -21.252  0.00  0.00     0.002 A 
ATOM     20  C   UNL d   1      33.239  20.520 -20.649  0.00  0.00     0.000 A 
ATOM     21  C   UNL d   1      33.172  21.330 -20.826  0.00  0.00     0.000 A 
ATOM     22  C   UNL d   1      33.041  21.578 -21.603  0.00  0.00     0.000 A 
ATOM     23  C   UNL d   1      33.237  21.896 -20.229  0.00  0.00     0.000 C 
ATOM     24  C   UNL d   1      32.975  21.015 -22.208  0.00  0.00     0.002 A 
ENDBRANCH   3  18
TORSDOF 4
ENDMDL
MODEL 2
REMARK VINA RESULT:      -2.8      0.945      1.391
REMARK  4 active torsions:
REMARK  status: ('A' for Active; 'I' for Inactive)
REMARK    1  A    between atoms: N_8  and  C_2 
REMARK    2  A    between atoms: C_9  and  C_3 
REMARK       I    between atoms: C_6  and  N_7 
REMARK    3  A    between atoms: C_11  and  C_6 
REMARK    4  A    between atoms: N_7  and  N_8 
ROOT
ATOM      1  N   UNL d   1      32.723  19.940 -22.108  0.00  0.00    -0.221 NA
ATOM      2  C   UNL d   1      32.878  19.666 -22.859  0.00  0.00     0.186 A 
ATOM      3  C   UNL d   1      32.947  20.717 -22.087  0.00  0.00     0.090 A 
ATOM      4  S   UNL d   1      33.195  20.269 -23.296  0.00  0.00    -0.047 SA
ATOM      5  C   UNL d   1      33.238  20.922 -22.816  0.00  0.00     0.058 A 
ENDROOT
BRANCH   2   6
ATOM      6  N   UNL d   1      32.735  18.886 -23.139  0.00  0.00    -0.275 N 
ATOM      7  H   UNL d   1      32.242  18.778 -23.790  0.00  0.00     0.189 HD
BRANCH   6   8
ATOM      8  N   UNL d   1      33.087  18.241 -22.761  0.00  0.00    -0.264 N 
ATOM      9  C   UNL d   1      32.888  17.477 -23.008  0.00  0.00     0.271 C 
ATOM     10  O   UNL d   1      33.241  16.833 -22.629  0.00  0.00    -0.266 OA
ATOM     11  H   UNL d   1      33.620  18.376 -22.156  0.00  0.00     0.190 HD
BRANCH   9  12
ATOM     12  C   UNL d   1      32.356  17.355 -23.612  0.00  0.00     0.057 A 
ATOM     13  C   UNL d   1      32.650  17.367 -24.387  0.00  0.00     0.005 A 
ATOM     14  C   UNL d   1      32.134  17.246 -25.022  0.00  0.00     0.000 A 
ATOM     15  C   UNL d   1      31.333  17.113 -24.897  0.00  0.00     0.000 A 
ATOM     16  C   UNL d   1      31.042  17.102 -24.105  0.00  0.00     0.000 A 
ATOM     17  C   UNL d   1      31.554  17.223 -23.473  0.00  0.00     0.005 A 
ENDBRANCH   9  12
ENDBRANCH   6   8
ENDBRANCH   2   6
BRANCH   3  18
ATOM     18  C   UNL d   1      32.888  21.212 -21.432  0.00  0.00     0.018 A 
ATOM     19  C   UNL d   1      33.179  20.958 -20.702  0.00  0.00     0.002 A 
ATOM     20  C   UNL d   1      33.123  21.448 -20.043  0.00  0.00     0.000 A 
ATOM     21  C   UNL d   1      32.772  22.198 -20.117  0.00  0.00     0.000 A 
ATOM     22  C   UNL d   1      32.480  22.452 -20.847  0.00  0.00     0.000 A 
ATOM     23  C   UNL d   1      32.710  22.698 -19.463  0.00  0.00     0.000 C 
ATOM     24  C   UNL d   1      32.539  21.956 -21.508  0.00  0.00     0.002 A 
ENDBRANCH   3  18
TORSDOF 4
ENDMDL
MODEL 3
REMARK VINA RESULT:      -2.6      2.294      5.548
REMARK  4 active torsions:
REMARK  status: ('A' for Active; 'I' for Inactive)
REMARK    1  A    between atoms: N_8  and  C_2 
REMARK    2  A    between atoms: C_9  and  C_3 
REMARK       I    between atoms: C_6  and  N_7 
REMARK    3  A    between atoms: C_11  and  C_6 
REMARK    4  A    between atoms: N_7  and  N_8 
ROOT
ATOM      1  N   UNL d   1      32.818  20.139 -22.620  0.00  0.00    -0.221 NA
ATOM      2  C   UNL d   1      32.976  20.534 -21.925  0.00  0.00     0.186 A 
ATOM      3  C   UNL d   1      32.984  19.357 -22.493  0.00  0.00     0.090 A 
ATOM      4  S   UNL d   1      33.236  19.999 -21.375  0.00  0.00    -0.047 SA
ATOM      5  C   UNL d   1      33.241  19.268 -21.728  0.00  0.00     0.058 A 
ENDROOT
BRANCH   2   6
ATOM      6  N   UNL d   1      32.886  21.359 -21.794  0.00  0.00    -0.275 N 
ATOM      7  H   UNL d   1      32.786  21.635 -21.025  0.00  0.00     0.189 HD
BRANCH   6   8
ATOM      8  N   UNL d   1      32.898  21.881 -22.434  0.00  0.00    -0.264 N 
ATOM      9  C   UNL d   1      32.762  22.685 -22.295  0.00  0.00     0.271 C 
ATOM     10  O   UNL d   1      32.774  23.207 -22.937  0.00  0.00    -0.266 OA
ATOM     11  H   UNL d   1      33.042  21.590 -23.184  0.00  0.00     0.190 HD
BRANCH   9  12
ATOM     12  C   UNL d   1      32.619  22.965 -21.545  0.00  0.00     0.057 A 
ATOM     13  C   UNL d   1      33.241  23.354 -21.159  0.00  0.00     0.005 A 
ATOM     14  C   UNL d   1      33.126  23.649 -20.394  0.00  0.00     0.000 A 
ATOM     15  C   UNL d   1      32.405  23.563 -20.011  0.00  0.00     0.000 A 
ATOM     16  C   UNL d   1      31.777  23.166 -20.411  0.00  0.00     0.000 A 
ATOM     17  C   UNL d   1      31.890  22.872 -21.171  0.00  0.00     0.005 A 
ENDBRANCH   9  12
ENDBRANCH   6   8
ENDBRANCH   2   6
BRANCH   3  18
ATOM     18  C   UNL d   1      32.902  18.757 -23.051  0.00  0.00     0.018 A 
ATOM     19  C   UNL d   1      32.818  18.952 -23.849  0.00  0.00     0.002 A 
ATOM     20  C   UNL d   1      32.737  18.357 -24.411  0.00  0.00     0.000 A 
ATOM     21  C   UNL d   1      32.740  17.560 -24.171  0.00  0.00     0.000 A 
ATOM     22  C   UNL d   1      32.824  17.366 -23.373  0.00  0.00     0.000 A 
ATOM     23  C   UNL d   1      32.658  16.955 -24.727  0.00  0.00     0.000 C 
ATOM     24  C   UNL d   1      32.906  17.968 -22.810  0.00  0.00     0.002 A 
ENDBRANCH   3  18
TORSDOF 4
ENDMDL
MODEL 4
REMARK VINA RESULT:      -1.9      1.456      4.992
REMARK  4 active torsions:
REMARK  status: ('A' for Active; 'I' for Inactive)
REMARK    1  A    between atoms: N_8  and  C_2 
REMARK    2  A    between atoms: C_9  and  C_3 
REMARK       I    between atoms: C_6  and  N_7 
REMARK    3  A    between atoms: C_11  and  C_6 
REMARK    4  A    between atoms: N_7  and  N_8 
ROOT
ATOM      1  N   UNL d   1      31.948  18.310 -23.337  0.00  0.00    -0.221 NA
ATOM      2  C   UNL d   1      32.685  18.635 -23.218  0.00  0.00     0.186 A 
ATOM      3  C   UNL d   1      32.054  17.623 -23.751  0.00  0.00     0.090 A 
ATOM      4  S   UNL d   1      33.240  18.152 -23.556  0.00  0.00    -0.047 SA
ATOM      5  C   UNL d   1      32.848  17.522 -23.887  0.00  0.00     0.058 A 
ENDROOT
BRANCH   2   6
ATOM      6  N   UNL d   1      32.848  19.353 -22.813  0.00  0.00    -0.275 N 
ATOM      7  H   UNL d   1      32.820  19.365 -21.990  0.00  0.00     0.189 HD
BRANCH   6   8
ATOM      8  N   UNL d   1      33.034  20.034 -23.242  0.00  0.00    -0.264 N 
ATOM      9  C   UNL d   1      33.055  20.761 -22.846  0.00  0.00     0.271 C 
ATOM     10  O   UNL d   1      33.241  21.442 -23.276  0.00  0.00    -0.266 OA
ATOM     11  H   UNL d   1      33.191  19.973 -24.042  0.00  0.00     0.190 HD
BRANCH   9  12
ATOM     12  C   UNL d   1      32.897  20.811 -22.049  0.00  0.00     0.057 A 
ATOM     13  C   UNL d   1      32.368  21.400 -21.803  0.00  0.00     0.005 A 
ATOM     14  C   UNL d   1      32.186  21.476 -20.999  0.00  0.00     0.000 A 
ATOM     15  C   UNL d   1      32.523  20.977 -20.440  0.00  0.00     0.000 A 
ATOM     16  C   UNL d   1      33.060  20.381 -20.700  0.00  0.00     0.000 A 
ATOM     17  C   UNL d   1      33.241  20.304 -21.498  0.00  0.00     0.005 A 
ENDBRANCH   9  12
ENDBRANCH   6   8
ENDBRANCH   2   6
BRANCH   3  18
ATOM     18  C   UNL d   1      31.453  17.113 -23.991  0.00  0.00     0.018 A 
ATOM     19  C   UNL d   1      31.341  16.399 -23.591  0.00  0.00     0.002 A 
ATOM     20  C   UNL d   1      30.742  15.886 -23.826  0.00  0.00     0.000 A 
ATOM     21  C   UNL d   1      30.253  16.090 -24.466  0.00  0.00     0.000 A 
ATOM     22  C   UNL d   1      30.365  16.804 -24.866  0.00  0.00     0.000 A 
ATOM     23  C   UNL d   1      29.649  15.583 -24.711  0.00  0.00     0.000 C 
ATOM     24  C   UNL d   1      30.969  17.319 -24.626  0.00  0.00     0.002 A 
ENDBRANCH   3  18
TORSDOF 4
ENDMDL
