MODEL 1
REMARK VINA RESULT:      -1.4      0.000      0.000
REMARK  3 active torsions:
REMARK  status: ('A' for Active; 'I' for Inactive)
REMARK    1  A    between atoms: C_8  and  C_1 
REMARK    2  A    between atoms: O_13  and  C_6 
REMARK    3  A    between atoms: C_17  and  O_13 
ROOT
ATOM      1  C   UNL d   1      58.919  -0.620  29.950  0.00  0.00     0.009 A 
ATOM      2  C   UNL d   1      58.840  -1.388  29.650  0.00  0.00     0.046 A 
ATOM      3  C   UNL d   1      58.153  -1.822  29.813  0.00  0.00     0.105 A 
ATOM      4  O   UNL d   1      57.554  -1.490  30.269  0.00  0.00    -0.273 OA
ATOM      5  C   UNL d   1      58.323  -0.286  30.406  0.00  0.00     0.069 A 
ATOM      6  C   UNL d   1      59.437  -1.722  29.194  0.00  0.00     0.102 A 
ATOM      7  C   UNL d   1      57.639  -0.718  30.568  0.00  0.00     0.300 A 
ATOM      8  C   UNL d   1      58.069  -2.586  29.517  0.00  0.00     0.025 A 
ATOM      9  C   UNL d   1      59.356  -2.487  28.897  0.00  0.00     0.025 A 
ATOM     10  O   UNL d   1      57.035  -0.384  31.028  0.00  0.00    -0.259 OA
ATOM     11  C   UNL d   1      58.672  -2.919  29.058  0.00  0.00     0.004 A 
ATOM     12  C   UNL d   1      58.583  -3.682  28.766  0.00  0.00     0.000 C 
ENDROOT
BRANCH   1  13
ATOM     13  C   UNL d   1      59.606  -0.186  29.788  0.00  0.00     0.000 A 
ATOM     14  C   UNL d   1      60.232  -0.186  30.332  0.00  0.00     0.000 A 
ATOM     15  C   UNL d   1      60.927   0.253  30.168  0.00  0.00     0.000 A 
ATOM     16  C   UNL d   1      60.988   0.682  29.469  0.00  0.00     0.000 A 
ATOM     17  C   UNL d   1      60.351   0.676  28.926  0.00  0.00     0.000 A 
ATOM     18  C   UNL d   1      59.667   0.244  29.088  0.00  0.00     0.000 A 
ENDBRANCH   1  13
BRANCH   6  19
ATOM     19  O   UNL d   1      60.124  -1.288  29.032  0.00  0.00    -0.305 OA
BRANCH  19  20
ATOM     20  C   UNL d   1      60.646  -1.542  28.458  0.00  0.00     0.123 C 
ATOM     21  C   UNL d   1      61.132  -2.188  28.609  0.00  0.00     0.029 C 
ENDBRANCH  19  20
ENDBRANCH   6  19
TORSDOF 3
ENDMDL
MODEL 2
REMARK VINA RESULT:      -0.5      1.058      2.344
REMARK  3 active torsions:
REMARK  status: ('A' for Active; 'I' for Inactive)
REMARK    1  A    between atoms: C_8  and  C_1 
REMARK    2  A    between atoms: O_13  and  C_6 
REMARK    3  A    between atoms: C_17  and  O_13 
ROOT
ATOM      1  C   UNL d   1      59.067  -1.418  29.208  0.00  0.00     0.009 A 
ATOM      2  C   UNL d   1      58.548  -1.211  29.820  0.00  0.00     0.046 A 
ATOM      3  C   UNL d   1      57.899  -1.698  29.988  0.00  0.00     0.105 A 
ATOM      4  O   UNL d   1      57.772  -2.382  29.549  0.00  0.00    -0.273 OA
ATOM      5  C   UNL d   1      58.942  -2.100  28.767  0.00  0.00     0.069 A 
ATOM      6  C   UNL d   1      58.673  -0.528  30.260  0.00  0.00     0.102 A 
ATOM      7  C   UNL d   1      58.296  -2.585  28.935  0.00  0.00     0.300 A 
ATOM      8  C   UNL d   1      57.380  -1.497  30.596  0.00  0.00     0.025 A 
ATOM      9  C   UNL d   1      58.156  -0.324  30.869  0.00  0.00     0.025 A 
ATOM     10  O   UNL d   1      58.167  -3.274  28.493  0.00  0.00    -0.259 OA
ATOM     11  C   UNL d   1      57.510  -0.809  31.037  0.00  0.00     0.004 A 
ATOM     12  C   UNL d   1      56.989  -0.613  31.642  0.00  0.00     0.000 C 
ENDROOT
BRANCH   1  13
ATOM     13  C   UNL d   1      59.716  -0.931  29.040  0.00  0.00     0.000 A 
ATOM     14  C   UNL d   1      60.475  -1.156  29.287  0.00  0.00     0.000 A 
ATOM     15  C   UNL d   1      61.132  -0.664  29.116  0.00  0.00     0.000 A 
ATOM     16  C   UNL d   1      61.023   0.040  28.706  0.00  0.00     0.000 A 
ATOM     17  C   UNL d   1      60.253   0.259  28.461  0.00  0.00     0.000 A 
ATOM     18  C   UNL d   1      59.607  -0.226  28.628  0.00  0.00     0.000 A 
ENDBRANCH   1  13
BRANCH   6  19
ATOM     19  O   UNL d   1      59.323  -0.041  30.092  0.00  0.00    -0.305 OA
BRANCH  19  20
ATOM     20  C   UNL d   1      59.418   0.668  30.483  0.00  0.00     0.123 C 
ATOM     21  C   UNL d   1      59.798   0.682  31.213  0.00  0.00     0.029 C 
ENDBRANCH  19  20
ENDBRANCH   6  19
TORSDOF 3
ENDMDL
MODEL 3
REMARK VINA RESULT:      -0.2      8.634      9.295
REMARK  3 active torsions:
REMARK  status: ('A' for Active; 'I' for Inactive)
REMARK    1  A    between atoms: C_8  and  C_1 
REMARK    2  A    between atoms: O_13  and  C_6 
REMARK    3  A    between atoms: C_17  and  O_13 
ROOT
ATOM      1  C   UNL d   1      60.307  -9.422  32.447  0.00  0.00     0.009 A 
ATOM      2  C   UNL d   1      59.495  -9.520  32.318  0.00  0.00     0.046 A 
ATOM      3  C   UNL d   1      59.221  -9.705  31.558  0.00  0.00     0.105 A 
ATOM      4  O   UNL d   1      59.754  -9.790  30.937  0.00  0.00    -0.273 OA
ATOM      5  C   UNL d   1      60.842  -9.507  31.829  0.00  0.00     0.069 A 
ATOM      6  C   UNL d   1      58.960  -9.436  32.936  0.00  0.00     0.102 A 
ATOM      7  C   UNL d   1      60.569  -9.691  31.072  0.00  0.00     0.300 A 
ATOM      8  C   UNL d   1      58.415  -9.803  31.423  0.00  0.00     0.025 A 
ATOM      9  C   UNL d   1      58.152  -9.534  32.806  0.00  0.00     0.025 A 
ATOM     10  O   UNL d   1      61.106  -9.776  30.446  0.00  0.00    -0.259 OA
ATOM     11  C   UNL d   1      57.879  -9.718  32.049  0.00  0.00     0.004 A 
ATOM     12  C   UNL d   1      57.075  -9.817  31.910  0.00  0.00     0.000 C 
ENDROOT
BRANCH   1  13
ATOM     13  C   UNL d   1      60.581  -9.238  33.208  0.00  0.00     0.000 A 
ATOM     14  C   UNL d   1      60.840  -8.468  33.377  0.00  0.00     0.000 A 
ATOM     15  C   UNL d   1      61.117  -8.281  34.145  0.00  0.00     0.000 A 
ATOM     16  C   UNL d   1      61.133  -8.860  34.729  0.00  0.00     0.000 A 
ATOM     17  C   UNL d   1      60.870  -9.634  34.549  0.00  0.00     0.000 A 
ATOM     18  C   UNL d   1      60.597  -9.817  33.792  0.00  0.00     0.000 A 
ENDBRANCH   1  13
BRANCH   6  19
ATOM     19  O   UNL d   1      59.235  -9.251  33.697  0.00  0.00    -0.305 OA
BRANCH  19  20
ATOM     20  C   UNL d   1      58.707  -9.092  34.298  0.00  0.00     0.123 C 
ATOM     21  C   UNL d   1      58.520  -9.681  34.841  0.00  0.00     0.029 C 
ENDBRANCH  19  20
ENDBRANCH   6  19
TORSDOF 3
ENDMDL
MODEL 4
REMARK VINA RESULT:       0.0      2.030      3.977
REMARK  3 active torsions:
REMARK  status: ('A' for Active; 'I' for Inactive)
REMARK    1  A    between atoms: C_8  and  C_1 
REMARK    2  A    between atoms: O_13  and  C_6 
REMARK    3  A    between atoms: C_17  and  O_13 
ROOT
ATOM      1  C   UNL d   1      57.733  -0.034  30.658  0.00  0.00     0.009 A 
ATOM      2  C   UNL d   1      58.512   0.146  30.872  0.00  0.00     0.046 A 
ATOM      3  C   UNL d   1      59.098   0.188  30.287  0.00  0.00     0.105 A 
ATOM      4  O   UNL d   1      58.904   0.051  29.499  0.00  0.00    -0.273 OA
ATOM      5  C   UNL d   1      57.536  -0.171  29.872  0.00  0.00     0.069 A 
ATOM      6  C   UNL d   1      58.709   0.283  31.658  0.00  0.00     0.102 A 
ATOM      7  C   UNL d   1      58.119  -0.130  29.290  0.00  0.00     0.300 A 
ATOM      8  C   UNL d   1      59.875   0.366  30.494  0.00  0.00     0.025 A 
ATOM      9  C   UNL d   1      59.486   0.462  31.869  0.00  0.00     0.025 A 
ATOM     10  O   UNL d   1      57.925  -0.267  28.496  0.00  0.00    -0.259 OA
ATOM     11  C   UNL d   1      60.069   0.504  31.287  0.00  0.00     0.004 A 
ATOM     12  C   UNL d   1      60.846   0.681  31.489  0.00  0.00     0.000 C 
ENDROOT
BRANCH   1  13
ATOM     13  C   UNL d   1      57.147  -0.076  31.243  0.00  0.00     0.000 A 
ATOM     14  C   UNL d   1      56.775   0.618  31.504  0.00  0.00     0.000 A 
ATOM     15  C   UNL d   1      56.183   0.576  32.095  0.00  0.00     0.000 A 
ATOM     16  C   UNL d   1      55.972  -0.152  32.416  0.00  0.00     0.000 A 
ATOM     17  C   UNL d   1      56.353  -0.846  32.146  0.00  0.00     0.000 A 
ATOM     18  C   UNL d   1      56.936  -0.805  31.563  0.00  0.00     0.000 A 
ENDBRANCH   1  13
BRANCH   6  19
ATOM     19  O   UNL d   1      58.123   0.241  32.243  0.00  0.00    -0.305 OA
BRANCH  19  20
ATOM     20  C   UNL d   1      58.191   0.681  32.927  0.00  0.00     0.123 C 
ATOM     21  C   UNL d   1      58.171   0.304  33.657  0.00  0.00     0.029 C 
ENDBRANCH  19  20
ENDBRANCH   6  19
TORSDOF 3
ENDMDL
MODEL 5
REMARK VINA RESULT:       0.2      1.654      2.981
REMARK  3 active torsions:
REMARK  status: ('A' for Active; 'I' for Inactive)
REMARK    1  A    between atoms: C_8  and  C_1 
REMARK    2  A    between atoms: O_13  and  C_6 
REMARK    3  A    between atoms: C_17  and  O_13 
ROOT
ATOM      1  C   UNL d   1      59.723   0.252  30.808  0.00  0.00     0.009 A 
ATOM      2  C   UNL d   1      58.915   0.358  30.953  0.00  0.00     0.046 A 
ATOM      3  C   UNL d   1      58.660   0.573  31.712  0.00  0.00     0.105 A 
ATOM      4  O   UNL d   1      59.208   0.680  32.316  0.00  0.00    -0.273 OA
ATOM      5  C   UNL d   1      60.273   0.358  31.410  0.00  0.00     0.069 A 
ATOM      6  C   UNL d   1      58.365   0.252  30.351  0.00  0.00     0.102 A 
ATOM      7  C   UNL d   1      60.019   0.572  32.165  0.00  0.00     0.300 A 
ATOM      8  C   UNL d   1      57.857   0.680  31.862  0.00  0.00     0.025 A 
ATOM      9  C   UNL d   1      57.560   0.358  30.498  0.00  0.00     0.025 A 
ATOM     10  O   UNL d   1      60.571   0.680  32.774  0.00  0.00    -0.259 OA
ATOM     11  C   UNL d   1      57.306   0.572  31.253  0.00  0.00     0.004 A 
ATOM     12  C   UNL d   1      56.506   0.680  31.408  0.00  0.00     0.000 C 
ENDROOT
BRANCH   1  13
ATOM     13  C   UNL d   1      59.978   0.037  30.049  0.00  0.00     0.000 A 
ATOM     14  C   UNL d   1      60.229   0.623  29.518  0.00  0.00     0.000 A 
ATOM     15  C   UNL d   1      60.487   0.405  28.750  0.00  0.00     0.000 A 
ATOM     16  C   UNL d   1      60.491  -0.386  28.526  0.00  0.00     0.000 A 
ATOM     17  C   UNL d   1      60.236  -0.969  29.069  0.00  0.00     0.000 A 
ATOM     18  C   UNL d   1      59.982  -0.755  29.824  0.00  0.00     0.000 A 
ENDBRANCH   1  13
BRANCH   6  19
ATOM     19  O   UNL d   1      58.620   0.037  29.592  0.00  0.00    -0.305 OA
BRANCH  19  20
ATOM     20  C   UNL d   1      58.079  -0.179  29.022  0.00  0.00     0.123 C 
ATOM     21  C   UNL d   1      57.835   0.373  28.463  0.00  0.00     0.029 C 
ENDBRANCH  19  20
ENDBRANCH   6  19
TORSDOF 3
ENDMDL
MODEL 6
REMARK VINA RESULT:       0.4      2.459      4.495
REMARK  3 active torsions:
REMARK  status: ('A' for Active; 'I' for Inactive)
REMARK    1  A    between atoms: C_8  and  C_1 
REMARK    2  A    between atoms: O_13  and  C_6 
REMARK    3  A    between atoms: C_17  and  O_13 
ROOT
ATOM      1  C   UNL d   1      57.227   0.014  31.434  0.00  0.00     0.009 A 
ATOM      2  C   UNL d   1      58.004   0.181  31.666  0.00  0.00     0.046 A 
ATOM      3  C   UNL d   1      58.605   0.207  31.097  0.00  0.00     0.105 A 
ATOM      4  O   UNL d   1      58.429   0.068  30.305  0.00  0.00    -0.273 OA
ATOM      5  C   UNL d   1      57.048  -0.125  30.644  0.00  0.00     0.069 A 
ATOM      6  C   UNL d   1      58.183   0.320  32.457  0.00  0.00     0.102 A 
ATOM      7  C   UNL d   1      57.646  -0.099  30.077  0.00  0.00     0.300 A 
ATOM      8  C   UNL d   1      59.380   0.372  31.322  0.00  0.00     0.025 A 
ATOM      9  C   UNL d   1      58.957   0.486  32.686  0.00  0.00     0.025 A 
ATOM     10  O   UNL d   1      57.470  -0.239  29.279  0.00  0.00    -0.259 OA
ATOM     11  C   UNL d   1      59.556   0.512  32.119  0.00  0.00     0.004 A 
ATOM     12  C   UNL d   1      60.331   0.676  32.339  0.00  0.00     0.000 C 
ENDROOT
BRANCH   1  13
ATOM     13  C   UNL d   1      56.625  -0.012  32.004  0.00  0.00     0.000 A 
ATOM     14  C   UNL d   1      56.408  -0.738  32.341  0.00  0.00     0.000 A 
ATOM     15  C   UNL d   1      55.800  -0.764  32.917  0.00  0.00     0.000 A 
ATOM     16  C   UNL d   1      55.421  -0.072  33.147  0.00  0.00     0.000 A 
ATOM     17  C   UNL d   1      55.647   0.656  32.801  0.00  0.00     0.000 A 
ATOM     18  C   UNL d   1      56.246   0.682  32.234  0.00  0.00     0.000 A 
ENDBRANCH   1  13
BRANCH   6  19
ATOM     19  O   UNL d   1      57.581   0.294  33.027  0.00  0.00    -0.305 OA
BRANCH  19  20
ATOM     20  C   UNL d   1      57.677   0.670  33.744  0.00  0.00     0.123 C 
ATOM     21  C   UNL d   1      58.080   0.290  34.352  0.00  0.00     0.029 C 
ENDBRANCH  19  20
ENDBRANCH   6  19
TORSDOF 3
ENDMDL
MODEL 7
REMARK VINA RESULT:       0.5      2.899      4.664
REMARK  3 active torsions:
REMARK  status: ('A' for Active; 'I' for Inactive)
REMARK    1  A    between atoms: C_8  and  C_1 
REMARK    2  A    between atoms: O_13  and  C_6 
REMARK    3  A    between atoms: C_17  and  O_13 
ROOT
ATOM      1  C   UNL d   1      56.414   0.095  32.533  0.00  0.00     0.009 A 
ATOM      2  C   UNL d   1      56.868   0.242  33.210  0.00  0.00     0.046 A 
ATOM      3  C   UNL d   1      56.493   0.320  33.945  0.00  0.00     0.105 A 
ATOM      4  O   UNL d   1      55.675   0.252  34.000  0.00  0.00    -0.273 OA
ATOM      5  C   UNL d   1      55.596   0.026  32.585  0.00  0.00     0.069 A 
ATOM      6  C   UNL d   1      57.685   0.311  33.158  0.00  0.00     0.102 A 
ATOM      7  C   UNL d   1      55.223   0.104  33.317  0.00  0.00     0.300 A 
ATOM      8  C   UNL d   1      56.940   0.466  34.621  0.00  0.00     0.025 A 
ATOM      9  C   UNL d   1      58.136   0.457  33.833  0.00  0.00     0.025 A 
ATOM     10  O   UNL d   1      54.399   0.035  33.373  0.00  0.00    -0.259 OA
ATOM     11  C   UNL d   1      57.763   0.535  34.564  0.00  0.00     0.004 A 
ATOM     12  C   UNL d   1      58.204   0.681  35.242  0.00  0.00     0.000 C 
ENDROOT
BRANCH   1  13
ATOM     13  C   UNL d   1      56.788   0.017  31.798  0.00  0.00     0.000 A 
ATOM     14  C   UNL d   1      56.880   0.681  31.309  0.00  0.00     0.000 A 
ATOM     15  C   UNL d   1      57.259   0.602  30.566  0.00  0.00     0.000 A 
ATOM     16  C   UNL d   1      57.538  -0.132  30.322  0.00  0.00     0.000 A 
ATOM     17  C   UNL d   1      57.440  -0.796  30.822  0.00  0.00     0.000 A 
ATOM     18  C   UNL d   1      57.067  -0.718  31.554  0.00  0.00     0.000 A 
ENDBRANCH   1  13
BRANCH   6  19
ATOM     19  O   UNL d   1      58.060   0.233  32.422  0.00  0.00    -0.305 OA
BRANCH  19  20
ATOM     20  C   UNL d   1      58.867   0.128  32.380  0.00  0.00     0.123 C 
ATOM     21  C   UNL d   1      59.325   0.666  31.959  0.00  0.00     0.029 C 
ENDBRANCH  19  20
ENDBRANCH   6  19
TORSDOF 3
ENDMDL
MODEL 8
REMARK VINA RESULT:       0.9      1.573      3.095
REMARK  3 active torsions:
REMARK  status: ('A' for Active; 'I' for Inactive)
REMARK    1  A    between atoms: C_8  and  C_1 
REMARK    2  A    between atoms: O_13  and  C_6 
REMARK    3  A    between atoms: C_17  and  O_13 
ROOT
ATOM      1  C   UNL d   1      58.102   0.266  30.943  0.00  0.00     0.009 A 
ATOM      2  C   UNL d   1      58.819   0.369  31.345  0.00  0.00     0.046 A 
ATOM      3  C   UNL d   1      58.812   0.560  32.151  0.00  0.00     0.105 A 
ATOM      4  O   UNL d   1      58.097   0.646  32.548  0.00  0.00    -0.273 OA
ATOM      5  C   UNL d   1      57.386   0.351  31.337  0.00  0.00     0.069 A 
ATOM      6  C   UNL d   1      59.535   0.284  30.950  0.00  0.00     0.102 A 
ATOM      7  C   UNL d   1      57.379   0.541  32.140  0.00  0.00     0.300 A 
ATOM      8  C   UNL d   1      59.522   0.664  32.556  0.00  0.00     0.025 A 
ATOM      9  C   UNL d   1      60.248   0.387  31.352  0.00  0.00     0.025 A 
ATOM     10  O   UNL d   1      56.659   0.628  32.541  0.00  0.00    -0.259 OA
ATOM     11  C   UNL d   1      60.241   0.577  32.155  0.00  0.00     0.004 A 
ATOM     12  C   UNL d   1      60.947   0.682  32.564  0.00  0.00     0.000 C 
ENDROOT
BRANCH   1  13
ATOM     13  C   UNL d   1      58.109   0.075  30.136  0.00  0.00     0.000 A 
ATOM     14  C   UNL d   1      58.057   0.679  29.569  0.00  0.00     0.000 A 
ATOM     15  C   UNL d   1      58.064   0.486  28.754  0.00  0.00     0.000 A 
ATOM     16  C   UNL d   1      58.122  -0.300  28.517  0.00  0.00     0.000 A 
ATOM     17  C   UNL d   1      58.175  -0.901  29.096  0.00  0.00     0.000 A 
ATOM     18  C   UNL d   1      58.168  -0.711  29.899  0.00  0.00     0.000 A 
ENDBRANCH   1  13
BRANCH   6  19
ATOM     19  O   UNL d   1      59.542   0.093  30.144  0.00  0.00    -0.305 OA
BRANCH  19  20
ATOM     20  C   UNL d   1      60.162   0.331  29.669  0.00  0.00     0.123 C 
ATOM     21  C   UNL d   1      60.845  -0.125  29.635  0.00  0.00     0.029 C 
ENDBRANCH  19  20
ENDBRANCH   6  19
TORSDOF 3
ENDMDL
MODEL 9
REMARK VINA RESULT:       0.9      1.089      2.889
REMARK  3 active torsions:
REMARK  status: ('A' for Active; 'I' for Inactive)
REMARK    1  A    between atoms: C_8  and  C_1 
REMARK    2  A    between atoms: O_13  and  C_6 
REMARK    3  A    between atoms: C_17  and  O_13 
ROOT
ATOM      1  C   UNL d   1      58.282  -1.479  29.701  0.00  0.00     0.009 A 
ATOM      2  C   UNL d   1      58.997  -1.198  29.392  0.00  0.00     0.046 A 
ATOM      3  C   UNL d   1      59.391  -1.635  28.808  0.00  0.00     0.105 A 
ATOM      4  O   UNL d   1      59.071  -2.344  28.539  0.00  0.00    -0.273 OA
ATOM      5  C   UNL d   1      57.960  -2.187  29.434  0.00  0.00     0.069 A 
ATOM      6  C   UNL d   1      59.318  -0.490  29.659  0.00  0.00     0.102 A 
ATOM      7  C   UNL d   1      58.352  -2.622  28.853  0.00  0.00     0.300 A 
ATOM      8  C   UNL d   1      60.102  -1.361  28.497  0.00  0.00     0.025 A 
ATOM      9  C   UNL d   1      60.030  -0.212  29.350  0.00  0.00     0.025 A 
ATOM     10  O   UNL d   1      58.031  -3.336  28.581  0.00  0.00    -0.259 OA
ATOM     11  C   UNL d   1      60.422  -0.647  28.769  0.00  0.00     0.004 A 
ATOM     12  C   UNL d   1      61.133  -0.378  28.455  0.00  0.00     0.000 C 
ENDROOT
BRANCH   1  13
ATOM     13  C   UNL d   1      57.888  -1.041  30.285  0.00  0.00     0.000 A 
ATOM     14  C   UNL d   1      57.883  -1.312  31.069  0.00  0.00     0.000 A 
ATOM     15  C   UNL d   1      57.485  -0.870  31.659  0.00  0.00     0.000 A 
ATOM     16  C   UNL d   1      57.101  -0.170  31.461  0.00  0.00     0.000 A 
ATOM     17  C   UNL d   1      57.113   0.095  30.667  0.00  0.00     0.000 A 
ATOM     18  C   UNL d   1      57.504  -0.341  30.086  0.00  0.00     0.000 A 
ENDBRANCH   1  13
BRANCH   6  19
ATOM     19  O   UNL d   1      58.925  -0.053  30.243  0.00  0.00    -0.305 OA
BRANCH  19  20
ATOM     20  C   UNL d   1      59.224   0.664  30.493  0.00  0.00     0.123 C 
ATOM     21  C   UNL d   1      59.798   0.682  31.081  0.00  0.00     0.029 C 
ENDBRANCH  19  20
ENDBRANCH   6  19
TORSDOF 3
ENDMDL
