MODEL 1
REMARK VINA RESULT:      91.3      0.000      0.000
REMARK  8 active torsions:
REMARK  status: ('A' for Active; 'I' for Inactive)
REMARK    1  A    between atoms: O_8  and  C_1 
REMARK    2  A    between atoms: C_10  and  C_5 
REMARK    3  A    between atoms: C_12  and  O_8 
REMARK    4  A    between atoms: N_9  and  C_10 
REMARK    5  A    between atoms: C_25  and  N_14 
REMARK    6  A    between atoms: O_24  and  C_17 
REMARK    7  A    between atoms: C_30  and  O_24 
REMARK    8  A    between atoms: C_29  and  C_25 
ROOT
ATOM      1  C   UNL d   1     -54.783-100.892 -42.366  0.00  0.00     0.161 A 
ATOM      2  C   UNL d   1     -54.761-101.294 -40.755  0.00  0.00     0.108 A 
ATOM      3  C   UNL d   1     -54.801-101.895 -41.330  0.00  0.00     0.064 A 
ATOM      4  C   UNL d   1     -54.812-101.692 -42.132  0.00  0.00     0.222 A 
ATOM      5  C   UNL d   1     -54.750-101.496 -39.953  0.00  0.00     0.079 A 
ATOM      6  O   UNL d   1     -54.732-100.494 -40.971  0.00  0.00    -0.305 OA
ATOM      7  C   UNL d   1     -54.744-100.295 -41.787  0.00  0.00     0.126 A 
ATOM      8  C   UNL d   1     -54.829-102.680 -41.099  0.00  0.00     0.009 A 
ATOM      9  C   UNL d   1     -54.779-102.288 -39.728  0.00  0.00     0.199 A 
ATOM     10  O   UNL d   1     -54.851-102.284 -42.706  0.00  0.00    -0.284 OA
ATOM     11  C   UNL d   1     -54.818-102.879 -40.301  0.00  0.00     0.042 A 
ATOM     12  O   UNL d   1     -54.768-102.487 -38.929  0.00  0.00    -0.286 OA
ATOM     13  C   UNL d   1     -54.715 -99.502 -42.012  0.00  0.00     0.029 C 
ENDROOT
BRANCH   1  14
ATOM     14  O   UNL d   1     -54.795-100.695 -43.168  0.00  0.00    -0.300 OA
BRANCH  14  15
ATOM     15  C   UNL d   1     -55.478-100.377 -43.499  0.00  0.00     0.123 A 
ATOM     16  C   UNL d   1     -55.853-100.768 -44.120  0.00  0.00     0.123 A 
ATOM     17  C   UNL d   1     -56.533-100.457 -44.453  0.00  0.00     0.027 A 
ATOM     18  C   UNL d   1     -56.848 -99.750 -44.170  0.00  0.00     0.002 A 
ATOM     19  C   UNL d   1     -56.470 -99.352 -43.542  0.00  0.00     0.002 A 
ATOM     20  C   UNL d   1     -55.787 -99.669 -43.210  0.00  0.00     0.027 A 
BRANCH  16  21
ATOM     21  O   UNL d   1     -55.541-101.476 -44.406  0.00  0.00    -0.303 OA
BRANCH  21  22
ATOM     22  C   UNL d   1     -55.469-101.592 -45.217  0.00  0.00     0.123 C 
ATOM     23  C   UNL d   1     -55.059-101.050 -45.682  0.00  0.00     0.029 C 
ENDBRANCH  21  22
ENDBRANCH  16  21
ENDBRANCH  14  15
ENDBRANCH   1  14
BRANCH   5  24
ATOM     24  C   UNL d   1     -54.711-100.910 -39.373  0.00  0.00     0.086 C 
BRANCH  24  25
ATOM     25  N   UNL d   1     -54.915-101.099 -38.592  0.00  0.00    -0.300 N 
ATOM     26  C   UNL d   1     -54.747-101.848 -38.285  0.00  0.00     0.100 A 
ATOM     27  C   UNL d   1     -54.951-102.030 -37.512  0.00  0.00     0.100 A 
ATOM     28  N   UNL d   1     -55.323-101.469 -37.035  0.00  0.00    -0.297 N 
ATOM     29  C   UNL d   1     -55.491-100.718 -37.341  0.00  0.00     0.100 A 
ATOM     30  C   UNL d   1     -55.287-100.530 -38.124  0.00  0.00     0.100 A 
BRANCH  28  31
ATOM     31  C   UNL d   1     -55.527-101.652 -36.259  0.00  0.00     0.126 C 
BRANCH  31  32
ATOM     32  C   UNL d   1     -56.124-101.227 -35.882  0.00  0.00     0.253 C 
ATOM     33  O   UNL d   1     -56.010-100.431 -35.705  0.00  0.00    -0.281 OA
ENDBRANCH  31  32
ENDBRANCH  28  31
ENDBRANCH  24  25
ENDBRANCH   5  24
TORSDOF 8
ENDMDL
