MODEL 1
REMARK VINA RESULT:      91.7      0.000      0.000
REMARK  6 active torsions:
REMARK  status: ('A' for Active; 'I' for Inactive)
REMARK    1  A    between atoms: C_19  and  N_1 
REMARK    2  A    between atoms: S_12  and  C_2 
REMARK       I    between atoms: N_7  and  C_10 
REMARK    3  A    between atoms: C_10  and  C_23 
REMARK    4  A    between atoms: C_23  and  S_12 
REMARK    5  A    between atoms: O_26  and  C_17 
REMARK    6  A    between atoms: O_27  and  C_18 
ROOT
ATOM      1  S   UNL d   1     -48.382  29.389  34.866  0.00  0.00    -0.044 SA
ENDROOT
BRANCH   1   2
ATOM      2  C   UNL d   1     -48.237  30.182  34.708  0.00  0.00     0.183 A 
ATOM      3  N   UNL d   1     -47.695  30.605  35.171  0.00  0.00    -0.254 N 
ATOM      4  C   UNL d   1     -47.547  31.402  35.015  0.00  0.00     0.271 A 
ATOM      5  C   UNL d   1     -47.942  31.781  34.394  0.00  0.00     0.115 A 
ATOM      6  O   UNL d   1     -47.001  31.821  35.483  0.00  0.00    -0.266 OA
ATOM      7  C   UNL d   1     -48.485  31.354  33.931  0.00  0.00     0.192 A 
ATOM      8  C   UNL d   1     -47.914  32.555  34.107  0.00  0.00     0.130 A 
ATOM      9  N   UNL d   1     -48.786  31.872  33.363  0.00  0.00    -0.128 NA
ATOM     10  N   UNL d   1     -48.631  30.561  34.088  0.00  0.00    -0.201 NA
ATOM     11  N   UNL d   1     -48.438  32.601  33.471  0.00  0.00    -0.145 NA
BRANCH   3  12
ATOM     12  C   UNL d   1     -47.302  30.228  35.788  0.00  0.00     0.069 A 
ATOM     13  C   UNL d   1     -46.507  30.026  35.707  0.00  0.00     0.018 A 
ATOM     14  C   UNL d   1     -46.110  29.645  36.331  0.00  0.00     0.002 A 
ATOM     15  C   UNL d   1     -46.514  29.471  37.029  0.00  0.00     0.000 A 
ATOM     16  C   UNL d   1     -47.306  29.673  37.108  0.00  0.00     0.002 A 
ATOM     17  C   UNL d   1     -47.702  30.054  36.484  0.00  0.00     0.018 A 
ENDBRANCH   3  12
ENDBRANCH   1   2
BRANCH   1  18
ATOM     18  C   UNL d   1     -48.968  28.987  34.447  0.00  0.00     0.099 C 
BRANCH  18  19
ATOM     19  C   UNL d   1     -48.880  28.186  34.283  0.00  0.00     0.271 C 
ATOM     20  N   UNL d   1     -49.545  27.719  34.121  0.00  0.00    -0.272 N 
ATOM     21  C   UNL d   1     -49.458  26.915  33.957  0.00  0.00     0.083 A 
ATOM     22  C   UNL d   1     -50.294  28.059  34.124  0.00  0.00     0.083 A 
ATOM     23  C   UNL d   1     -50.120  26.455  33.797  0.00  0.00     0.020 A 
ATOM     24  C   UNL d   1     -50.031  25.655  33.634  0.00  0.00     0.028 A 
ATOM     25  C   UNL d   1     -50.869  26.795  33.799  0.00  0.00     0.005 A 
ATOM     26  C   UNL d   1     -50.696  25.187  33.471  0.00  0.00     0.116 A 
ATOM     27  C   UNL d   1     -51.446  25.528  33.474  0.00  0.00     0.116 A 
ATOM     28  C   UNL d   1     -51.530  26.336  33.639  0.00  0.00     0.026 A 
ATOM     29  C   UNL d   1     -50.957  27.595  33.962  0.00  0.00     0.019 A 
ATOM     30  O   UNL d   1     -48.128  27.850  34.282  0.00  0.00    -0.266 OA
BRANCH  26  31
ATOM     31  O   UNL d   1     -50.609  24.383  33.307  0.00  0.00    -0.326 OA
ATOM     32  C   UNL d   1     -50.019  23.943  33.675  0.00  0.00     0.181 C 
ENDBRANCH  26  31
BRANCH  27  33
ATOM     33  O   UNL d   1     -52.120  25.069  33.312  0.00  0.00    -0.326 OA
ATOM     34  C   UNL d   1     -52.421  24.557  33.883  0.00  0.00     0.181 C 
ENDBRANCH  27  33
ENDBRANCH  18  19
ENDBRANCH   1  18
TORSDOF 6
ENDMDL
