MODEL 1
REMARK VINA RESULT:      -5.5      0.000      0.000
REMARK  5 active torsions:
REMARK  status: ('A' for Active; 'I' for Inactive)
REMARK    1  A    between atoms: C_2  and  S_1 
REMARK    2  A    between atoms: N_3  and  S_1 
REMARK    3  A    between atoms: C_14  and  N_3 
REMARK    4  A    between atoms: C_15  and  C_14 
REMARK    5  A    between atoms: O_18  and  C_16 
ROOT
ATOM      1  S   UNL d   1     -41.367-121.745 -51.312  0.00  0.00     0.285 S 
ATOM      2  O   UNL d   1     -41.123-121.079 -51.733  0.00  0.00    -0.198 OA
ATOM      3  O   UNL d   1     -41.272-121.337 -50.611  0.00  0.00    -0.198 OA
ENDROOT
BRANCH   1   4
ATOM      4  C   UNL d   1     -41.613-122.415 -50.898  0.00  0.00     0.107 A 
ATOM      5  C   UNL d   1     -42.344-122.425 -50.512  0.00  0.00     0.037 A 
ATOM      6  C   UNL d   1     -42.583-123.099 -50.100  0.00  0.00     0.095 A 
ATOM      7  C   UNL d   1     -42.090-123.763 -50.074  0.00  0.00     0.024 A 
ATOM      8  C   UNL d   1     -41.361-123.750 -50.460  0.00  0.00     0.003 A 
ATOM      9  C   UNL d   1     -41.123-123.076 -50.871  0.00  0.00     0.013 A 
BRANCH   6  10
ATOM     10  O   UNL d   1     -43.310-123.112 -49.715  0.00  0.00    -0.328 OA
ATOM     11  C   UNL d   1     -43.498-123.733 -49.206  0.00  0.00     0.181 C 
ENDBRANCH   6  10
ENDBRANCH   1   4
BRANCH   1  12
ATOM     12  N   UNL d   1     -41.463-122.154 -52.022  0.00  0.00    -0.157 NA
BRANCH  12  13
ATOM     13  C   UNL d   1     -41.164-121.829 -52.727  0.00  0.00     0.112 C 
BRANCH  13  14
ATOM     14  C   UNL d   1     -41.431-122.109 -53.455  0.00  0.00     0.022 A 
ATOM     15  C   UNL d   1     -41.970-121.662 -53.891  0.00  0.00     0.028 A 
ATOM     16  C   UNL d   1     -42.237-121.943 -54.619  0.00  0.00     0.119 A 
ATOM     17  O   UNL d   1     -42.763-121.626 -55.166  0.00  0.00    -0.300 OA
ATOM     18  C   UNL d   1     -41.971-122.665 -54.915  0.00  0.00     0.119 A 
ATOM     19  C   UNL d   1     -42.825-122.150 -55.802  0.00  0.00     0.304 A 
ATOM     20  O   UNL d   1     -42.326-122.792 -55.634  0.00  0.00    -0.300 OA
ATOM     21  C   UNL d   1     -41.428-123.109 -54.471  0.00  0.00     0.026 A 
ATOM     22  C   UNL d   1     -41.157-122.833 -53.741  0.00  0.00     0.004 A 
ENDBRANCH  13  14
ENDBRANCH  12  13
ENDBRANCH   1  12
TORSDOF 5
ENDMDL
