MODEL 1
REMARK VINA RESULT:     113.3      0.000      0.000
REMARK  5 active torsions:
REMARK  status: ('A' for Active; 'I' for Inactive)
REMARK    1  A    between atoms: C_16  and  N_5 
REMARK    2  A    between atoms: C_15  and  C_6 
REMARK    3  A    between atoms: C_19  and  C_16 
REMARK    4  A    between atoms: O_20  and  C_17 
REMARK    5  A    between atoms: C_22  and  C_19 
ROOT
ATOM      1  O   UNL d   1      62.108  49.650  52.306  0.00  0.00    -0.326 OA
ATOM      2  C   UNL d   1      61.918  49.593  51.499  0.00  0.00     0.118 C 
ATOM      3  C   UNL d   1      62.300  49.706  53.109  0.00  0.00     0.181 C 
ENDROOT
BRANCH   2   4
ATOM      4  C   UNL d   1      61.224  49.707  51.057  0.00  0.00     0.045 C 
BRANCH   4   5
ATOM      5  C   UNL d   1      60.836  49.285  50.450  0.00  0.00     0.086 C 
BRANCH   5   6
ATOM      6  N   UNL d   1      60.733  48.459  50.528  0.00  0.00    -0.258 N 
ATOM      7  C   UNL d   1      61.311  47.941  50.254  0.00  0.00     0.272 A 
ATOM      8  C   UNL d   1      61.204  47.128  50.334  0.00  0.00     0.137 A 
ATOM      9  O   UNL d   1      61.994  48.234  49.901  0.00  0.00    -0.266 OA
ATOM     10  C   UNL d   1      60.518  46.831  50.688  0.00  0.00     0.192 A 
ATOM     11  C   UNL d   1      61.783  46.607  50.059  0.00  0.00     0.205 A 
ATOM     12  N   UNL d   1      59.942  47.343  50.962  0.00  0.00    -0.204 NA
ATOM     13  O   UNL d   1      60.418  46.020  50.765  0.00  0.00    -0.289 OA
ATOM     14  C   UNL d   1      60.046  48.165  50.883  0.00  0.00     0.152 A 
ATOM     15  C   UNL d   1      60.999  45.504  50.489  0.00  0.00     0.107 A 
ATOM     16  C   UNL d   1      61.679  45.803  50.137  0.00  0.00     0.062 A 
ATOM     17  C   UNL d   1      60.894  44.683  50.568  0.00  0.00     0.049 A 
ATOM     18  C   UNL d   1      62.262  45.285  49.860  0.00  0.00     0.007 A 
ATOM     19  C   UNL d   1      62.154  44.470  49.941  0.00  0.00     0.024 A 
ATOM     20  C   UNL d   1      61.474  44.171  50.292  0.00  0.00     0.096 A 
ATOM     21  O   UNL d   1      62.463  46.906  49.707  0.00  0.00    -0.286 OA
BRANCH  14  22
ATOM     22  C   UNL d   1      59.465  48.681  51.159  0.00  0.00     0.035 A 
ATOM     23  C   UNL d   1      58.772  48.782  50.719  0.00  0.00     0.003 A 
ATOM     24  C   UNL d   1      58.195  49.295  50.996  0.00  0.00     0.000 A 
ATOM     25  C   UNL d   1      58.302  49.707  51.701  0.00  0.00     0.000 A 
ATOM     26  C   UNL d   1      58.995  49.603  52.136  0.00  0.00     0.000 A 
ATOM     27  C   UNL d   1      59.572  49.091  51.863  0.00  0.00     0.003 A 
ENDBRANCH  14  22
BRANCH  20  28
ATOM     28  O   UNL d   1      61.381  43.363  50.365  0.00  0.00    -0.328 OA
ATOM     29  C   UNL d   1      61.503  43.004  51.096  0.00  0.00     0.181 C 
ENDBRANCH  20  28
ENDBRANCH   5   6
ENDBRANCH   4   5
ENDBRANCH   2   4
TORSDOF 5
ENDMDL
