MODEL 1
REMARK VINA RESULT:       2.6      0.000      0.000
REMARK  5 active torsions:
REMARK  status: ('A' for Active; 'I' for Inactive)
REMARK    1  A    between atoms: C_5  and  N_1 
REMARK    2  A    between atoms: C_8  and  C_2 
REMARK    3  A    between atoms: C_7  and  C_5 
REMARK    4  A    between atoms: N_10  and  C_8 
REMARK       I    between atoms: C_9  and  N_10 
REMARK    5  A    between atoms: C_17  and  C_9 
ROOT
ATOM      1  N   UNL d   1      33.165  19.535 -22.943  0.00  0.00    -0.288 N 
ATOM      2  C   UNL d   1      33.153  20.135 -22.378  0.00  0.00     0.167 A 
ATOM      3  N   UNL d   1      33.171  20.853 -22.765  0.00  0.00    -0.225 NA
ATOM      4  C   UNL d   1      33.192  19.895 -23.686  0.00  0.00     0.083 A 
ATOM      5  C   UNL d   1      33.195  20.708 -23.572  0.00  0.00     0.099 A 
ATOM      6  C   UNL d   1      33.213  19.582 -24.450  0.00  0.00     0.019 A 
ATOM      7  C   UNL d   1      33.220  21.223 -24.221  0.00  0.00     0.021 A 
ATOM      8  C   UNL d   1      33.238  20.098 -25.095  0.00  0.00     0.002 A 
ATOM      9  C   UNL d   1      33.241  20.911 -24.985  0.00  0.00     0.002 A 
ENDROOT
BRANCH   1  10
ATOM     10  C   UNL d   1      33.154  18.726 -22.789  0.00  0.00     0.084 C 
BRANCH  10  11
ATOM     11  C   UNL d   1      32.513  18.275 -23.020  0.00  0.00     0.045 A 
ATOM     12  C   UNL d   1      32.555  17.443 -22.974  0.00  0.00     0.141 A 
ATOM     13  F   UNL d   1      33.241  17.080 -22.696  0.00  0.00    -0.204 F 
ATOM     14  C   UNL d   1      31.908  16.979 -23.206  0.00  0.00     0.030 A 
ATOM     15  C   UNL d   1      31.216  17.340 -23.486  0.00  0.00     0.002 A 
ATOM     16  C   UNL d   1      31.186  18.176 -23.528  0.00  0.00     0.000 A 
ATOM     17  C   UNL d   1      31.826  18.633 -23.298  0.00  0.00     0.004 A 
ENDBRANCH  10  11
ENDBRANCH   1  10
BRANCH   2  18
ATOM     18  C   UNL d   1      33.126  20.024 -21.559  0.00  0.00     0.140 C 
BRANCH  18  19
ATOM     19  N   UNL d   1      33.122  20.682 -21.060  0.00  0.00    -0.203 NA
ATOM     20  C   UNL d   1      32.985  20.592 -20.260  0.00  0.00     0.279 C 
ATOM     21  O   UNL d   1      32.850  19.837 -19.949  0.00  0.00    -0.265 OA
BRANCH  20  22
ATOM     22  C   UNL d   1      32.980  21.240 -19.763  0.00  0.00     0.062 C 
ATOM     23  C   UNL d   1      33.241  21.169 -19.001  0.00  0.00     0.005 C 
ENDBRANCH  20  22
ENDBRANCH  18  19
ENDBRANCH   2  18
TORSDOF 5
ENDMDL
