MODEL 1
REMARK VINA RESULT:      84.7      0.000      0.000
REMARK  5 active torsions:
REMARK  status: ('A' for Active; 'I' for Inactive)
REMARK    1  A    between atoms: C_3  and  C_1 
REMARK    2  A    between atoms: S_2  and  C_3 
REMARK    3  A    between atoms: C_8  and  S_2 
REMARK    4  A    between atoms: C_9  and  C_3 
REMARK    5  A    between atoms: N_7  and  C_4 
ROOT
ATOM      1  C   UNL d   1      60.430  48.358  50.772  0.00  0.00     0.128 A 
ATOM      2  C   UNL d   1      61.126  48.281  51.207  0.00  0.00     0.166 A 
ATOM      3  N   UNL d   1      60.258  47.825  50.172  0.00  0.00    -0.240 NA
ATOM      4  N   UNL d   1      61.653  47.662  51.037  0.00  0.00    -0.225 NA
ATOM      5  C   UNL d   1      60.780  47.216  50.007  0.00  0.00     0.099 A 
ATOM      6  C   UNL d   1      61.475  47.135  50.438  0.00  0.00     0.101 A 
ATOM      7  C   UNL d   1      61.998  46.517  50.266  0.00  0.00     0.021 A 
ATOM      8  C   UNL d   1      60.605  46.682  49.404  0.00  0.00     0.021 A 
ATOM      9  C   UNL d   1      61.819  45.989  49.665  0.00  0.00     0.002 A 
ATOM     10  C   UNL d   1      61.125  46.070  49.235  0.00  0.00     0.002 A 
ENDROOT
BRANCH   1  11
ATOM     11  C   UNL d   1      59.906  48.970  50.939  0.00  0.00     0.129 C 
BRANCH  11  12
ATOM     12  S   UNL d   1      59.489  49.357  50.251  0.00  0.00     0.213 S 
ATOM     13  O   UNL d   1      59.999  49.706  49.609  0.00  0.00    -0.217 OA
ATOM     14  O   UNL d   1      60.301  49.431  50.097  0.00  0.00    -0.217 OA
BRANCH  12  15
ATOM     15  C   UNL d   1      58.687  49.474  50.062  0.00  0.00     0.088 A 
ATOM     16  C   UNL d   1      58.119  49.482  50.659  0.00  0.00     0.011 A 
ATOM     17  C   UNL d   1      57.320  49.598  50.475  0.00  0.00     0.001 A 
ATOM     18  C   UNL d   1      56.760  49.606  51.067  0.00  0.00     0.000 C 
ATOM     19  C   UNL d   1      57.097  49.706  49.684  0.00  0.00     0.000 A 
ATOM     20  C   UNL d   1      57.675  49.697  49.081  0.00  0.00     0.001 A 
ATOM     21  C   UNL d   1      58.466  49.581  49.275  0.00  0.00     0.011 A 
ENDBRANCH  12  15
ENDBRANCH  11  12
BRANCH  11  22
ATOM     22  C   UNL d   1      59.680  49.317  51.694  0.00  0.00     0.135 C 
ATOM     23  N   UNL d   1      58.868  49.540  51.974  0.00  0.00    -0.146 N 
ENDBRANCH  11  22
ENDBRANCH   1  11
BRANCH   2  24
ATOM     24  N   UNL d   1      61.293  48.825  51.814  0.00  0.00    -0.288 N 
ATOM     25  C   UNL d   1      60.721  49.207  52.289  0.00  0.00     0.082 A 
ATOM     26  C   UNL d   1      61.129  49.705  52.825  0.00  0.00     0.021 A 
ATOM     27  C   UNL d   1      61.947  49.626  52.676  0.00  0.00     0.021 A 
ATOM     28  C   UNL d   1      62.045  49.079  52.048  0.00  0.00     0.082 A 
ENDBRANCH   2  24
TORSDOF 5
ENDMDL
