MODEL 1
REMARK VINA RESULT:      22.3      0.000      0.000
REMARK  2 active torsions:
REMARK  status: ('A' for Active; 'I' for Inactive)
REMARK    1  A    between atoms: C_6  and  C_1 
REMARK       I    between atoms: C_7  and  N_8 
REMARK    2  A    between atoms: N_8  and  C_10 
ROOT
ATOM      1  C   UNL d   1      13.563  12.400  -3.370  0.00  0.00     0.025 A 
ATOM      2  C   UNL d   1      13.341  13.162  -3.573  0.00  0.00     0.021 A 
ATOM      3  C   UNL d   1      13.010  13.313  -4.331  0.00  0.00     0.085 A 
ATOM      4  C   UNL d   1      13.454  11.788  -3.923  0.00  0.00     0.002 A 
ATOM      5  C   UNL d   1      13.140  11.934  -4.639  0.00  0.00     0.002 A 
ATOM      6  C   UNL d   1      12.906  12.698  -4.874  0.00  0.00     0.019 A 
ENDROOT
BRANCH   1   7
ATOM      7  C   UNL d   1      13.876  12.261  -2.652  0.00  0.00     0.111 A 
ATOM      8  N   UNL d   1      14.657  12.176  -2.440  0.00  0.00    -0.239 NA
ATOM      9  C   UNL d   1      14.676  12.038  -1.615  0.00  0.00     0.088 A 
ATOM     10  C   UNL d   1      15.313  11.910  -1.095  0.00  0.00     0.020 A 
ATOM     11  C   UNL d   1      13.896  12.044  -1.347  0.00  0.00     0.049 A 
ATOM     12  C   UNL d   1      15.164  11.789  -0.304  0.00  0.00     0.002 A 
ATOM     13  C   UNL d   1      14.348  11.796  -0.024  0.00  0.00     0.001 A 
ATOM     14  C   UNL d   1      13.740  11.923  -0.555  0.00  0.00     0.008 A 
ATOM     15  S   UNL d   1      13.406  12.185  -2.011  0.00  0.00    -0.066 SA
ENDBRANCH   1   7
BRANCH   3  16
ATOM     16  N   UNL d   1      12.786  14.106  -4.526  0.00  0.00    -0.208 NA
ATOM     17  C   UNL d   1      13.334  14.578  -4.930  0.00  0.00     0.279 C 
ATOM     18  O   UNL d   1      13.108  15.331  -5.110  0.00  0.00    -0.265 OA
ATOM     19  C   UNL d   1      14.073  14.297  -5.141  0.00  0.00     0.068 C 
ENDBRANCH   3  16
TORSDOF 2
ENDMDL
