MODEL 1
REMARK VINA RESULT:     176.0      0.000      0.000
REMARK  6 active torsions:
REMARK  status: ('A' for Active; 'I' for Inactive)
REMARK    1  A    between atoms: N_3  and  C_1 
REMARK       I    between atoms: C_5  and  N_3 
REMARK    2  A    between atoms: C_19  and  N_3 
REMARK    3  A    between atoms: C_8  and  C_5 
REMARK    4  A    between atoms: C_20  and  C_19 
REMARK    5  A    between atoms: C_23  and  C_20 
REMARK    6  A    between atoms: N_21  and  C_23 
ROOT
ATOM      1  N   UNL d   1     -57.058-100.494 -43.987  0.00  0.00    -0.253 N 
ATOM      2  C   UNL d   1     -57.625-100.823 -44.491  0.00  0.00     0.266 C 
ATOM      3  O   UNL d   1     -57.821-101.612 -44.434  0.00  0.00    -0.267 OA
ENDROOT
BRANCH   1   4
ATOM      4  C   UNL d   1     -56.688-100.979 -43.420  0.00  0.00     0.182 A 
ATOM      5  N   UNL d   1     -56.380-100.724 -42.698  0.00  0.00    -0.222 NA
ATOM      6  C   UNL d   1     -56.065-101.372 -42.303  0.00  0.00     0.089 A 
ATOM      7  C   UNL d   1     -55.695-101.454 -41.582  0.00  0.00     0.018 A 
ATOM      8  C   UNL d   1     -56.180-102.037 -42.786  0.00  0.00     0.050 A 
ATOM      9  C   UNL d   1     -55.432-102.191 -41.326  0.00  0.00     0.002 A 
ATOM     10  C   UNL d   1     -55.577-100.794 -41.093  0.00  0.00     0.002 C 
ATOM     11  C   UNL d   1     -55.547-102.844 -41.806  0.00  0.00     0.001 A 
ATOM     12  C   UNL d   1     -55.922-102.761 -42.535  0.00  0.00     0.008 A 
ATOM     13  S   UNL d   1     -56.565-101.795 -43.477  0.00  0.00    -0.048 SA
ENDBRANCH   1   4
BRANCH   1  14
ATOM     14  C   UNL d   1     -56.860 -99.696 -44.045  0.00  0.00     0.086 C 
BRANCH  14  15
ATOM     15  C   UNL d   1     -56.669 -99.371 -44.783  0.00  0.00     0.038 C 
BRANCH  15  16
ATOM     16  C   UNL d   1     -55.896 -99.128 -44.936  0.00  0.00     0.082 C 
BRANCH  16  17
ATOM     17  N   UNL d   1     -55.464 -99.485 -45.537  0.00  0.00    -0.300 N 
ATOM     18  C   UNL d   1     -55.492-100.302 -45.637  0.00  0.00     0.100 C 
ATOM     19  C   UNL d   1     -55.003 -99.025 -46.039  0.00  0.00     0.100 C 
ENDBRANCH  16  17
ENDBRANCH  15  16
ENDBRANCH  14  15
ENDBRANCH   1  14
BRANCH   2  20
ATOM     20  C   UNL d   1     -57.989-100.339 -45.052  0.00  0.00     0.057 A 
ATOM     21  C   UNL d   1     -58.801-100.202 -45.023  0.00  0.00     0.013 A 
ATOM     22  C   UNL d   1     -59.148 -99.713 -45.596  0.00  0.00     0.049 A 
ATOM     23  S   UNL d   1     -59.936 -99.481 -45.702  0.00  0.00    -0.064 SA
ATOM     24  C   UNL d   1     -58.692 -99.366 -46.190  0.00  0.00     0.088 A 
ATOM     25  C   UNL d   1     -59.960 -98.988 -46.367  0.00  0.00     0.135 A 
ATOM     26  N   UNL d   1     -59.191 -98.918 -46.666  0.00  0.00    -0.236 NA
ATOM     27  C   UNL d   1     -57.880 -99.503 -46.218  0.00  0.00     0.020 A 
ATOM     28  C   UNL d   1     -57.524 -99.988 -45.653  0.00  0.00     0.006 A 
ENDBRANCH   2  20
TORSDOF 6
ENDMDL
