MODEL 1
REMARK VINA RESULT:      -2.9      0.000      0.000
REMARK  6 active torsions:
REMARK  status: ('A' for Active; 'I' for Inactive)
REMARK    1  A    between atoms: C_13  and  C_3 
REMARK    2  A    between atoms: N_16  and  C_4 
REMARK    3  A    between atoms: N_11  and  C_17 
REMARK    4  A    between atoms: C_20  and  N_16 
REMARK    5  A    between atoms: C_17  and  C_18 
REMARK    6  A    between atoms: C_18  and  C_20 
ROOT
ATOM      1  C   UNL d   1      56.532  -0.477  32.635  0.00  0.00     0.167 A 
ATOM      2  N   UNL d   1      56.619  -1.006  32.010  0.00  0.00    -0.195 N 
ATOM      3  C   UNL d   1      55.824  -0.643  33.009  0.00  0.00     0.057 A 
ATOM      4  C   UNL d   1      57.287  -0.971  31.530  0.00  0.00     0.167 A 
ATOM      5  N   UNL d   1      55.963  -1.496  32.003  0.00  0.00    -0.161 NA
ATOM      6  N   UNL d   1      57.113   0.089  32.780  0.00  0.00    -0.227 NA
ATOM      7  C   UNL d   1      57.870  -0.401  31.677  0.00  0.00     0.058 A 
ATOM      8  C   UNL d   1      55.475  -1.277  32.612  0.00  0.00     0.124 A 
ATOM      9  C   UNL d   1      57.784   0.123  32.296  0.00  0.00     0.086 A 
ATOM     10  C   UNL d   1      58.379   0.682  32.424  0.00  0.00     0.021 C 
ENDROOT
BRANCH   4  11
ATOM     11  N   UNL d   1      57.374  -1.501  30.905  0.00  0.00    -0.225 NA
BRANCH  11  12
ATOM     12  C   UNL d   1      57.915  -1.344  30.304  0.00  0.00     0.102 C 
BRANCH  12  13
ATOM     13  C   UNL d   1      58.193  -1.964  29.822  0.00  0.00     0.040 C 
BRANCH  13  14
ATOM     14  C   UNL d   1      58.744  -1.807  29.234  0.00  0.00     0.083 C 
BRANCH  14  15
ATOM     15  N   UNL d   1      59.323  -2.372  29.051  0.00  0.00    -0.285 N 
ATOM     16  C   UNL d   1      59.376  -3.192  29.192  0.00  0.00     0.183 A 
ATOM     17  N   UNL d   1      60.079  -3.456  28.883  0.00  0.00    -0.222 NA
ATOM     18  C   UNL d   1      60.476  -2.822  28.548  0.00  0.00     0.120 A 
ATOM     19  C   UNL d   1      60.009  -2.149  28.651  0.00  0.00     0.102 A 
ENDBRANCH  14  15
ENDBRANCH  13  14
ENDBRANCH  12  13
ENDBRANCH  11  12
ENDBRANCH   4  11
BRANCH   3  20
ATOM     20  C   UNL d   1      55.577  -0.202  33.664  0.00  0.00     0.004 A 
ATOM     21  C   UNL d   1      54.855   0.201  33.632  0.00  0.00     0.000 A 
ATOM     22  C   UNL d   1      54.605   0.641  34.279  0.00  0.00     0.000 A 
ATOM     23  C   UNL d   1      55.075   0.682  34.965  0.00  0.00     0.000 A 
ATOM     24  C   UNL d   1      55.792   0.277  34.987  0.00  0.00     0.000 A 
ATOM     25  C   UNL d   1      56.042  -0.165  34.335  0.00  0.00     0.000 A 
ENDBRANCH   3  20
TORSDOF 6
ENDMDL
MODEL 2
REMARK VINA RESULT:      -2.4      1.287      5.626
REMARK  6 active torsions:
REMARK  status: ('A' for Active; 'I' for Inactive)
REMARK    1  A    between atoms: C_13  and  C_3 
REMARK    2  A    between atoms: N_16  and  C_4 
REMARK    3  A    between atoms: N_11  and  C_17 
REMARK    4  A    between atoms: C_20  and  N_16 
REMARK    5  A    between atoms: C_17  and  C_18 
REMARK    6  A    between atoms: C_18  and  C_20 
ROOT
ATOM      1  C   UNL d   1      59.192  -1.287  29.640  0.00  0.00     0.167 A 
ATOM      2  N   UNL d   1      58.443  -1.044  29.883  0.00  0.00    -0.195 N 
ATOM      3  C   UNL d   1      59.141  -2.075  29.422  0.00  0.00     0.057 A 
ATOM      4  C   UNL d   1      58.324  -0.269  30.136  0.00  0.00     0.167 A 
ATOM      5  N   UNL d   1      57.936  -1.683  29.815  0.00  0.00    -0.161 NA
ATOM      6  N   UNL d   1      59.821  -0.756  29.648  0.00  0.00    -0.227 NA
ATOM      7  C   UNL d   1      58.959   0.263  30.144  0.00  0.00     0.058 A 
ATOM      8  C   UNL d   1      58.359  -2.315  29.534  0.00  0.00     0.124 A 
ATOM      9  C   UNL d   1      59.699   0.022  29.903  0.00  0.00     0.086 A 
ATOM     10  C   UNL d   1      60.317   0.570  29.919  0.00  0.00     0.021 C 
ENDROOT
BRANCH   4  11
ATOM     11  N   UNL d   1      57.576  -0.025  30.380  0.00  0.00    -0.225 NA
BRANCH  11  12
ATOM     12  C   UNL d   1      57.488   0.391  31.085  0.00  0.00     0.102 C 
BRANCH  12  13
ATOM     13  C   UNL d   1      56.781   0.328  31.521  0.00  0.00     0.040 C 
BRANCH  13  14
ATOM     14  C   UNL d   1      56.809   0.278  32.339  0.00  0.00     0.083 C 
BRANCH  14  15
ATOM     15  N   UNL d   1      56.124   0.084  32.765  0.00  0.00    -0.285 N 
ATOM     16  C   UNL d   1      55.763  -0.644  32.950  0.00  0.00     0.183 A 
ATOM     17  N   UNL d   1      55.096  -0.490  33.386  0.00  0.00    -0.222 NA
ATOM     18  C   UNL d   1      55.023   0.321  33.482  0.00  0.00     0.120 A 
ATOM     19  C   UNL d   1      55.660   0.678  33.098  0.00  0.00     0.102 A 
ENDBRANCH  14  15
ENDBRANCH  13  14
ENDBRANCH  12  13
ENDBRANCH  11  12
ENDBRANCH   4  11
BRANCH   3  20
ATOM     20  C   UNL d   1      59.808  -2.482  29.150  0.00  0.00     0.004 A 
ATOM     21  C   UNL d   1      59.878  -3.292  29.303  0.00  0.00     0.000 A 
ATOM     22  C   UNL d   1      60.537  -3.703  29.036  0.00  0.00     0.000 A 
ATOM     23  C   UNL d   1      61.133  -3.305  28.612  0.00  0.00     0.000 A 
ATOM     24  C   UNL d   1      61.055  -2.499  28.464  0.00  0.00     0.000 A 
ATOM     25  C   UNL d   1      60.391  -2.088  28.734  0.00  0.00     0.000 A 
ENDBRANCH   3  20
TORSDOF 6
ENDMDL
MODEL 3
REMARK VINA RESULT:      -0.4      1.773      5.573
REMARK  6 active torsions:
REMARK  status: ('A' for Active; 'I' for Inactive)
REMARK    1  A    between atoms: C_13  and  C_3 
REMARK    2  A    between atoms: N_16  and  C_4 
REMARK    3  A    between atoms: N_11  and  C_17 
REMARK    4  A    between atoms: C_20  and  N_16 
REMARK    5  A    between atoms: C_17  and  C_18 
REMARK    6  A    between atoms: C_18  and  C_20 
ROOT
ATOM      1  C   UNL d   1      58.592   0.327  30.442  0.00  0.00     0.167 A 
ATOM      2  N   UNL d   1      57.788   0.417  30.599  0.00  0.00    -0.195 N 
ATOM      3  C   UNL d   1      58.674   0.159  29.645  0.00  0.00     0.057 A 
ATOM      4  C   UNL d   1      57.535   0.591  31.363  0.00  0.00     0.167 A 
ATOM      5  N   UNL d   1      57.381   0.304  29.898  0.00  0.00    -0.161 NA
ATOM      6  N   UNL d   1      59.142   0.411  31.049  0.00  0.00    -0.227 NA
ATOM      7  C   UNL d   1      58.091   0.675  31.972  0.00  0.00     0.058 A 
ATOM      8  C   UNL d   1      57.919   0.146  29.313  0.00  0.00     0.124 A 
ATOM      9  C   UNL d   1      58.886   0.586  31.816  0.00  0.00     0.086 A 
ATOM     10  C   UNL d   1      59.421   0.674  32.439  0.00  0.00     0.021 C 
ENDROOT
BRANCH   4  11
ATOM     11  N   UNL d   1      56.731   0.681  31.521  0.00  0.00    -0.225 NA
BRANCH  11  12
ATOM     12  C   UNL d   1      56.444   0.555  32.282  0.00  0.00     0.102 C 
BRANCH  12  13
ATOM     13  C   UNL d   1      55.668   0.271  32.393  0.00  0.00     0.040 C 
BRANCH  13  14
ATOM     14  C   UNL d   1      55.509  -0.251  33.005  0.00  0.00     0.083 C 
BRANCH  14  15
ATOM     15  N   UNL d   1      55.396   0.037  33.774  0.00  0.00    -0.285 N 
ATOM     16  C   UNL d   1      55.860  -0.005  34.466  0.00  0.00     0.183 A 
ATOM     17  N   UNL d   1      55.464   0.382  35.059  0.00  0.00    -0.222 NA
ATOM     18  C   UNL d   1      54.757   0.670  34.762  0.00  0.00     0.120 A 
ATOM     19  C   UNL d   1      54.713   0.457  33.965  0.00  0.00     0.102 A 
ENDBRANCH  14  15
ENDBRANCH  13  14
ENDBRANCH  12  13
ENDBRANCH  11  12
ENDBRANCH   4  11
BRANCH   3  20
ATOM     20  C   UNL d   1      59.423   0.038  29.314  0.00  0.00     0.004 A 
ATOM     21  C   UNL d   1      59.808  -0.684  29.438  0.00  0.00     0.000 A 
ATOM     22  C   UNL d   1      60.551  -0.811  29.113  0.00  0.00     0.000 A 
ATOM     23  C   UNL d   1      60.917  -0.216  28.659  0.00  0.00     0.000 A 
ATOM     24  C   UNL d   1      60.526   0.499  28.542  0.00  0.00     0.000 A 
ATOM     25  C   UNL d   1      59.779   0.625  28.870  0.00  0.00     0.000 A 
ENDBRANCH   3  20
TORSDOF 6
ENDMDL
