MODEL 1
REMARK VINA RESULT:     107.6      0.000      0.000
REMARK  5 active torsions:
REMARK  status: ('A' for Active; 'I' for Inactive)
REMARK    1  A    between atoms: N_6  and  S_1 
REMARK    2  A    between atoms: C_7  and  S_1 
REMARK    3  A    between atoms: C_9  and  C_2 
REMARK       I    between atoms: N_16  and  C_9 
REMARK    4  A    between atoms: C_26  and  N_16 
REMARK    5  A    between atoms: C_18  and  C_26 
ROOT
ATOM      1  C   UNL d   1      61.164  47.624  50.403  0.00  0.00     0.158 A 
ATOM      2  C   UNL d   1      61.136  46.985  50.928  0.00  0.00     0.029 A 
ATOM      3  O   UNL d   1      61.530  47.369  49.716  0.00  0.00    -0.302 OA
ATOM      4  C   UNL d   1      61.486  46.356  50.549  0.00  0.00     0.026 A 
ATOM      5  C   UNL d   1      61.984  45.023  50.325  0.00  0.00     0.104 A 
ATOM      6  C   UNL d   1      61.734  46.581  49.797  0.00  0.00     0.100 A 
ATOM      7  C   UNL d   1      61.612  45.569  50.816  0.00  0.00     0.015 A 
ATOM      8  C   UNL d   1      62.233  45.259  49.564  0.00  0.00     0.015 A 
ATOM      9  C   UNL d   1      62.104  46.037  49.311  0.00  0.00     0.025 A 
ATOM     10  C   UNL d   1      60.813  47.001  51.686  0.00  0.00     0.002 C 
ENDROOT
BRANCH   1  11
ATOM     11  C   UNL d   1      60.850  48.352  50.626  0.00  0.00     0.302 C 
ATOM     12  N   UNL d   1      60.077  48.548  50.411  0.00  0.00    -0.203 NA
ATOM     13  O   UNL d   1      61.291  48.890  51.060  0.00  0.00    -0.263 OA
BRANCH  12  14
ATOM     14  C   UNL d   1      59.752  49.276  50.630  0.00  0.00     0.129 C 
BRANCH  14  15
ATOM     15  C   UNL d   1      58.924  49.385  50.646  0.00  0.00     0.144 A 
ATOM     16  O   UNL d   1      58.489  49.380  49.934  0.00  0.00    -0.301 OA
ATOM     17  C   UNL d   1      57.676  49.486  49.954  0.00  0.00     0.123 A 
ATOM     18  C   UNL d   1      57.233  49.483  49.255  0.00  0.00     0.027 A 
ATOM     19  C   UNL d   1      57.286  49.599  50.668  0.00  0.00     0.123 A 
ATOM     20  C   UNL d   1      56.417  49.589  49.264  0.00  0.00     0.002 A 
ATOM     21  C   UNL d   1      56.039  49.702  49.993  0.00  0.00     0.002 A 
ATOM     22  C   UNL d   1      56.467  49.707  50.693  0.00  0.00     0.027 A 
ATOM     23  O   UNL d   1      57.734  49.602  51.373  0.00  0.00    -0.301 OA
ATOM     24  C   UNL d   1      58.542  49.497  51.369  0.00  0.00     0.149 A 
ENDBRANCH  14  15
ENDBRANCH  12  14
ENDBRANCH   1  11
BRANCH   5  25
ATOM     25  S   UNL d   1      62.107  44.247  50.589  0.00  0.00     0.272 S 
ATOM     26  O   UNL d   1      62.869  44.257  50.262  0.00  0.00    -0.200 OA
ATOM     27  O   UNL d   1      61.336  44.234  50.922  0.00  0.00    -0.200 OA
BRANCH  25  28
ATOM     28  N   UNL d   1      62.234  43.461  50.857  0.00  0.00    -0.225 N 
ATOM     29  C   UNL d   1      62.734  42.973  50.427  0.00  0.00     0.118 A 
ATOM     30  C   UNL d   1      62.867  42.196  50.679  0.00  0.00     0.142 A 
ATOM     31  O   UNL d   1      62.484  41.912  51.382  0.00  0.00    -0.300 OA
ATOM     32  C   UNL d   1      61.984  42.419  51.801  0.00  0.00     0.142 A 
ATOM     33  C   UNL d   1      61.861  43.189  51.538  0.00  0.00     0.118 A 
ENDBRANCH  25  28
ENDBRANCH   5  25
TORSDOF 5
ENDMDL
