MODEL 1
REMARK VINA RESULT:       9.9      0.000      0.000
REMARK  3 active torsions:
REMARK  status: ('A' for Active; 'I' for Inactive)
REMARK    1  A    between atoms: C_6  and  N_1 
REMARK    2  A    between atoms: C_7  and  C_6 
REMARK    3  A    between atoms: C_8  and  C_7 
ROOT
ATOM      1  N   UNL d   1      46.419 -18.090  43.197  0.00  0.00    -0.305 N 
ATOM      2  C   UNL d   1      46.471 -18.288  42.400  0.00  0.00     0.064 A 
ATOM      3  C   UNL d   1      46.469 -18.744  43.968  0.00  0.00     0.064 A 
ATOM      4  C   UNL d   1      46.558 -19.078  42.589  0.00  0.00     0.018 A 
ATOM      5  C   UNL d   1      46.558 -19.313  43.375  0.00  0.00     0.018 A 
ATOM      6  C   UNL d   1      46.468 -18.964  44.752  0.00  0.00     0.018 A 
ATOM      7  C   UNL d   1      46.471 -18.051  41.607  0.00  0.00     0.018 A 
ATOM      8  C   UNL d   1      46.646 -19.646  41.988  0.00  0.00     0.002 A 
ATOM      9  C   UNL d   1      46.645 -20.105  43.573  0.00  0.00     0.002 A 
ATOM     10  C   UNL d   1      46.643 -20.330  44.370  0.00  0.00     0.000 A 
ATOM     11  C   UNL d   1      46.559 -18.609  41.003  0.00  0.00     0.002 A 
ATOM     12  C   UNL d   1      46.555 -19.759  44.955  0.00  0.00     0.002 A 
ATOM     13  C   UNL d   1      46.646 -19.411  41.203  0.00  0.00     0.000 A 
ENDROOT
BRANCH   1  14
ATOM     14  C   UNL d   1      46.318 -17.300  43.420  0.00  0.00     0.086 C 
BRANCH  14  15
ATOM     15  C   UNL d   1      45.813 -17.082  44.035  0.00  0.00     0.089 C 
BRANCH  15  16
ATOM     16  C   UNL d   1      45.698 -16.281  44.205  0.00  0.00     0.213 C 
ATOM     17  O   UNL d   1      45.141 -16.057  44.773  0.00  0.00    -0.644 OA
ATOM     18  O   UNL d   1      46.137 -15.706  43.810  0.00  0.00    -0.644 OA
ENDBRANCH  15  16
ENDBRANCH  14  15
ENDBRANCH   1  14
TORSDOF 3
ENDMDL
