MODEL 1
REMARK VINA RESULT:      -7.4      0.000      0.000
REMARK  8 active torsions:
REMARK  status: ('A' for Active; 'I' for Inactive)
REMARK    1  A    between atoms: C_5  and  C_1 
REMARK    2  A    between atoms: N_6  and  C_2 
REMARK    3  A    between atoms: C_7  and  C_5 
REMARK    4  A    between atoms: C_8  and  C_5 
REMARK    5  A    between atoms: O_13  and  C_7 
REMARK    6  A    between atoms: C_12  and  C_16 
REMARK    7  A    between atoms: C_22  and  O_13 
REMARK    8  A    between atoms: C_25  and  C_22 
ROOT
ATOM      1  C   UNL d   1      49.662  34.780  52.755  0.00  0.00     0.296 C 
ATOM      2  O   UNL d   1      49.296  35.140  53.405  0.00  0.00    -0.259 OA
ATOM      3  O   UNL d   1      49.274  34.758  52.028  0.00  0.00    -0.296 OA
ATOM      4  C   UNL d   1      48.885  34.735  51.300  0.00  0.00     0.185 C 
ENDROOT
BRANCH   1   5
ATOM      5  C   UNL d   1      50.412  34.447  52.837  0.00  0.00     0.065 A 
ATOM      6  C   UNL d   1      51.298  34.331  52.907  0.00  0.00     0.018 A 
ATOM      7  C   UNL d   1      51.238  33.303  53.008  0.00  0.00     0.057 A 
ATOM      8  N   UNL d   1      51.707  32.836  53.087  0.00  0.00    -0.192 NA
ATOM      9  C   UNL d   1      50.887  32.909  53.026  0.00  0.00     0.057 A 
ATOM     10  C   UNL d   1      50.917  34.007  52.915  0.00  0.00     0.018 A 
BRANCH   8  11
ATOM     11  C   UNL d   1      52.128  32.133  53.186  0.00  0.00     0.145 A 
ATOM     12  C   UNL d   1      52.903  32.323  53.373  0.00  0.00     0.117 A 
ATOM     13  N   UNL d   1      53.455  31.722  53.504  0.00  0.00    -0.241 NA
ATOM     14  C   UNL d   1      53.231  30.938  53.448  0.00  0.00     0.099 A 
ATOM     15  C   UNL d   1      52.447  30.739  53.260  0.00  0.00     0.100 A 
ATOM     16  C   UNL d   1      53.775  30.340  53.578  0.00  0.00     0.021 A 
ATOM     17  C   UNL d   1      52.219  29.946  53.204  0.00  0.00     0.021 A 
ATOM     18  N   UNL d   1      51.896  31.340  53.129  0.00  0.00    -0.230 NA
ATOM     19  C   UNL d   1      52.771  29.357  53.335  0.00  0.00     0.002 A 
ATOM     20  C   UNL d   1      53.554  29.547  53.523  0.00  0.00     0.002 A 
BRANCH  12  21
ATOM     21  C   UNL d   1      52.967  33.147  53.389  0.00  0.00     0.104 C 
BRANCH  21  22
ATOM     22  C   UNL d   1      53.134  33.610  54.062  0.00  0.00     0.303 C 
ATOM     23  O   UNL d   1      52.517  33.928  54.504  0.00  0.00    -0.259 OA
BRANCH  22  24
ATOM     24  O   UNL d   1      53.918  33.747  54.281  0.00  0.00    -0.271 OA
BRANCH  24  25
ATOM     25  C   UNL d   1      54.092  34.050  55.027  0.00  0.00     0.126 C 
BRANCH  25  26
ATOM     26  C   UNL d   1      54.844  33.955  55.347  0.00  0.00     0.025 C 
ATOM     27  C   UNL d   1      55.500  34.244  54.947  0.00  0.00     0.002 C 
ATOM     28  C   UNL d   1      54.937  33.569  56.070  0.00  0.00     0.002 C 
ENDBRANCH  25  26
ENDBRANCH  24  25
ENDBRANCH  22  24
ENDBRANCH  21  22
BRANCH  21  29
ATOM     29  C   UNL d   1      52.838  33.431  52.630  0.00  0.00     0.129 C 
ATOM     30  N   UNL d   1      53.403  33.776  52.130  0.00  0.00    -0.146 N 
ENDBRANCH  21  29
ENDBRANCH  12  21
ENDBRANCH   8  11
ENDBRANCH   1   5
TORSDOF 8
ENDMDL
MODEL 2
REMARK VINA RESULT:      -7.0      1.058      3.016
REMARK  8 active torsions:
REMARK  status: ('A' for Active; 'I' for Inactive)
REMARK    1  A    between atoms: C_5  and  C_1 
REMARK    2  A    between atoms: N_6  and  C_2 
REMARK    3  A    between atoms: C_7  and  C_5 
REMARK    4  A    between atoms: C_8  and  C_5 
REMARK    5  A    between atoms: O_13  and  C_7 
REMARK    6  A    between atoms: C_12  and  C_16 
REMARK    7  A    between atoms: C_22  and  O_13 
REMARK    8  A    between atoms: C_25  and  C_22 
ROOT
ATOM      1  C   UNL d   1      49.372  34.806  52.553  0.00  0.00     0.296 C 
ATOM      2  O   UNL d   1      49.093  35.286  53.167  0.00  0.00    -0.259 OA
ATOM      3  O   UNL d   1      48.973  34.793  51.831  0.00  0.00    -0.296 OA
ATOM      4  C   UNL d   1      48.575  34.780  51.109  0.00  0.00     0.185 C 
ENDROOT
BRANCH   1   5
ATOM      5  C   UNL d   1      50.045  34.344  52.666  0.00  0.00     0.065 A 
ATOM      6  C   UNL d   1      50.657  33.690  52.621  0.00  0.00     0.018 A 
ATOM      7  C   UNL d   1      51.304  34.137  53.293  0.00  0.00     0.057 A 
ATOM      8  N   UNL d   1      51.897  33.948  53.530  0.00  0.00    -0.192 NA
ATOM      9  C   UNL d   1      51.354  34.567  53.595  0.00  0.00     0.057 A 
ATOM     10  C   UNL d   1      50.642  34.117  52.882  0.00  0.00     0.018 A 
BRANCH   8  11
ATOM     11  C   UNL d   1      52.619  33.889  53.928  0.00  0.00     0.145 A 
ATOM     12  C   UNL d   1      52.993  33.203  53.678  0.00  0.00     0.117 A 
ATOM     13  N   UNL d   1      53.732  33.001  53.987  0.00  0.00    -0.241 NA
ATOM     14  C   UNL d   1      54.093  33.483  54.540  0.00  0.00     0.099 A 
ATOM     15  C   UNL d   1      53.720  34.179  54.796  0.00  0.00     0.100 A 
ATOM     16  C   UNL d   1      54.825  33.286  54.847  0.00  0.00     0.021 A 
ATOM     17  C   UNL d   1      54.083  34.667  55.356  0.00  0.00     0.021 A 
ATOM     18  N   UNL d   1      52.980  34.380  54.488  0.00  0.00    -0.230 NA
ATOM     19  C   UNL d   1      54.816  34.460  55.657  0.00  0.00     0.002 A 
ATOM     20  C   UNL d   1      55.195  33.768  55.406  0.00  0.00     0.002 A 
BRANCH  12  21
ATOM     21  C   UNL d   1      52.504  32.833  53.124  0.00  0.00     0.104 C 
BRANCH  21  22
ATOM     22  C   UNL d   1      52.143  32.088  53.213  0.00  0.00     0.303 C 
ATOM     23  O   UNL d   1      51.381  32.035  53.522  0.00  0.00    -0.259 OA
BRANCH  22  24
ATOM     24  O   UNL d   1      52.550  31.405  52.991  0.00  0.00    -0.271 OA
BRANCH  24  25
ATOM     25  C   UNL d   1      52.282  30.665  53.235  0.00  0.00     0.126 C 
BRANCH  25  26
ATOM     26  C   UNL d   1      52.754  30.000  53.133  0.00  0.00     0.025 C 
ATOM     27  C   UNL d   1      52.927  29.731  52.378  0.00  0.00     0.002 C 
ATOM     28  C   UNL d   1      53.054  29.603  53.792  0.00  0.00     0.002 C 
ENDBRANCH  25  26
ENDBRANCH  24  25
ENDBRANCH  22  24
ENDBRANCH  21  22
BRANCH  21  29
ATOM     29  C   UNL d   1      52.436  33.325  52.470  0.00  0.00     0.129 C 
ATOM     30  N   UNL d   1      52.873  33.274  51.767  0.00  0.00    -0.146 N 
ENDBRANCH  21  29
ENDBRANCH  12  21
ENDBRANCH   8  11
ENDBRANCH   1   5
TORSDOF 8
ENDMDL
MODEL 3
REMARK VINA RESULT:      -6.7      1.567      3.993
REMARK  8 active torsions:
REMARK  status: ('A' for Active; 'I' for Inactive)
REMARK    1  A    between atoms: C_5  and  C_1 
REMARK    2  A    between atoms: N_6  and  C_2 
REMARK    3  A    between atoms: C_7  and  C_5 
REMARK    4  A    between atoms: C_8  and  C_5 
REMARK    5  A    between atoms: O_13  and  C_7 
REMARK    6  A    between atoms: C_12  and  C_16 
REMARK    7  A    between atoms: C_22  and  O_13 
REMARK    8  A    between atoms: C_25  and  C_22 
ROOT
ATOM      1  C   UNL d   1      53.108  29.053  53.739  0.00  0.00     0.296 C 
ATOM      2  O   UNL d   1      52.794  28.582  53.134  0.00  0.00    -0.259 OA
ATOM      3  O   UNL d   1      53.335  28.705  54.452  0.00  0.00    -0.296 OA
ATOM      4  C   UNL d   1      53.561  28.358  55.165  0.00  0.00     0.185 C 
ENDROOT
BRANCH   1   5
ATOM      5  C   UNL d   1      53.194  29.865  53.625  0.00  0.00     0.065 A 
ATOM      6  C   UNL d   1      53.536  30.687  53.518  0.00  0.00     0.018 A 
ATOM      7  C   UNL d   1      52.614  31.148  53.425  0.00  0.00     0.057 A 
ATOM      8  N   UNL d   1      52.445  31.785  53.329  0.00  0.00    -0.192 NA
ATOM      9  C   UNL d   1      52.097  31.041  53.425  0.00  0.00     0.057 A 
ATOM     10  C   UNL d   1      53.064  30.520  53.528  0.00  0.00     0.018 A 
BRANCH   8  11
ATOM     11  C   UNL d   1      52.044  32.498  53.215  0.00  0.00     0.145 A 
ATOM     12  C   UNL d   1      52.568  33.111  53.369  0.00  0.00     0.117 A 
ATOM     13  N   UNL d   1      52.315  33.894  53.298  0.00  0.00    -0.241 NA
ATOM     14  C   UNL d   1      51.547  34.062  53.076  0.00  0.00     0.099 A 
ATOM     15  C   UNL d   1      51.013  33.445  52.919  0.00  0.00     0.100 A 
ATOM     16  C   UNL d   1      51.294  34.837  53.005  0.00  0.00     0.021 A 
ATOM     17  C   UNL d   1      50.235  33.613  52.694  0.00  0.00     0.021 A 
ATOM     18  N   UNL d   1      51.265  32.662  52.990  0.00  0.00    -0.230 NA
ATOM     19  C   UNL d   1      49.993  34.391  52.627  0.00  0.00     0.002 A 
ATOM     20  C   UNL d   1      50.519  35.012  52.781  0.00  0.00     0.002 A 
BRANCH  12  21
ATOM     21  C   UNL d   1      53.295  32.780  53.578  0.00  0.00     0.104 C 
BRANCH  21  22
ATOM     22  C   UNL d   1      53.635  32.791  54.339  0.00  0.00     0.303 C 
ATOM     23  O   UNL d   1      53.239  32.442  54.971  0.00  0.00    -0.259 OA
BRANCH  22  24
ATOM     24  O   UNL d   1      54.368  33.152  54.455  0.00  0.00    -0.271 OA
BRANCH  24  25
ATOM     25  C   UNL d   1      54.655  33.271  55.217  0.00  0.00     0.126 C 
BRANCH  25  26
ATOM     26  C   UNL d   1      55.231  33.841  55.359  0.00  0.00     0.025 C 
ATOM     27  C   UNL d   1      55.154  34.352  55.997  0.00  0.00     0.002 C 
ATOM     28  C   UNL d   1      55.885  33.898  54.859  0.00  0.00     0.002 C 
ENDBRANCH  25  26
ENDBRANCH  24  25
ENDBRANCH  22  24
ENDBRANCH  21  22
BRANCH  21  29
ATOM     29  C   UNL d   1      53.625  32.438  52.909  0.00  0.00     0.129 C 
ATOM     30  N   UNL d   1      54.252  32.742  52.459  0.00  0.00    -0.146 N 
ENDBRANCH  21  29
ENDBRANCH  12  21
ENDBRANCH   8  11
ENDBRANCH   1   5
TORSDOF 8
ENDMDL
MODEL 4
REMARK VINA RESULT:      -5.0      1.694      4.657
REMARK  8 active torsions:
REMARK  status: ('A' for Active; 'I' for Inactive)
REMARK    1  A    between atoms: C_5  and  C_1 
REMARK    2  A    between atoms: N_6  and  C_2 
REMARK    3  A    between atoms: C_7  and  C_5 
REMARK    4  A    between atoms: C_8  and  C_5 
REMARK    5  A    between atoms: O_13  and  C_7 
REMARK    6  A    between atoms: C_12  and  C_16 
REMARK    7  A    between atoms: C_22  and  O_13 
REMARK    8  A    between atoms: C_25  and  C_22 
ROOT
ATOM      1  C   UNL d   1      52.867  30.319  52.740  0.00  0.00     0.296 C 
ATOM      2  O   UNL d   1      53.119  30.045  52.001  0.00  0.00    -0.259 OA
ATOM      3  O   UNL d   1      52.915  29.825  53.398  0.00  0.00    -0.296 OA
ATOM      4  C   UNL d   1      52.964  29.330  54.056  0.00  0.00     0.185 C 
ENDROOT
BRANCH   1   5
ATOM      5  C   UNL d   1      52.569  31.084  52.815  0.00  0.00     0.065 A 
ATOM      6  C   UNL d   1      52.058  31.819  52.748  0.00  0.00     0.018 A 
ATOM      7  C   UNL d   1      52.680  32.404  53.332  0.00  0.00     0.057 A 
ATOM      8  N   UNL d   1      52.639  33.041  53.523  0.00  0.00    -0.192 NA
ATOM      9  C   UNL d   1      53.131  32.382  53.605  0.00  0.00     0.057 A 
ATOM     10  C   UNL d   1      52.490  31.732  52.986  0.00  0.00     0.018 A 
BRANCH   8  11
ATOM     11  C   UNL d   1      52.765  33.787  53.855  0.00  0.00     0.145 A 
ATOM     12  C   UNL d   1      52.243  34.313  53.502  0.00  0.00     0.117 A 
ATOM     13  N   UNL d   1      52.245  35.108  53.729  0.00  0.00    -0.241 NA
ATOM     14  C   UNL d   1      52.764  35.372  54.302  0.00  0.00     0.099 A 
ATOM     15  C   UNL d   1      53.294  34.843  54.663  0.00  0.00     0.100 A 
ATOM     16  C   UNL d   1      52.768  36.158  54.528  0.00  0.00     0.021 A 
ATOM     17  C   UNL d   1      53.820  35.109  55.243  0.00  0.00     0.021 A 
ATOM     18  N   UNL d   1      53.292  34.049  54.436  0.00  0.00    -0.230 NA
ATOM     19  C   UNL d   1      53.815  35.898  55.461  0.00  0.00     0.002 A 
ATOM     20  C   UNL d   1      53.290  36.431  55.107  0.00  0.00     0.002 A 
BRANCH  12  21
ATOM     21  C   UNL d   1      51.792  33.895  52.951  0.00  0.00     0.104 C 
BRANCH  21  22
ATOM     22  C   UNL d   1      50.978  33.732  53.010  0.00  0.00     0.303 C 
ATOM     23  O   UNL d   1      50.708  33.186  53.564  0.00  0.00    -0.259 OA
BRANCH  22  24
ATOM     24  O   UNL d   1      50.444  34.118  52.512  0.00  0.00    -0.271 OA
BRANCH  24  25
ATOM     25  C   UNL d   1      49.650  34.175  52.720  0.00  0.00     0.126 C 
BRANCH  25  26
ATOM     26  C   UNL d   1      49.148  34.679  52.306  0.00  0.00     0.025 C 
ATOM     27  C   UNL d   1      48.828  35.336  52.678  0.00  0.00     0.002 C 
ATOM     28  C   UNL d   1      48.969  34.522  51.516  0.00  0.00     0.002 C 
ENDBRANCH  25  26
ENDBRANCH  24  25
ENDBRANCH  22  24
ENDBRANCH  21  22
BRANCH  21  29
ATOM     29  C   UNL d   1      52.285  33.669  52.333  0.00  0.00     0.129 C 
ATOM     30  N   UNL d   1      52.376  34.059  51.608  0.00  0.00    -0.146 N 
ENDBRANCH  21  29
ENDBRANCH  12  21
ENDBRANCH   8  11
ENDBRANCH   1   5
TORSDOF 8
ENDMDL
MODEL 5
REMARK VINA RESULT:      -5.0      1.546      4.481
REMARK  8 active torsions:
REMARK  status: ('A' for Active; 'I' for Inactive)
REMARK    1  A    between atoms: C_5  and  C_1 
REMARK    2  A    between atoms: N_6  and  C_2 
REMARK    3  A    between atoms: C_7  and  C_5 
REMARK    4  A    between atoms: C_8  and  C_5 
REMARK    5  A    between atoms: O_13  and  C_7 
REMARK    6  A    between atoms: C_12  and  C_16 
REMARK    7  A    between atoms: C_22  and  O_13 
REMARK    8  A    between atoms: C_25  and  C_22 
ROOT
ATOM      1  C   UNL d   1      53.759  34.814  55.179  0.00  0.00     0.296 C 
ATOM      2  O   UNL d   1      53.511  35.402  55.707  0.00  0.00    -0.259 OA
ATOM      3  O   UNL d   1      54.465  34.411  55.318  0.00  0.00    -0.296 OA
ATOM      4  C   UNL d   1      55.171  34.008  55.457  0.00  0.00     0.185 C 
ENDROOT
BRANCH   1   5
ATOM      5  C   UNL d   1      53.299  34.634  54.519  0.00  0.00     0.065 A 
ATOM      6  C   UNL d   1      53.020  34.336  53.721  0.00  0.00     0.018 A 
ATOM      7  C   UNL d   1      52.050  34.673  53.842  0.00  0.00     0.057 A 
ATOM      8  N   UNL d   1      51.516  34.640  53.445  0.00  0.00    -0.192 NA
ATOM      9  C   UNL d   1      51.740  34.926  54.187  0.00  0.00     0.057 A 
ATOM     10  C   UNL d   1      52.783  34.579  54.089  0.00  0.00     0.018 A 
BRANCH   8  11
ATOM     11  C   UNL d   1      50.764  34.697  53.108  0.00  0.00     0.145 A 
ATOM     12  C   UNL d   1      50.671  34.072  52.585  0.00  0.00     0.117 A 
ATOM     13  N   UNL d   1      49.964  33.989  52.165  0.00  0.00    -0.241 NA
ATOM     14  C   UNL d   1      49.358  34.527  52.267  0.00  0.00     0.099 A 
ATOM     15  C   UNL d   1      49.447  35.162  52.795  0.00  0.00     0.100 A 
ATOM     16  C   UNL d   1      48.657  34.448  51.852  0.00  0.00     0.021 A 
ATOM     17  C   UNL d   1      48.834  35.708  52.900  0.00  0.00     0.021 A 
ATOM     18  N   UNL d   1      50.153  35.245  53.216  0.00  0.00    -0.230 NA
ATOM     19  C   UNL d   1      48.138  35.618  52.480  0.00  0.00     0.002 A 
ATOM     20  C   UNL d   1      48.041  34.988  51.951  0.00  0.00     0.002 A 
BRANCH  12  21
ATOM     21  C   UNL d   1      51.365  33.624  52.596  0.00  0.00     0.104 C 
BRANCH  21  22
ATOM     22  C   UNL d   1      51.453  32.868  52.935  0.00  0.00     0.303 C 
ATOM     23  O   UNL d   1      50.918  32.609  53.505  0.00  0.00    -0.259 OA
BRANCH  22  24
ATOM     24  O   UNL d   1      52.076  32.382  52.698  0.00  0.00    -0.271 OA
BRANCH  24  25
ATOM     25  C   UNL d   1      52.089  31.589  52.917  0.00  0.00     0.126 C 
BRANCH  25  26
ATOM     26  C   UNL d   1      52.784  31.152  52.852  0.00  0.00     0.025 C 
ATOM     27  C   UNL d   1      53.363  31.216  53.429  0.00  0.00     0.002 C 
ATOM     28  C   UNL d   1      52.895  30.651  52.206  0.00  0.00     0.002 C 
ENDBRANCH  25  26
ENDBRANCH  24  25
ENDBRANCH  22  24
ENDBRANCH  21  22
BRANCH  21  29
ATOM     29  C   UNL d   1      51.953  34.051  52.214  0.00  0.00     0.129 C 
ATOM     30  N   UNL d   1      52.084  34.087  51.396  0.00  0.00    -0.146 N 
ENDBRANCH  21  29
ENDBRANCH  12  21
ENDBRANCH   8  11
ENDBRANCH   1   5
TORSDOF 8
ENDMDL
MODEL 6
REMARK VINA RESULT:      -4.8      1.237      3.314
REMARK  8 active torsions:
REMARK  status: ('A' for Active; 'I' for Inactive)
REMARK    1  A    between atoms: C_5  and  C_1 
REMARK    2  A    between atoms: N_6  and  C_2 
REMARK    3  A    between atoms: C_7  and  C_5 
REMARK    4  A    between atoms: C_8  and  C_5 
REMARK    5  A    between atoms: O_13  and  C_7 
REMARK    6  A    between atoms: C_12  and  C_16 
REMARK    7  A    between atoms: C_22  and  O_13 
REMARK    8  A    between atoms: C_25  and  C_22 
ROOT
ATOM      1  C   UNL d   1      53.648  35.219  55.173  0.00  0.00     0.296 C 
ATOM      2  O   UNL d   1      54.222  35.029  55.740  0.00  0.00    -0.259 OA
ATOM      3  O   UNL d   1      53.294  35.964  55.183  0.00  0.00    -0.296 OA
ATOM      4  C   UNL d   1      52.941  36.709  55.193  0.00  0.00     0.185 C 
ENDROOT
BRANCH   1   5
ATOM      5  C   UNL d   1      53.433  34.663  54.604  0.00  0.00     0.065 A 
ATOM      6  C   UNL d   1      53.154  34.271  53.847  0.00  0.00     0.018 A 
ATOM      7  C   UNL d   1      53.267  33.308  54.208  0.00  0.00     0.057 A 
ATOM      8  N   UNL d   1      53.156  32.713  53.928  0.00  0.00    -0.192 NA
ATOM      9  C   UNL d   1      53.417  33.043  54.639  0.00  0.00     0.057 A 
ATOM     10  C   UNL d   1      53.308  34.082  54.284  0.00  0.00     0.018 A 
BRANCH   8  11
ATOM     11  C   UNL d   1      53.082  31.908  53.763  0.00  0.00     0.145 A 
ATOM     12  C   UNL d   1      52.500  31.817  53.192  0.00  0.00     0.117 A 
ATOM     13  N   UNL d   1      52.307  31.062  52.918  0.00  0.00    -0.241 NA
ATOM     14  C   UNL d   1      52.693  30.405  53.213  0.00  0.00     0.099 A 
ATOM     15  C   UNL d   1      53.283  30.491  53.791  0.00  0.00     0.100 A 
ATOM     16  C   UNL d   1      52.504  29.655  52.943  0.00  0.00     0.021 A 
ATOM     17  C   UNL d   1      53.675  29.827  54.090  0.00  0.00     0.021 A 
ATOM     18  N   UNL d   1      53.476  31.246  54.065  0.00  0.00    -0.230 NA
ATOM     19  C   UNL d   1      53.478  29.083  53.814  0.00  0.00     0.002 A 
ATOM     20  C   UNL d   1      52.891  28.989  53.237  0.00  0.00     0.002 A 
BRANCH  12  21
ATOM     21  C   UNL d   1      52.210  32.566  53.001  0.00  0.00     0.104 C 
BRANCH  21  22
ATOM     22  C   UNL d   1      51.447  32.853  53.172  0.00  0.00     0.303 C 
ATOM     23  O   UNL d   1      51.034  32.557  53.820  0.00  0.00    -0.259 OA
BRANCH  22  24
ATOM     24  O   UNL d   1      51.108  33.432  52.691  0.00  0.00    -0.271 OA
BRANCH  24  25
ATOM     25  C   UNL d   1      50.297  33.567  52.714  0.00  0.00     0.126 C 
BRANCH  25  26
ATOM     26  C   UNL d   1      49.984  34.264  52.410  0.00  0.00     0.025 C 
ATOM     27  C   UNL d   1      49.799  34.885  52.913  0.00  0.00     0.002 C 
ATOM     28  C   UNL d   1      49.856  34.337  51.598  0.00  0.00     0.002 C 
ENDBRANCH  25  26
ENDBRANCH  24  25
ENDBRANCH  22  24
ENDBRANCH  21  22
BRANCH  21  29
ATOM     29  C   UNL d   1      52.803  32.981  52.612  0.00  0.00     0.129 C 
ATOM     30  N   UNL d   1      52.874  33.089  51.793  0.00  0.00    -0.146 N 
ENDBRANCH  21  29
ENDBRANCH  12  21
ENDBRANCH   8  11
ENDBRANCH   1   5
TORSDOF 8
ENDMDL
MODEL 7
REMARK VINA RESULT:      -4.8      1.657      4.471
REMARK  8 active torsions:
REMARK  status: ('A' for Active; 'I' for Inactive)
REMARK    1  A    between atoms: C_5  and  C_1 
REMARK    2  A    between atoms: N_6  and  C_2 
REMARK    3  A    between atoms: C_7  and  C_5 
REMARK    4  A    between atoms: C_8  and  C_5 
REMARK    5  A    between atoms: O_13  and  C_7 
REMARK    6  A    between atoms: C_12  and  C_16 
REMARK    7  A    between atoms: C_22  and  O_13 
REMARK    8  A    between atoms: C_25  and  C_22 
ROOT
ATOM      1  C   UNL d   1      52.733  29.172  53.357  0.00  0.00     0.296 C 
ATOM      2  O   UNL d   1      52.473  28.715  52.717  0.00  0.00    -0.259 OA
ATOM      3  O   UNL d   1      53.003  28.800  54.042  0.00  0.00    -0.296 OA
ATOM      4  C   UNL d   1      53.273  28.429  54.727  0.00  0.00     0.185 C 
ENDROOT
BRANCH   1   5
ATOM      5  C   UNL d   1      52.720  29.995  53.307  0.00  0.00     0.065 A 
ATOM      6  C   UNL d   1      52.534  30.839  53.068  0.00  0.00     0.018 A 
ATOM      7  C   UNL d   1      53.185  31.263  53.752  0.00  0.00     0.057 A 
ATOM      8  N   UNL d   1      53.336  31.898  53.887  0.00  0.00    -0.192 NA
ATOM      9  C   UNL d   1      53.529  31.132  54.130  0.00  0.00     0.057 A 
ATOM     10  C   UNL d   1      52.845  30.649  53.412  0.00  0.00     0.018 A 
BRANCH   8  11
ATOM     11  C   UNL d   1      53.647  32.599  54.192  0.00  0.00     0.145 A 
ATOM     12  C   UNL d   1      53.230  33.226  53.865  0.00  0.00     0.117 A 
ATOM     13  N   UNL d   1      53.425  34.002  54.072  0.00  0.00    -0.241 NA
ATOM     14  C   UNL d   1      54.029  34.148  54.602  0.00  0.00     0.099 A 
ATOM     15  C   UNL d   1      54.454  33.517  54.937  0.00  0.00     0.100 A 
ATOM     16  C   UNL d   1      54.224  34.915  54.810  0.00  0.00     0.021 A 
ATOM     17  C   UNL d   1      55.067  33.663  55.473  0.00  0.00     0.021 A 
ATOM     18  N   UNL d   1      54.260  32.741  54.729  0.00  0.00    -0.230 NA
ATOM     19  C   UNL d   1      55.253  34.434  55.673  0.00  0.00     0.002 A 
ATOM     20  C   UNL d   1      54.834  35.068  55.344  0.00  0.00     0.002 A 
BRANCH  12  21
ATOM     21  C   UNL d   1      52.659  32.915  53.355  0.00  0.00     0.104 C 
BRANCH  21  22
ATOM     22  C   UNL d   1      51.834  32.974  53.454  0.00  0.00     0.303 C 
ATOM     23  O   UNL d   1      51.461  32.549  54.052  0.00  0.00    -0.259 OA
BRANCH  22  24
ATOM     24  O   UNL d   1      51.394  33.458  52.950  0.00  0.00    -0.271 OA
BRANCH  24  25
ATOM     25  C   UNL d   1      50.606  33.625  53.120  0.00  0.00     0.126 C 
BRANCH  25  26
ATOM     26  C   UNL d   1      50.209  34.215  52.707  0.00  0.00     0.025 C 
ATOM     27  C   UNL d   1      50.105  34.150  51.896  0.00  0.00     0.002 C 
ATOM     28  C   UNL d   1      49.917  34.873  53.110  0.00  0.00     0.002 C 
ENDBRANCH  25  26
ENDBRANCH  24  25
ENDBRANCH  22  24
ENDBRANCH  21  22
BRANCH  21  29
ATOM     29  C   UNL d   1      53.044  32.539  52.735  0.00  0.00     0.129 C 
ATOM     30  N   UNL d   1      53.189  32.854  51.982  0.00  0.00    -0.146 N 
ENDBRANCH  21  29
ENDBRANCH  12  21
ENDBRANCH   8  11
ENDBRANCH   1   5
TORSDOF 8
ENDMDL
