MODEL 1
REMARK VINA RESULT:      66.7      0.000      0.000
REMARK  6 active torsions:
REMARK  status: ('A' for Active; 'I' for Inactive)
REMARK    1  A    between atoms: C_6  and  N_1 
REMARK    2  A    between atoms: C_7  and  C_4 
REMARK    3  A    between atoms: C_8  and  C_6 
REMARK    4  A    between atoms: C_11  and  C_6 
REMARK    5  A    between atoms: C_13  and  C_7 
REMARK    6  A    between atoms: C_16  and  C_11 
ROOT
ATOM      1  N   UNL d   1     -50.667  26.594  33.794  0.00  0.00    -0.254 N 
ATOM      2  C   UNL d   1     -50.840  27.292  33.551  0.00  0.00     0.153 A 
ATOM      3  C   UNL d   1     -49.875  26.574  33.992  0.00  0.00     0.272 A 
ATOM      4  C   UNL d   1     -49.554  27.314  33.857  0.00  0.00     0.088 A 
ATOM      5  S   UNL d   1     -50.166  27.761  33.580  0.00  0.00    -0.054 SA
ATOM      6  S   UNL d   1     -51.636  27.472  33.306  0.00  0.00    -0.052 SA
ATOM      7  O   UNL d   1     -49.440  25.913  34.288  0.00  0.00    -0.266 OA
ENDROOT
BRANCH   1   8
ATOM      8  C   UNL d   1     -51.220  25.960  33.842  0.00  0.00     0.132 C 
BRANCH   8   9
ATOM      9  C   UNL d   1     -51.830  25.973  34.372  0.00  0.00     0.228 C 
ATOM     10  O   UNL d   1     -51.704  25.887  35.183  0.00  0.00    -0.643 OA
ATOM     11  O   UNL d   1     -52.607  26.078  34.081  0.00  0.00    -0.643 OA
ENDBRANCH   8   9
BRANCH   8  12
ATOM     12  C   UNL d   1     -51.106  25.301  33.307  0.00  0.00     0.024 C 
BRANCH  12  13
ATOM     13  C   UNL d   1     -51.501  24.602  33.463  0.00  0.00     0.002 A 
ATOM     14  C   UNL d   1     -52.285  24.579  33.595  0.00  0.00     0.000 A 
ATOM     15  C   UNL d   1     -52.664  23.846  33.753  0.00  0.00     0.000 A 
ATOM     16  C   UNL d   1     -52.223  23.189  33.766  0.00  0.00     0.000 A 
ATOM     17  C   UNL d   1     -51.415  23.189  33.633  0.00  0.00     0.000 A 
ATOM     18  C   UNL d   1     -51.033  23.916  33.476  0.00  0.00     0.000 A 
ENDBRANCH  12  13
ENDBRANCH   8  12
ENDBRANCH   1   8
BRANCH   4  19
ATOM     19  C   UNL d   1     -48.761  27.489  34.000  0.00  0.00     0.011 C 
BRANCH  19  20
ATOM     20  C   UNL d   1     -48.517  28.080  34.557  0.00  0.00     0.001 A 
ATOM     21  C   UNL d   1     -49.082  28.470  34.988  0.00  0.00     0.001 A 
ATOM     22  C   UNL d   1     -48.871  29.053  35.540  0.00  0.00     0.007 A 
ATOM     23  C   UNL d   1     -48.026  29.230  35.640  0.00  0.00     0.035 A 
ATOM     24  C   UNL d   1     -47.481  28.818  35.189  0.00  0.00     0.007 A 
ATOM     25 BR   UNL d   1     -47.777  29.819  36.195  0.00  0.00    -0.049 Br
ATOM     26  C   UNL d   1     -47.716  28.254  34.658  0.00  0.00     0.001 A 
ENDBRANCH  19  20
ENDBRANCH   4  19
TORSDOF 6
ENDMDL
