MODEL 1
REMARK VINA RESULT:      29.8      0.000      0.000
REMARK  4 active torsions:
REMARK  status: ('A' for Active; 'I' for Inactive)
REMARK    1  A    between atoms: N_2  and  S_1 
REMARK    2  A    between atoms: C_4  and  S_1 
REMARK    3  A    between atoms: C_3  and  C_9 
REMARK       I    between atoms: N_5  and  C_3 
REMARK    4  A    between atoms: C_6  and  N_5 
ROOT
ATOM      1  C   UNL d   1      14.365  12.514  -1.597  0.00  0.00     0.104 A 
ATOM      2  C   UNL d   1      14.940  13.457  -0.691  0.00  0.00     0.059 A 
ATOM      3  C   UNL d   1      14.636  13.281  -1.434  0.00  0.00     0.018 A 
ATOM      4  C   UNL d   1      14.400  11.932  -1.017  0.00  0.00     0.013 A 
ATOM      5  C   UNL d   1      14.975  12.874  -0.110  0.00  0.00     0.005 A 
ATOM      6  C   UNL d   1      14.702  12.105  -0.276  0.00  0.00     0.001 A 
ENDROOT
BRANCH   1   7
ATOM      7  S   UNL d   1      14.063  12.342  -2.337  0.00  0.00     0.271 S 
ATOM      8  O   UNL d   1      14.778  12.670  -2.512  0.00  0.00    -0.200 OA
ATOM      9  O   UNL d   1      13.322  12.000  -2.204  0.00  0.00    -0.200 OA
BRANCH   7  10
ATOM     10  N   UNL d   1      13.845  12.207  -3.117  0.00  0.00    -0.229 N 
ATOM     11  C   UNL d   1      13.062  11.936  -3.253  0.00  0.00     0.092 A 
ATOM     12  C   UNL d   1      12.770  11.787  -3.902  0.00  0.00     0.020 A 
ATOM     13  C   UNL d   1      13.048  11.814  -4.716  0.00  0.00     0.002 A 
ATOM     14  C   UNL d   1      13.698  12.005  -5.026  0.00  0.00     0.002 A 
ATOM     15  C   UNL d   1      14.386  12.266  -4.616  0.00  0.00     0.020 A 
ATOM     16  C   UNL d   1      14.455  12.360  -3.733  0.00  0.00     0.092 A 
ENDBRANCH   7  10
ENDBRANCH   1   7
BRANCH   2  17
ATOM     17  C   UNL d   1      15.211  14.223  -0.527  0.00  0.00     0.281 C 
ATOM     18  N   UNL d   1      14.835  14.868  -0.881  0.00  0.00    -0.187 NA
ATOM     19  O   UNL d   1      15.845  14.325  -0.018  0.00  0.00    -0.265 OA
BRANCH  18  20
ATOM     20  C   UNL d   1      15.107  15.625  -0.715  0.00  0.00     0.194 A 
ATOM     21  N   UNL d   1      15.475  15.871  -0.018  0.00  0.00    -0.106 NA
ATOM     22  O   UNL d   1      15.654  16.670  -0.094  0.00  0.00    -0.207 OA
ATOM     23  C   UNL d   1      15.396  16.920  -0.840  0.00  0.00     0.153 A 
ATOM     24  C   UNL d   1      15.061  16.280  -1.222  0.00  0.00     0.070 A 
ENDBRANCH  18  20
ENDBRANCH   2  17
TORSDOF 4
ENDMDL
