MODEL 1
REMARK VINA RESULT:      16.7      0.000      0.000
REMARK  6 active torsions:
REMARK  status: ('A' for Active; 'I' for Inactive)
REMARK    1  A    between atoms: N_2  and  S_1 
REMARK    2  A    between atoms: C_16  and  S_1 
REMARK    3  A    between atoms: C_4  and  C_3 
REMARK       I    between atoms: N_6  and  C_4 
REMARK    4  A    between atoms: C_15  and  N_6 
REMARK    5  A    between atoms: C_9  and  C_15 
REMARK    6  A    between atoms: C_20  and  C_16 
ROOT
ATOM      1  N   UNL d   1      15.103  13.575  -0.297  0.00  0.00    -0.229 N 
ATOM      2  C   UNL d   1      14.351  12.394  -0.562  0.00  0.00     0.076 A 
ATOM      3  C   UNL d   1      14.379  13.201  -0.435  0.00  0.00     0.096 A 
ATOM      4  C   UNL d   1      15.796  13.142  -0.286  0.00  0.00     0.092 A 
ATOM      5  C   UNL d   1      15.045  11.956  -0.551  0.00  0.00     0.008 A 
ATOM      6  C   UNL d   1      15.770  12.330  -0.413  0.00  0.00     0.020 A 
ENDROOT
BRANCH   2   7
ATOM      7  C   UNL d   1      13.631  12.012  -0.700  0.00  0.00     0.281 C 
ATOM      8  N   UNL d   1      13.409  11.794  -1.464  0.00  0.00    -0.204 NA
ATOM      9  O   UNL d   1      13.128  11.847  -0.057  0.00  0.00    -0.265 OA
BRANCH   8  10
ATOM     10  C   UNL d   1      13.910  11.959  -2.097  0.00  0.00     0.127 C 
BRANCH  10  11
ATOM     11  C   UNL d   1      13.617  11.934  -2.869  0.00  0.00     0.119 A 
ATOM     12  O   UNL d   1      14.073  11.884  -3.556  0.00  0.00    -0.304 OA
ATOM     13  C   UNL d   1      13.558  11.873  -4.201  0.00  0.00     0.123 A 
ATOM     14  C   UNL d   1      12.786  11.916  -3.909  0.00  0.00     0.029 A 
ATOM     15  C   UNL d   1      12.831  11.953  -3.087  0.00  0.00     0.028 A 
ENDBRANCH  10  11
ENDBRANCH   8  10
ENDBRANCH   2   7
BRANCH   1  16
ATOM     16  S   UNL d   1      15.124  14.397  -0.169  0.00  0.00     0.272 S 
ATOM     17  O   UNL d   1      15.932  14.382  -0.170  0.00  0.00    -0.200 OA
ATOM     18  O   UNL d   1      14.294  14.406  -0.169  0.00  0.00    -0.200 OA
BRANCH  16  19
ATOM     19  C   UNL d   1      15.153  15.216  -0.042  0.00  0.00     0.116 C 
BRANCH  19  20
ATOM     20  C   UNL d   1      15.125  15.745  -0.678  0.00  0.00     0.014 C 
ATOM     21  C   UNL d   1      15.520  16.465  -0.626  0.00  0.00     0.001 C 
ENDBRANCH  19  20
ENDBRANCH  16  19
ENDBRANCH   1  16
TORSDOF 6
ENDMDL
