MODEL 1
REMARK VINA RESULT:      -6.7      0.000      0.000
REMARK  6 active torsions:
REMARK  status: ('A' for Active; 'I' for Inactive)
REMARK    1  A    between atoms: S_10  and  C_6 
REMARK    2  A    between atoms: C_14  and  S_10 
REMARK    3  A    between atoms: C_11  and  C_14 
REMARK       I    between atoms: N_15  and  C_11 
REMARK    4  A    between atoms: C_20  and  N_15 
REMARK    5  A    between atoms: C_18  and  C_20 
REMARK    6  A    between atoms: C_21  and  C_18 
ROOT
ATOM      1  C   UNL d   1     -49.127  14.544  23.192  0.00  0.00     0.187 A 
ATOM      2  C   UNL d   1     -49.615  14.334  22.561  0.00  0.00     0.081 A 
ATOM      3  N   UNL d   1     -48.396  14.162  23.285  0.00  0.00    -0.197 NA
ATOM      4  N   UNL d   1     -48.660  13.369  22.117  0.00  0.00    -0.200 NA
ATOM      5  C   UNL d   1     -49.384  13.750  22.026  0.00  0.00     0.189 A 
ATOM      6  C   UNL d   1     -48.160  13.572  22.746  0.00  0.00     0.198 A 
ATOM      7  C   UNL d   1     -50.294  14.798  22.608  0.00  0.00     0.029 A 
ATOM      8  O   UNL d   1     -49.498  15.131  23.624  0.00  0.00    -0.289 OA
ATOM      9  C   UNL d   1     -50.227  15.296  23.266  0.00  0.00     0.102 A 
ATOM     10  N   UNL d   1     -49.882  13.549  21.400  0.00  0.00    -0.127 N 
ATOM     11  C   UNL d   1     -50.939  14.772  22.082  0.00  0.00     0.002 C 
ATOM     12  C   UNL d   1     -50.786  15.850  23.515  0.00  0.00     0.027 C 
ENDROOT
BRANCH   6  13
ATOM     13  S   UNL d   1     -47.435  13.197  22.844  0.00  0.00    -0.043 SA
BRANCH  13  14
ATOM     14  C   UNL d   1     -46.733  13.593  22.675  0.00  0.00     0.101 C 
BRANCH  14  15
ATOM     15  C   UNL d   1     -46.019  13.192  22.707  0.00  0.00     0.286 C 
ATOM     16  O   UNL d   1     -45.869  12.657  23.321  0.00  0.00    -0.265 OA
ATOM     17  N   UNL d   1     -45.447  13.320  22.130  0.00  0.00    -0.206 NA
BRANCH  17  18
ATOM     18  C   UNL d   1     -44.726  12.914  22.164  0.00  0.00     0.106 C 
BRANCH  18  19
ATOM     19  C   UNL d   1     -44.202  12.977  21.544  0.00  0.00     0.066 C 
BRANCH  19  20
ATOM     20  C   UNL d   1     -43.451  12.635  21.605  0.00  0.00     0.236 C 
ATOM     21  O   UNL d   1     -42.965  12.596  20.953  0.00  0.00    -0.283 OA
ENDBRANCH  19  20
ENDBRANCH  18  19
ENDBRANCH  17  18
ENDBRANCH  14  15
ENDBRANCH  13  14
ENDBRANCH   6  13
TORSDOF 6
ENDMDL
MODEL 2
REMARK VINA RESULT:      -5.9      1.639      2.054
REMARK  6 active torsions:
REMARK  status: ('A' for Active; 'I' for Inactive)
REMARK    1  A    between atoms: S_10  and  C_6 
REMARK    2  A    between atoms: C_14  and  S_10 
REMARK    3  A    between atoms: C_11  and  C_14 
REMARK       I    between atoms: N_15  and  C_11 
REMARK    4  A    between atoms: C_20  and  N_15 
REMARK    5  A    between atoms: C_18  and  C_20 
REMARK    6  A    between atoms: C_21  and  C_18 
ROOT
ATOM      1  C   UNL d   1     -49.010  13.481  22.197  0.00  0.00     0.187 A 
ATOM      2  C   UNL d   1     -49.207  14.252  22.415  0.00  0.00     0.081 A 
ATOM      3  N   UNL d   1     -48.240  13.204  22.332  0.00  0.00    -0.197 NA
ATOM      4  N   UNL d   1     -47.882  14.474  22.900  0.00  0.00    -0.200 NA
ATOM      5  C   UNL d   1     -48.647  14.747  22.764  0.00  0.00     0.189 A 
ATOM      6  C   UNL d   1     -47.672  13.702  22.685  0.00  0.00     0.198 A 
ATOM      7  C   UNL d   1     -49.998  14.372  22.216  0.00  0.00     0.029 A 
ATOM      8  O   UNL d   1     -49.670  13.128  21.868  0.00  0.00    -0.289 OA
ATOM      9  C   UNL d   1     -50.291  13.676  21.876  0.00  0.00     0.102 A 
ATOM     10  N   UNL d   1     -48.857  15.516  22.977  0.00  0.00    -0.127 N 
ATOM     11  C   UNL d   1     -50.429  15.074  22.338  0.00  0.00     0.002 C 
ATOM     12  C   UNL d   1     -51.060  13.558  21.599  0.00  0.00     0.027 C 
ENDROOT
BRANCH   6  13
ATOM     13  S   UNL d   1     -46.911  13.421  22.816  0.00  0.00    -0.043 SA
BRANCH  13  14
ATOM     14  C   UNL d   1     -46.764  12.612  22.856  0.00  0.00     0.101 C 
BRANCH  14  15
ATOM     15  C   UNL d   1     -46.001  12.339  22.983  0.00  0.00     0.286 C 
ATOM     16  O   UNL d   1     -45.355  12.850  22.891  0.00  0.00    -0.265 OA
ATOM     17  N   UNL d   1     -45.873  11.557  23.203  0.00  0.00    -0.206 NA
BRANCH  17  18
ATOM     18  C   UNL d   1     -45.102  11.284  23.331  0.00  0.00     0.106 C 
BRANCH  18  19
ATOM     19  C   UNL d   1     -44.988  10.558  23.683  0.00  0.00     0.066 C 
BRANCH  19  20
ATOM     20  C   UNL d   1     -44.231  10.225  23.698  0.00  0.00     0.236 C 
ATOM     21  O   UNL d   1     -44.122   9.447  23.480  0.00  0.00    -0.283 OA
ENDBRANCH  19  20
ENDBRANCH  18  19
ENDBRANCH  17  18
ENDBRANCH  14  15
ENDBRANCH  13  14
ENDBRANCH   6  13
TORSDOF 6
ENDMDL
MODEL 3
REMARK VINA RESULT:      -4.7      1.186      5.373
REMARK  6 active torsions:
REMARK  status: ('A' for Active; 'I' for Inactive)
REMARK    1  A    between atoms: S_10  and  C_6 
REMARK    2  A    between atoms: C_14  and  S_10 
REMARK    3  A    between atoms: C_11  and  C_14 
REMARK       I    between atoms: N_15  and  C_11 
REMARK    4  A    between atoms: C_20  and  N_15 
REMARK    5  A    between atoms: C_18  and  C_20 
REMARK    6  A    between atoms: C_21  and  C_18 
ROOT
ATOM      1  C   UNL d   1     -45.197  13.094  22.314  0.00  0.00     0.187 A 
ATOM      2  C   UNL d   1     -44.950  12.361  22.600  0.00  0.00     0.081 A 
ATOM      3  N   UNL d   1     -45.938  13.391  22.542  0.00  0.00    -0.197 NA
ATOM      4  N   UNL d   1     -46.165  12.216  23.336  0.00  0.00    -0.200 NA
ATOM      5  C   UNL d   1     -45.430  11.923  23.108  0.00  0.00     0.189 A 
ATOM      6  C   UNL d   1     -46.425  12.951  23.055  0.00  0.00     0.198 A 
ATOM      7  C   UNL d   1     -44.203  12.211  22.285  0.00  0.00     0.029 A 
ATOM      8  O   UNL d   1     -44.612  13.394  21.827  0.00  0.00    -0.289 OA
ATOM      9  C   UNL d   1     -43.988  12.850  21.804  0.00  0.00     0.102 A 
ATOM     10  N   UNL d   1     -45.170  11.192  23.388  0.00  0.00    -0.127 N 
ATOM     11  C   UNL d   1     -43.743  11.532  22.426  0.00  0.00     0.002 C 
ATOM     12  C   UNL d   1     -43.282  12.923  21.382  0.00  0.00     0.027 C 
ENDROOT
BRANCH   6  13
ATOM     13  S   UNL d   1     -47.157  13.251  23.277  0.00  0.00    -0.043 SA
BRANCH  13  14
ATOM     14  C   UNL d   1     -47.685  13.529  22.710  0.00  0.00     0.101 C 
BRANCH  14  15
ATOM     15  C   UNL d   1     -48.449  13.734  22.926  0.00  0.00     0.286 C 
ATOM     16  O   UNL d   1     -48.986  13.150  23.165  0.00  0.00    -0.265 OA
ATOM     17  N   UNL d   1     -48.686  14.521  22.907  0.00  0.00    -0.206 NA
BRANCH  17  18
ATOM     18  C   UNL d   1     -49.458  14.727  23.126  0.00  0.00     0.106 C 
BRANCH  18  19
ATOM     19  C   UNL d   1     -49.687  15.508  23.097  0.00  0.00     0.066 C 
BRANCH  19  20
ATOM     20  C   UNL d   1     -50.322  15.766  23.561  0.00  0.00     0.236 C 
ATOM     21  O   UNL d   1     -51.044  15.920  23.215  0.00  0.00    -0.283 OA
ENDBRANCH  19  20
ENDBRANCH  18  19
ENDBRANCH  17  18
ENDBRANCH  14  15
ENDBRANCH  13  14
ENDBRANCH   6  13
TORSDOF 6
ENDMDL
MODEL 4
REMARK VINA RESULT:      -4.4      8.509      9.126
REMARK  6 active torsions:
REMARK  status: ('A' for Active; 'I' for Inactive)
REMARK    1  A    between atoms: S_10  and  C_6 
REMARK    2  A    between atoms: C_14  and  S_10 
REMARK    3  A    between atoms: C_11  and  C_14 
REMARK       I    between atoms: N_15  and  C_11 
REMARK    4  A    between atoms: C_20  and  N_15 
REMARK    5  A    between atoms: C_18  and  C_20 
REMARK    6  A    between atoms: C_21  and  C_18 
ROOT
ATOM      1  C   UNL d   1     -40.899  15.733  18.204  0.00  0.00     0.187 A 
ATOM      2  C   UNL d   1     -40.236  15.789  17.717  0.00  0.00     0.081 A 
ATOM      3  N   UNL d   1     -40.797  15.662  19.024  0.00  0.00    -0.197 NA
ATOM      4  N   UNL d   1     -39.371  15.707  18.851  0.00  0.00    -0.200 NA
ATOM      5  C   UNL d   1     -39.475  15.776  18.037  0.00  0.00     0.189 A 
ATOM      6  C   UNL d   1     -40.030  15.649  19.350  0.00  0.00     0.198 A 
ATOM      7  C   UNL d   1     -40.503  15.852  16.940  0.00  0.00     0.029 A 
ATOM      8  O   UNL d   1     -41.569  15.760  17.735  0.00  0.00    -0.289 OA
ATOM      9  C   UNL d   1     -41.331  15.835  16.945  0.00  0.00     0.102 A 
ATOM     10  N   UNL d   1     -38.820  15.834  17.539  0.00  0.00    -0.127 N 
ATOM     11  C   UNL d   1     -40.022  15.922  16.264  0.00  0.00     0.002 C 
ATOM     12  C   UNL d   1     -41.821  15.883  16.283  0.00  0.00     0.027 C 
ENDROOT
BRANCH   6  13
ATOM     13  S   UNL d   1     -39.935  15.579  20.164  0.00  0.00    -0.043 SA
BRANCH  13  14
ATOM     14  C   UNL d   1     -39.487  14.967  20.482  0.00  0.00     0.101 C 
BRANCH  14  15
ATOM     15  C   UNL d   1     -39.470  14.849  21.294  0.00  0.00     0.286 C 
ATOM     16  O   UNL d   1     -39.848  15.385  21.800  0.00  0.00    -0.265 OA
ATOM     17  N   UNL d   1     -39.077  14.199  21.609  0.00  0.00    -0.206 NA
BRANCH  17  18
ATOM     18  C   UNL d   1     -39.062  14.083  22.429  0.00  0.00     0.106 C 
BRANCH  18  19
ATOM     19  C   UNL d   1     -38.957  13.331  22.724  0.00  0.00     0.066 C 
BRANCH  19  20
ATOM     20  C   UNL d   1     -38.520  13.220  23.418  0.00  0.00     0.236 C 
ATOM     21  O   UNL d   1     -38.026  12.576  23.492  0.00  0.00    -0.283 OA
ENDBRANCH  19  20
ENDBRANCH  18  19
ENDBRANCH  17  18
ENDBRANCH  14  15
ENDBRANCH  13  14
ENDBRANCH   6  13
TORSDOF 6
ENDMDL
MODEL 5
REMARK VINA RESULT:      -4.3      8.770     10.142
REMARK  6 active torsions:
REMARK  status: ('A' for Active; 'I' for Inactive)
REMARK    1  A    between atoms: S_10  and  C_6 
REMARK    2  A    between atoms: C_14  and  S_10 
REMARK    3  A    between atoms: C_11  and  C_14 
REMARK       I    between atoms: N_15  and  C_11 
REMARK    4  A    between atoms: C_20  and  N_15 
REMARK    5  A    between atoms: C_18  and  C_20 
REMARK    6  A    between atoms: C_21  and  C_18 
ROOT
ATOM      1  C   UNL d   1     -39.071  15.031  17.507  0.00  0.00     0.187 A 
ATOM      2  C   UNL d   1     -38.885  14.323  17.128  0.00  0.00     0.081 A 
ATOM      3  N   UNL d   1     -39.380  15.012  18.277  0.00  0.00    -0.197 NA
ATOM      4  N   UNL d   1     -39.310  13.577  18.270  0.00  0.00    -0.200 NA
ATOM      5  C   UNL d   1     -39.004  13.599  17.506  0.00  0.00     0.189 A 
ATOM      6  C   UNL d   1     -39.500  14.282  18.661  0.00  0.00     0.198 A 
ATOM      7  C   UNL d   1     -38.593  14.510  16.380  0.00  0.00     0.029 A 
ATOM      8  O   UNL d   1     -38.896  15.650  17.002  0.00  0.00    -0.289 OA
ATOM      9  C   UNL d   1     -38.598  15.334  16.296  0.00  0.00     0.102 A 
ATOM     10  N   UNL d   1     -38.814  12.897  17.115  0.00  0.00    -0.127 N 
ATOM     11  C   UNL d   1     -38.337  13.964  15.807  0.00  0.00     0.002 C 
ATOM     12  C   UNL d   1     -38.350  15.755  15.631  0.00  0.00     0.027 C 
ENDROOT
BRANCH   6  13
ATOM     13  S   UNL d   1     -39.807  14.270  19.424  0.00  0.00    -0.043 SA
BRANCH  13  14
ATOM     14  C   UNL d   1     -39.346  14.508  20.064  0.00  0.00     0.101 C 
BRANCH  14  15
ATOM     15  C   UNL d   1     -39.565  14.301  20.826  0.00  0.00     0.286 C 
ATOM     16  O   UNL d   1     -40.354  14.379  21.069  0.00  0.00    -0.265 OA
ATOM     17  N   UNL d   1     -39.004  14.015  21.354  0.00  0.00    -0.206 NA
BRANCH  17  18
ATOM     18  C   UNL d   1     -39.227  13.806  22.124  0.00  0.00     0.106 C 
BRANCH  18  19
ATOM     19  C   UNL d   1     -38.651  13.648  22.678  0.00  0.00     0.066 C 
BRANCH  19  20
ATOM     20  C   UNL d   1     -38.824  13.153  23.319  0.00  0.00     0.236 C 
ATOM     21  O   UNL d   1     -38.226  12.751  23.698  0.00  0.00    -0.283 OA
ENDBRANCH  19  20
ENDBRANCH  18  19
ENDBRANCH  17  18
ENDBRANCH  14  15
ENDBRANCH  13  14
ENDBRANCH   6  13
TORSDOF 6
ENDMDL
MODEL 6
REMARK VINA RESULT:      -4.2      8.992      9.831
REMARK  6 active torsions:
REMARK  status: ('A' for Active; 'I' for Inactive)
REMARK    1  A    between atoms: S_10  and  C_6 
REMARK    2  A    between atoms: C_14  and  S_10 
REMARK    3  A    between atoms: C_11  and  C_14 
REMARK       I    between atoms: N_15  and  C_11 
REMARK    4  A    between atoms: C_20  and  N_15 
REMARK    5  A    between atoms: C_18  and  C_20 
REMARK    6  A    between atoms: C_21  and  C_18 
ROOT
ATOM      1  C   UNL d   1     -38.613  15.138  21.480  0.00  0.00     0.187 A 
ATOM      2  C   UNL d   1     -38.382  14.412  21.796  0.00  0.00     0.081 A 
ATOM      3  N   UNL d   1     -38.796  15.191  20.672  0.00  0.00    -0.197 NA
ATOM      4  N   UNL d   1     -38.512  13.791  20.515  0.00  0.00    -0.200 NA
ATOM      5  C   UNL d   1     -38.331  13.741  21.318  0.00  0.00     0.189 A 
ATOM      6  C   UNL d   1     -38.746  14.515  20.187  0.00  0.00     0.198 A 
ATOM      7  C   UNL d   1     -38.238  14.525  22.599  0.00  0.00     0.029 A 
ATOM      8  O   UNL d   1     -38.612  15.694  22.079  0.00  0.00    -0.289 OA
ATOM      9  C   UNL d   1     -38.379  15.321  22.781  0.00  0.00     0.102 A 
ATOM     10  N   UNL d   1     -38.099  13.021  21.646  0.00  0.00    -0.127 N 
ATOM     11  C   UNL d   1     -37.991  13.939  23.137  0.00  0.00     0.002 C 
ATOM     12  C   UNL d   1     -38.300  15.669  23.525  0.00  0.00     0.027 C 
ENDROOT
BRANCH   6  13
ATOM     13  S   UNL d   1     -38.928  14.574  19.388  0.00  0.00    -0.043 SA
BRANCH  13  14
ATOM     14  C   UNL d   1     -39.646  14.897  19.145  0.00  0.00     0.101 C 
BRANCH  14  15
ATOM     15  C   UNL d   1     -39.823  14.948  18.346  0.00  0.00     0.286 C 
ATOM     16  O   UNL d   1     -39.324  14.597  17.785  0.00  0.00    -0.265 OA
ATOM     17  N   UNL d   1     -40.497  15.348  18.097  0.00  0.00    -0.206 NA
BRANCH  17  18
ATOM     18  C   UNL d   1     -40.674  15.398  17.289  0.00  0.00     0.106 C 
BRANCH  18  19
ATOM     19  C   UNL d   1     -41.245  15.922  17.038  0.00  0.00     0.066 C 
BRANCH  19  20
ATOM     20  C   UNL d   1     -41.566  15.844  16.278  0.00  0.00     0.236 C 
ATOM     21  O   UNL d   1     -42.369  15.744  16.183  0.00  0.00    -0.283 OA
ENDBRANCH  19  20
ENDBRANCH  18  19
ENDBRANCH  17  18
ENDBRANCH  14  15
ENDBRANCH  13  14
ENDBRANCH   6  13
TORSDOF 6
ENDMDL
MODEL 7
REMARK VINA RESULT:      -4.2      3.633      7.645
REMARK  6 active torsions:
REMARK  status: ('A' for Active; 'I' for Inactive)
REMARK    1  A    between atoms: S_10  and  C_6 
REMARK    2  A    between atoms: C_14  and  S_10 
REMARK    3  A    between atoms: C_11  and  C_14 
REMARK       I    between atoms: N_15  and  C_11 
REMARK    4  A    between atoms: C_20  and  N_15 
REMARK    5  A    between atoms: C_18  and  C_20 
REMARK    6  A    between atoms: C_21  and  C_18 
ROOT
ATOM      1  C   UNL d   1     -41.019  13.988  19.487  0.00  0.00     0.187 A 
ATOM      2  C   UNL d   1     -40.593  14.601  19.838  0.00  0.00     0.081 A 
ATOM      3  N   UNL d   1     -41.548  13.544  19.946  0.00  0.00    -0.197 NA
ATOM      4  N   UNL d   1     -41.214  14.336  21.098  0.00  0.00    -0.200 NA
ATOM      5  C   UNL d   1     -40.689  14.776  20.639  0.00  0.00     0.189 A 
ATOM      6  C   UNL d   1     -41.647  13.718  20.755  0.00  0.00     0.198 A 
ATOM      7  C   UNL d   1     -40.118  14.940  19.257  0.00  0.00     0.029 A 
ATOM      8  O   UNL d   1     -40.810  13.947  18.697  0.00  0.00    -0.289 OA
ATOM      9  C   UNL d   1     -40.249  14.537  18.545  0.00  0.00     0.102 A 
ATOM     10  N   UNL d   1     -40.258  15.391  20.979  0.00  0.00    -0.127 N 
ATOM     11  C   UNL d   1     -39.596  15.579  19.366  0.00  0.00     0.002 C 
ATOM     12  C   UNL d   1     -39.884  14.699  17.822  0.00  0.00     0.027 C 
ENDROOT
BRANCH   6  13
ATOM     13  S   UNL d   1     -42.173  13.274  21.205  0.00  0.00    -0.043 SA
BRANCH  13  14
ATOM     14  C   UNL d   1     -42.970  13.237  21.002  0.00  0.00     0.101 C 
BRANCH  14  15
ATOM     15  C   UNL d   1     -43.504  12.867  21.502  0.00  0.00     0.286 C 
ATOM     16  O   UNL d   1     -43.305  12.150  21.866  0.00  0.00    -0.265 OA
ATOM     17  N   UNL d   1     -44.239  13.205  21.644  0.00  0.00    -0.206 NA
BRANCH  17  18
ATOM     18  C   UNL d   1     -44.778  12.829  22.149  0.00  0.00     0.106 C 
BRANCH  18  19
ATOM     19  C   UNL d   1     -45.469  13.209  22.350  0.00  0.00     0.066 C 
BRANCH  19  20
ATOM     20  C   UNL d   1     -45.993  12.852  22.883  0.00  0.00     0.236 C 
ATOM     21  O   UNL d   1     -46.147  13.203  23.602  0.00  0.00    -0.283 OA
ENDBRANCH  19  20
ENDBRANCH  18  19
ENDBRANCH  17  18
ENDBRANCH  14  15
ENDBRANCH  13  14
ENDBRANCH   6  13
TORSDOF 6
ENDMDL
MODEL 8
REMARK VINA RESULT:      -3.8      8.488      9.944
REMARK  6 active torsions:
REMARK  status: ('A' for Active; 'I' for Inactive)
REMARK    1  A    between atoms: S_10  and  C_6 
REMARK    2  A    between atoms: C_14  and  S_10 
REMARK    3  A    between atoms: C_11  and  C_14 
REMARK       I    between atoms: N_15  and  C_11 
REMARK    4  A    between atoms: C_20  and  N_15 
REMARK    5  A    between atoms: C_18  and  C_20 
REMARK    6  A    between atoms: C_21  and  C_18 
ROOT
ATOM      1  C   UNL d   1     -38.596  14.200  20.724  0.00  0.00     0.187 A 
ATOM      2  C   UNL d   1     -39.340  14.170  21.079  0.00  0.00     0.081 A 
ATOM      3  N   UNL d   1     -38.531  14.448  19.935  0.00  0.00    -0.197 NA
ATOM      4  N   UNL d   1     -39.955  14.631  19.875  0.00  0.00    -0.200 NA
ATOM      5  C   UNL d   1     -40.017  14.385  20.659  0.00  0.00     0.189 A 
ATOM      6  C   UNL d   1     -39.213  14.665  19.508  0.00  0.00     0.198 A 
ATOM      7  C   UNL d   1     -39.236  13.908  21.853  0.00  0.00     0.029 A 
ATOM      8  O   UNL d   1     -38.038  13.958  21.271  0.00  0.00    -0.289 OA
ATOM      9  C   UNL d   1     -38.428  13.774  21.978  0.00  0.00     0.102 A 
ATOM     10  N   UNL d   1     -40.755  14.351  21.025  0.00  0.00    -0.127 N 
ATOM     11  C   UNL d   1     -39.840  13.796  22.415  0.00  0.00     0.002 C 
ATOM     12  C   UNL d   1     -38.083  13.507  22.679  0.00  0.00     0.027 C 
ENDROOT
BRANCH   6  13
ATOM     13  S   UNL d   1     -39.142  14.910  18.726  0.00  0.00    -0.043 SA
BRANCH  13  14
ATOM     14  C   UNL d   1     -39.355  14.408  18.109  0.00  0.00     0.101 C 
BRANCH  14  15
ATOM     15  C   UNL d   1     -39.192  14.619  17.334  0.00  0.00     0.286 C 
ATOM     16  O   UNL d   1     -39.388  15.374  17.057  0.00  0.00    -0.265 OA
ATOM     17  N   UNL d   1     -38.832  14.081  16.827  0.00  0.00    -0.206 NA
BRANCH  17  18
ATOM     18  C   UNL d   1     -38.667  14.296  16.044  0.00  0.00     0.106 C 
BRANCH  18  19
ATOM     19  C   UNL d   1     -38.175  13.827  15.596  0.00  0.00     0.066 C 
BRANCH  19  20
ATOM     20  C   UNL d   1     -38.160  13.917  14.773  0.00  0.00     0.236 C 
ATOM     21  O   UNL d   1     -37.940  13.293  14.297  0.00  0.00    -0.283 OA
ENDBRANCH  19  20
ENDBRANCH  18  19
ENDBRANCH  17  18
ENDBRANCH  14  15
ENDBRANCH  13  14
ENDBRANCH   6  13
TORSDOF 6
ENDMDL
MODEL 9
REMARK VINA RESULT:      -3.7      6.183      9.832
REMARK  6 active torsions:
REMARK  status: ('A' for Active; 'I' for Inactive)
REMARK    1  A    between atoms: S_10  and  C_6 
REMARK    2  A    between atoms: C_14  and  S_10 
REMARK    3  A    between atoms: C_11  and  C_14 
REMARK       I    between atoms: N_15  and  C_11 
REMARK    4  A    between atoms: C_20  and  N_15 
REMARK    5  A    between atoms: C_18  and  C_20 
REMARK    6  A    between atoms: C_21  and  C_18 
ROOT
ATOM      1  C   UNL d   1     -39.024  15.159  17.465  0.00  0.00     0.187 A 
ATOM      2  C   UNL d   1     -38.801  14.452  17.104  0.00  0.00     0.081 A 
ATOM      3  N   UNL d   1     -39.349  15.142  18.228  0.00  0.00    -0.197 NA
ATOM      4  N   UNL d   1     -39.222  13.711  18.251  0.00  0.00    -0.200 NA
ATOM      5  C   UNL d   1     -38.899  13.731  17.493  0.00  0.00     0.189 A 
ATOM      6  C   UNL d   1     -39.450  14.416  18.624  0.00  0.00     0.198 A 
ATOM      7  C   UNL d   1     -38.500  14.637  16.360  0.00  0.00     0.029 A 
ATOM      8  O   UNL d   1     -38.862  15.775  16.951  0.00  0.00    -0.289 OA
ATOM      9  C   UNL d   1     -38.535  15.458  16.259  0.00  0.00     0.102 A 
ATOM     10  N   UNL d   1     -38.673  13.031  17.121  0.00  0.00    -0.127 N 
ATOM     11  C   UNL d   1     -38.209  14.090  15.803  0.00  0.00     0.002 C 
ATOM     12  C   UNL d   1     -38.289  15.876  15.591  0.00  0.00     0.027 C 
ENDROOT
BRANCH   6  13
ATOM     13  S   UNL d   1     -39.773  14.406  19.379  0.00  0.00    -0.043 SA
BRANCH  13  14
ATOM     14  C   UNL d   1     -40.589  14.421  19.485  0.00  0.00     0.101 C 
BRANCH  14  15
ATOM     15  C   UNL d   1     -40.911  14.243  20.219  0.00  0.00     0.286 C 
ATOM     16  O   UNL d   1     -40.564  14.541  20.909  0.00  0.00    -0.265 OA
ATOM     17  N   UNL d   1     -41.579  13.767  20.272  0.00  0.00    -0.206 NA
BRANCH  17  18
ATOM     18  C   UNL d   1     -41.902  13.588  21.014  0.00  0.00     0.106 C 
BRANCH  18  19
ATOM     19  C   UNL d   1     -42.652  13.274  21.057  0.00  0.00     0.066 C 
BRANCH  19  20
ATOM     20  C   UNL d   1     -42.826  12.707  21.635  0.00  0.00     0.236 C 
ATOM     21  O   UNL d   1     -43.575  12.389  21.684  0.00  0.00    -0.283 OA
ENDBRANCH  19  20
ENDBRANCH  18  19
ENDBRANCH  17  18
ENDBRANCH  14  15
ENDBRANCH  13  14
ENDBRANCH   6  13
TORSDOF 6
ENDMDL
