MODEL 1
REMARK VINA RESULT:      68.4      0.000      0.000
REMARK  6 active torsions:
REMARK  status: ('A' for Active; 'I' for Inactive)
REMARK    1  A    between atoms: N_6  and  S_1 
REMARK    2  A    between atoms: C_12  and  S_1 
REMARK    3  A    between atoms: C_2  and  N_5 
REMARK    4  A    between atoms: C_4  and  C_7 
REMARK       I    between atoms: N_5  and  C_4 
REMARK    5  A    between atoms: C_10  and  N_6 
REMARK    6  A    between atoms: C_15  and  C_8 
ROOT
ATOM      1  C   UNL d   1     -55.119-100.129 -44.857  0.00  0.00     0.076 A 
ATOM      2  C   UNL d   1     -55.331 -99.356 -44.692  0.00  0.00     0.098 A 
ATOM      3  C   UNL d   1     -54.809-100.323 -45.596  0.00  0.00     0.006 A 
ATOM      4  C   UNL d   1     -55.236 -98.767 -45.268  0.00  0.00     0.020 A 
ATOM      5  C   UNL d   1     -54.714 -99.734 -46.171  0.00  0.00     0.000 A 
ATOM      6  C   UNL d   1     -54.928 -98.954 -46.005  0.00  0.00     0.002 A 
ENDROOT
BRANCH   1   7
ATOM      7  C   UNL d   1     -55.214-100.716 -44.284  0.00  0.00     0.282 C 
ATOM      8  N   UNL d   1     -54.722-100.734 -43.631  0.00  0.00    -0.183 NA
ATOM      9  O   UNL d   1     -55.805-101.283 -44.372  0.00  0.00    -0.265 OA
BRANCH   8  10
ATOM     10  C   UNL d   1     -54.817-101.323 -43.055  0.00  0.00     0.197 A 
ATOM     11  N   UNL d   1     -54.986-101.195 -42.277  0.00  0.00    -0.221 NA
ATOM     12  C   UNL d   1     -55.034-101.927 -41.901  0.00  0.00     0.090 A 
ATOM     13  C   UNL d   1     -54.888-102.509 -42.473  0.00  0.00     0.058 A 
ATOM     14  S   UNL d   1     -54.753-102.131 -43.196  0.00  0.00    -0.046 SA
BRANCH  12  15
ATOM     15  C   UNL d   1     -55.188-102.144 -41.119  0.00  0.00     0.018 A 
ATOM     16  C   UNL d   1     -55.824-102.654 -40.945  0.00  0.00     0.004 A 
ATOM     17  C   UNL d   1     -55.976-102.870 -40.163  0.00  0.00     0.030 A 
ATOM     18  C   UNL d   1     -55.494-102.575 -39.562  0.00  0.00     0.140 A 
ATOM     19  C   UNL d   1     -54.868-102.072 -39.733  0.00  0.00     0.030 A 
ATOM     20  F   UNL d   1     -55.643-102.788 -38.782  0.00  0.00    -0.204 F 
ATOM     21  C   UNL d   1     -54.712-101.854 -40.508  0.00  0.00     0.004 A 
ENDBRANCH  12  15
ENDBRANCH   8  10
ENDBRANCH   1   7
BRANCH   2  22
ATOM     22  N   UNL d   1     -55.641 -99.162 -43.953  0.00  0.00    -0.158 NA
BRANCH  22  23
ATOM     23  S   UNL d   1     -56.479 -99.080 -43.850  0.00  0.00     0.285 S 
ATOM     24  O   UNL d   1     -56.367 -99.107 -43.035  0.00  0.00    -0.198 OA
ATOM     25  O   UNL d   1     -56.559 -99.057 -44.682  0.00  0.00    -0.198 OA
BRANCH  23  26
ATOM     26  C   UNL d   1     -57.282 -99.002 -43.751  0.00  0.00     0.105 A 
ATOM     27  C   UNL d   1     -57.592 -98.967 -42.989  0.00  0.00     0.013 A 
ATOM     28  C   UNL d   1     -58.429 -98.886 -42.885  0.00  0.00     0.001 A 
ATOM     29  C   UNL d   1     -58.916 -98.843 -43.535  0.00  0.00     0.000 A 
ATOM     30  C   UNL d   1     -58.593 -98.879 -44.308  0.00  0.00     0.001 A 
ATOM     31  C   UNL d   1     -59.724 -98.764 -43.419  0.00  0.00     0.000 C 
ATOM     32  C   UNL d   1     -57.775 -98.959 -44.411  0.00  0.00     0.013 A 
ENDBRANCH  23  26
ENDBRANCH  22  23
ENDBRANCH   2  22
TORSDOF 6
ENDMDL
