MODEL 1
REMARK VINA RESULT:      -5.1      0.000      0.000
REMARK  3 active torsions:
REMARK  status: ('A' for Active; 'I' for Inactive)
REMARK    1  A    between atoms: C_12  and  C_4 
REMARK       I    between atoms: C_6  and  N_11 
REMARK    2  A    between atoms: C_7  and  C_6 
REMARK    3  A    between atoms: N_11  and  C_18 
ROOT
ATOM      1  C   UNL d   1      57.278  -0.072  31.209  0.00  0.00     0.019 A 
ATOM      2  C   UNL d   1      57.029  -0.763  31.586  0.00  0.00     0.003 A 
ATOM      3  C   UNL d   1      56.948   0.646  31.411  0.00  0.00     0.003 A 
ATOM      4  C   UNL d   1      56.116  -0.009  32.372  0.00  0.00     0.085 A 
ATOM      5  C   UNL d   1      56.365   0.678  31.994  0.00  0.00     0.019 A 
ATOM      6  C   UNL d   1      56.453  -0.731  32.163  0.00  0.00     0.019 A 
ENDROOT
BRANCH   1   7
ATOM      7  C   UNL d   1      57.863  -0.102  30.622  0.00  0.00     0.101 A 
ATOM      8  N   UNL d   1      57.910  -0.693  30.067  0.00  0.00    -0.221 NA
ATOM      9  C   UNL d   1      58.556  -0.541  29.579  0.00  0.00     0.179 A 
ATOM     10  N   UNL d   1      58.914   0.149  29.832  0.00  0.00    -0.282 N 
ATOM     11  S   UNL d   1      58.978  -0.826  28.928  0.00  0.00    -0.048 SA
ATOM     12  C   UNL d   1      58.483   0.425  30.483  0.00  0.00     0.101 A 
ATOM     13  C   UNL d   1      59.561   0.301  29.344  0.00  0.00     0.089 A 
ATOM     14  C   UNL d   1      59.596  -0.307  28.786  0.00  0.00     0.057 A 
ENDBRANCH   1   7
BRANCH   4  15
ATOM     15  N   UNL d   1      55.530   0.021  32.959  0.00  0.00    -0.208 NA
ATOM     16  C   UNL d   1      55.726   0.260  33.726  0.00  0.00     0.279 C 
ATOM     17  O   UNL d   1      55.149   0.291  34.308  0.00  0.00    -0.265 OA
BRANCH  16  18
ATOM     18  C   UNL d   1      56.504   0.467  33.900  0.00  0.00     0.058 A 
ATOM     19  C   UNL d   1      56.718   0.633  34.683  0.00  0.00     0.005 A 
ATOM     20  C   UNL d   1      57.287   0.676  34.080  0.00  0.00     0.005 A 
ENDBRANCH  16  18
ENDBRANCH   4  15
TORSDOF 3
ENDMDL
MODEL 2
REMARK VINA RESULT:      -4.4      2.241      4.450
REMARK  3 active torsions:
REMARK  status: ('A' for Active; 'I' for Inactive)
REMARK    1  A    between atoms: C_12  and  C_4 
REMARK       I    between atoms: C_6  and  N_11 
REMARK    2  A    between atoms: C_7  and  C_6 
REMARK    3  A    between atoms: N_11  and  C_18 
ROOT
ATOM      1  C   UNL d   1      57.023   0.090  31.658  0.00  0.00     0.019 A 
ATOM      2  C   UNL d   1      57.039   0.682  31.082  0.00  0.00     0.003 A 
ATOM      3  C   UNL d   1      57.376  -0.632  31.512  0.00  0.00     0.003 A 
ATOM      4  C   UNL d   1      57.766  -0.177  30.214  0.00  0.00     0.085 A 
ATOM      5  C   UNL d   1      57.749  -0.765  30.789  0.00  0.00     0.019 A 
ATOM      6  C   UNL d   1      57.408   0.549  30.367  0.00  0.00     0.019 A 
ENDROOT
BRANCH   1   7
ATOM      7  C   UNL d   1      56.649   0.222  32.386  0.00  0.00     0.101 A 
ATOM      8  N   UNL d   1      55.842   0.256  32.474  0.00  0.00    -0.221 NA
ATOM      9  C   UNL d   1      55.673   0.395  33.268  0.00  0.00     0.179 A 
ATOM     10  N   UNL d   1      56.379   0.448  33.678  0.00  0.00    -0.282 N 
ATOM     11  S   UNL d   1      55.056   0.501  33.807  0.00  0.00    -0.048 SA
ATOM     12  C   UNL d   1      56.990   0.340  33.128  0.00  0.00     0.101 A 
ATOM     13  C   UNL d   1      56.210   0.587  34.472  0.00  0.00     0.089 A 
ATOM     14  C   UNL d   1      55.388   0.619  34.547  0.00  0.00     0.057 A 
ENDBRANCH   1   7
BRANCH   4  15
ATOM     15  N   UNL d   1      58.141  -0.309  29.486  0.00  0.00    -0.208 NA
ATOM     16  C   UNL d   1      58.924  -0.066  29.374  0.00  0.00     0.279 C 
ATOM     17  O   UNL d   1      59.296  -0.196  28.655  0.00  0.00    -0.265 OA
BRANCH  16  18
ATOM     18  C   UNL d   1      59.324   0.306  29.988  0.00  0.00     0.058 A 
ATOM     19  C   UNL d   1      60.115   0.530  29.885  0.00  0.00     0.005 A 
ATOM     20  C   UNL d   1      59.733   0.682  30.606  0.00  0.00     0.005 A 
ENDBRANCH  16  18
ENDBRANCH   4  15
TORSDOF 3
ENDMDL
MODEL 3
REMARK VINA RESULT:      -3.9      0.989      1.372
REMARK  3 active torsions:
REMARK  status: ('A' for Active; 'I' for Inactive)
REMARK    1  A    between atoms: C_12  and  C_4 
REMARK       I    between atoms: C_6  and  N_11 
REMARK    2  A    between atoms: C_7  and  C_6 
REMARK    3  A    between atoms: N_11  and  C_18 
ROOT
ATOM      1  C   UNL d   1      57.304  -0.005  31.862  0.00  0.00     0.019 A 
ATOM      2  C   UNL d   1      56.900  -0.657  32.168  0.00  0.00     0.003 A 
ATOM      3  C   UNL d   1      57.436   0.651  32.330  0.00  0.00     0.003 A 
ATOM      4  C   UNL d   1      56.761   0.010  33.416  0.00  0.00     0.085 A 
ATOM      5  C   UNL d   1      57.164   0.658  33.109  0.00  0.00     0.019 A 
ATOM      6  C   UNL d   1      56.631  -0.649  32.938  0.00  0.00     0.019 A 
ENDROOT
BRANCH   1   7
ATOM      7  C   UNL d   1      57.578  -0.010  31.079  0.00  0.00     0.101 A 
ATOM      8  N   UNL d   1      57.451   0.599  30.557  0.00  0.00    -0.221 NA
ATOM      9  C   UNL d   1      57.800   0.402  29.838  0.00  0.00     0.179 A 
ATOM     10  N   UNL d   1      58.146  -0.335  29.911  0.00  0.00    -0.282 N 
ATOM     11  S   UNL d   1      57.931   0.670  29.067  0.00  0.00    -0.048 SA
ATOM     12  C   UNL d   1      58.008  -0.594  30.687  0.00  0.00     0.101 A 
ATOM     13  C   UNL d   1      58.495  -0.533  29.192  0.00  0.00     0.089 A 
ATOM     14  C   UNL d   1      58.359   0.094  28.672  0.00  0.00     0.057 A 
ENDBRANCH   1   7
BRANCH   4  15
ATOM     15  N   UNL d   1      56.487   0.015  34.199  0.00  0.00    -0.208 NA
ATOM     16  C   UNL d   1      55.708   0.242  34.362  0.00  0.00     0.279 C 
ATOM     17  O   UNL d   1      55.435   0.248  35.135  0.00  0.00    -0.265 OA
BRANCH  16  18
ATOM     18  C   UNL d   1      55.212   0.460  33.743  0.00  0.00     0.058 A 
ATOM     19  C   UNL d   1      54.424   0.660  33.902  0.00  0.00     0.005 A 
ATOM     20  C   UNL d   1      54.707   0.682  33.123  0.00  0.00     0.005 A 
ENDBRANCH  16  18
ENDBRANCH   4  15
TORSDOF 3
ENDMDL
MODEL 4
REMARK VINA RESULT:      -2.7      9.344      9.935
REMARK  3 active torsions:
REMARK  status: ('A' for Active; 'I' for Inactive)
REMARK    1  A    between atoms: C_12  and  C_4 
REMARK       I    between atoms: C_6  and  N_11 
REMARK    2  A    between atoms: C_7  and  C_6 
REMARK    3  A    between atoms: N_11  and  C_18 
ROOT
ATOM      1  C   UNL d   1      59.232  -9.628  32.916  0.00  0.00     0.019 A 
ATOM      2  C   UNL d   1      58.864  -9.817  33.630  0.00  0.00     0.003 A 
ATOM      3  C   UNL d   1      60.013  -9.392  32.907  0.00  0.00     0.003 A 
ATOM      4  C   UNL d   1      60.069  -9.534  34.329  0.00  0.00     0.085 A 
ATOM      5  C   UNL d   1      60.433  -9.345  33.616  0.00  0.00     0.019 A 
ATOM      6  C   UNL d   1      59.280  -9.771  34.331  0.00  0.00     0.019 A 
ENDROOT
BRANCH   1   7
ATOM      7  C   UNL d   1      58.812  -9.674  32.202  0.00  0.00     0.101 A 
ATOM      8  N   UNL d   1      58.001  -9.704  32.162  0.00  0.00    -0.221 NA
ATOM      9  C   UNL d   1      57.781  -9.748  31.369  0.00  0.00     0.179 A 
ATOM     10  N   UNL d   1      58.459  -9.745  30.912  0.00  0.00    -0.282 N 
ATOM     11  S   UNL d   1      57.131  -9.793  30.862  0.00  0.00    -0.048 SA
ATOM     12  C   UNL d   1      59.104  -9.699  31.431  0.00  0.00     0.101 A 
ATOM     13  C   UNL d   1      58.240  -9.788  30.119  0.00  0.00     0.089 A 
ATOM     14  C   UNL d   1      57.415  -9.818  30.094  0.00  0.00     0.057 A 
ENDBRANCH   1   7
BRANCH   4  15
ATOM     15  N   UNL d   1      60.489  -9.487  35.043  0.00  0.00    -0.208 NA
ATOM     16  C   UNL d   1      60.344  -8.863  35.567  0.00  0.00     0.279 C 
ATOM     17  O   UNL d   1      60.758  -8.814  36.273  0.00  0.00    -0.265 OA
BRANCH  16  18
ATOM     18  C   UNL d   1      59.783  -8.294  35.374  0.00  0.00     0.058 A 
ATOM     19  C   UNL d   1      59.672  -7.642  35.874  0.00  0.00     0.005 A 
ATOM     20  C   UNL d   1      59.218  -7.716  35.184  0.00  0.00     0.005 A 
ENDBRANCH  16  18
ENDBRANCH   4  15
TORSDOF 3
ENDMDL
