MODEL 1
REMARK VINA RESULT:      -5.1      0.000      0.000
REMARK  3 active torsions:
REMARK  status: ('A' for Active; 'I' for Inactive)
REMARK    1  A    between atoms: C_6  and  C_1 
REMARK    2  A    between atoms: O_2  and  C_6 
REMARK    3  A    between atoms: C_3  and  O_2 
ROOT
ATOM      1  C   UNL d   1     -41.435-122.530 -53.235  0.00  0.00     0.134 A 
ATOM      2  C   UNL d   1     -41.320-122.180 -52.497  0.00  0.00     0.218 A 
ATOM      3  O   UNL d   1     -41.360-121.360 -52.415  0.00  0.00    -0.284 OA
ATOM      4  C   UNL d   1     -41.395-123.343 -53.321  0.00  0.00     0.028 A 
ATOM      5  C   UNL d   1     -41.164-122.640 -51.838  0.00  0.00     0.044 A 
ATOM      6  C   UNL d   1     -41.123-123.466 -51.917  0.00  0.00     0.003 A 
ATOM      7  C   UNL d   1     -41.238-123.817 -52.655  0.00  0.00     0.002 A 
ENDROOT
BRANCH   1   8
ATOM      8  O   UNL d   1     -41.592-122.064 -53.897  0.00  0.00    -0.316 OA
BRANCH   8   9
ATOM      9  C   UNL d   1     -41.805-122.426 -54.615  0.00  0.00     0.246 C 
BRANCH   9  10
ATOM     10  C   UNL d   1     -41.994-121.959 -55.264  0.00  0.00     0.217 C 
ATOM     11  O   UNL d   1     -42.771-121.855 -55.499  0.00  0.00    -0.645 OA
ATOM     12  O   UNL d   1     -41.423-121.574 -55.712  0.00  0.00    -0.645 OA
ENDBRANCH   9  10
ENDBRANCH   8   9
ENDBRANCH   1   8
TORSDOF 3
ENDMDL
MODEL 2
REMARK VINA RESULT:      -5.0      1.090      2.943
REMARK  3 active torsions:
REMARK  status: ('A' for Active; 'I' for Inactive)
REMARK    1  A    between atoms: C_6  and  C_1 
REMARK    2  A    between atoms: O_2  and  C_6 
REMARK    3  A    between atoms: C_3  and  O_2 
ROOT
ATOM      1  C   UNL d   1     -41.876-122.308 -53.996  0.00  0.00     0.134 A 
ATOM      2  C   UNL d   1     -42.421-121.932 -54.488  0.00  0.00     0.218 A 
ATOM      3  O   UNL d   1     -43.072-121.541 -54.167  0.00  0.00    -0.284 OA
ATOM      4  C   UNL d   1     -41.229-122.697 -54.311  0.00  0.00     0.028 A 
ATOM      5  C   UNL d   1     -42.322-121.943 -55.301  0.00  0.00     0.044 A 
ATOM      6  C   UNL d   1     -41.667-122.336 -55.629  0.00  0.00     0.003 A 
ATOM      7  C   UNL d   1     -41.123-122.712 -55.136  0.00  0.00     0.002 A 
ENDROOT
BRANCH   1   8
ATOM      8  O   UNL d   1     -41.978-122.295 -53.177  0.00  0.00    -0.316 OA
BRANCH   8   9
ATOM      9  C   UNL d   1     -41.335-122.470 -52.680  0.00  0.00     0.246 C 
BRANCH   9  10
ATOM     10  C   UNL d   1     -41.426-122.412 -51.865  0.00  0.00     0.217 C 
ATOM     11  O   UNL d   1     -41.827-122.985 -51.441  0.00  0.00    -0.645 OA
ATOM     12  O   UNL d   1     -41.123-121.783 -51.432  0.00  0.00    -0.645 OA
ENDBRANCH   9  10
ENDBRANCH   8   9
ENDBRANCH   1   8
TORSDOF 3
ENDMDL
MODEL 3
REMARK VINA RESULT:      -4.1      2.278      3.302
REMARK  3 active torsions:
REMARK  status: ('A' for Active; 'I' for Inactive)
REMARK    1  A    between atoms: C_6  and  C_1 
REMARK    2  A    between atoms: O_2  and  C_6 
REMARK    3  A    between atoms: C_3  and  O_2 
ROOT
ATOM      1  C   UNL d   1     -41.964-122.838 -50.174  0.00  0.00     0.134 A 
ATOM      2  C   UNL d   1     -42.652-122.833 -49.719  0.00  0.00     0.218 A 
ATOM      3  O   UNL d   1     -43.368-122.592 -50.050  0.00  0.00    -0.284 OA
ATOM      4  C   UNL d   1     -41.252-123.077 -49.847  0.00  0.00     0.028 A 
ATOM      5  C   UNL d   1     -42.634-123.066 -48.934  0.00  0.00     0.044 A 
ATOM      6  C   UNL d   1     -41.915-123.309 -48.597  0.00  0.00     0.003 A 
ATOM      7  C   UNL d   1     -41.226-123.315 -49.051  0.00  0.00     0.002 A 
ENDROOT
BRANCH   1   8
ATOM      8  O   UNL d   1     -41.985-122.603 -50.964  0.00  0.00    -0.316 OA
BRANCH   8   9
ATOM      9  C   UNL d   1     -41.282-122.585 -51.407  0.00  0.00     0.246 C 
BRANCH   9  10
ATOM     10  C   UNL d   1     -41.303-122.341 -52.192  0.00  0.00     0.217 C 
ATOM     11  O   UNL d   1     -41.123-121.570 -52.400  0.00  0.00    -0.645 OA
ATOM     12  O   UNL d   1     -41.504-122.848 -52.806  0.00  0.00    -0.645 OA
ENDBRANCH   9  10
ENDBRANCH   8   9
ENDBRANCH   1   8
TORSDOF 3
ENDMDL
MODEL 4
REMARK VINA RESULT:      -3.4      2.328      4.074
REMARK  3 active torsions:
REMARK  status: ('A' for Active; 'I' for Inactive)
REMARK    1  A    between atoms: C_6  and  C_1 
REMARK    2  A    between atoms: O_2  and  C_6 
REMARK    3  A    between atoms: C_3  and  O_2 
ROOT
ATOM      1  C   UNL d   1     -41.481-122.871 -50.998  0.00  0.00     0.134 A 
ATOM      2  C   UNL d   1     -41.366-122.254 -51.534  0.00  0.00     0.218 A 
ATOM      3  O   UNL d   1     -41.430-121.470 -51.286  0.00  0.00    -0.284 OA
ATOM      4  C   UNL d   1     -41.419-123.650 -51.241  0.00  0.00     0.028 A 
ATOM      5  C   UNL d   1     -41.188-122.411 -52.317  0.00  0.00     0.044 A 
ATOM      6  C   UNL d   1     -41.123-123.200 -52.571  0.00  0.00     0.003 A 
ATOM      7  C   UNL d   1     -41.238-123.817 -52.035  0.00  0.00     0.002 A 
ENDROOT
BRANCH   1   8
ATOM      8  O   UNL d   1     -41.661-122.709 -50.210  0.00  0.00    -0.316 OA
BRANCH   8   9
ATOM      9  C   UNL d   1     -42.007-123.299 -49.737  0.00  0.00     0.246 C 
BRANCH   9  10
ATOM     10  C   UNL d   1     -42.227-123.122 -48.965  0.00  0.00     0.217 C 
ATOM     11  O   UNL d   1     -41.678-123.119 -48.358  0.00  0.00    -0.645 OA
ATOM     12  O   UNL d   1     -43.001-122.941 -48.758  0.00  0.00    -0.645 OA
ENDBRANCH   9  10
ENDBRANCH   8   9
ENDBRANCH   1   8
TORSDOF 3
ENDMDL
MODEL 5
REMARK VINA RESULT:      -2.7      0.886      1.330
REMARK  3 active torsions:
REMARK  status: ('A' for Active; 'I' for Inactive)
REMARK    1  A    between atoms: C_6  and  C_1 
REMARK    2  A    between atoms: O_2  and  C_6 
REMARK    3  A    between atoms: C_3  and  O_2 
ROOT
ATOM      1  C   UNL d   1     -41.445-122.387 -52.752  0.00  0.00     0.134 A 
ATOM      2  C   UNL d   1     -41.366-123.090 -52.328  0.00  0.00     0.218 A 
ATOM      3  O   UNL d   1     -41.447-123.817 -52.710  0.00  0.00    -0.284 OA
ATOM      4  C   UNL d   1     -41.365-121.664 -52.376  0.00  0.00     0.028 A 
ATOM      5  C   UNL d   1     -41.205-123.077 -51.526  0.00  0.00     0.044 A 
ATOM      6  C   UNL d   1     -41.122-122.346 -51.137  0.00  0.00     0.003 A 
ATOM      7  C   UNL d   1     -41.202-121.643 -51.561  0.00  0.00     0.002 A 
ENDROOT
BRANCH   1   8
ATOM      8  O   UNL d   1     -41.607-122.404 -53.560  0.00  0.00    -0.316 OA
BRANCH   8   9
ATOM      9  C   UNL d   1     -42.035-121.782 -53.908  0.00  0.00     0.246 C 
BRANCH   9  10
ATOM     10  C   UNL d   1     -42.227-121.818 -54.706  0.00  0.00     0.217 C 
ATOM     11  O   UNL d   1     -42.999-121.936 -54.951  0.00  0.00    -0.645 OA
ATOM     12  O   UNL d   1     -41.664-121.738 -55.299  0.00  0.00    -0.645 OA
ENDBRANCH   9  10
ENDBRANCH   8   9
ENDBRANCH   1   8
TORSDOF 3
ENDMDL
MODEL 6
REMARK VINA RESULT:      -2.2      3.245      5.002
REMARK  3 active torsions:
REMARK  status: ('A' for Active; 'I' for Inactive)
REMARK    1  A    between atoms: C_6  and  C_1 
REMARK    2  A    between atoms: O_2  and  C_6 
REMARK    3  A    between atoms: C_3  and  O_2 
ROOT
ATOM      1  C   UNL d   1     -41.952-123.137 -49.882  0.00  0.00     0.134 A 
ATOM      2  C   UNL d   1     -41.971-122.470 -50.367  0.00  0.00     0.218 A 
ATOM      3  O   UNL d   1     -42.395-121.801 -50.137  0.00  0.00    -0.284 OA
ATOM      4  C   UNL d   1     -41.532-123.803 -50.108  0.00  0.00     0.028 A 
ATOM      5  C   UNL d   1     -41.571-122.462 -51.081  0.00  0.00     0.044 A 
ATOM      6  C   UNL d   1     -41.143-123.135 -51.317  0.00  0.00     0.003 A 
ATOM      7  C   UNL d   1     -41.123-123.802 -50.832  0.00  0.00     0.002 A 
ENDROOT
BRANCH   1   8
ATOM      8  O   UNL d   1     -42.356-123.141 -49.164  0.00  0.00    -0.316 OA
BRANCH   8   9
ATOM      9  C   UNL d   1     -41.944-123.307 -48.461  0.00  0.00     0.246 C 
BRANCH   9  10
ATOM     10  C   UNL d   1     -42.303-123.160 -47.736  0.00  0.00     0.217 C 
ATOM     11  O   UNL d   1     -42.962-123.581 -47.496  0.00  0.00    -0.645 OA
ATOM     12  O   UNL d   1     -42.026-122.588 -47.215  0.00  0.00    -0.645 OA
ENDBRANCH   9  10
ENDBRANCH   8   9
ENDBRANCH   1   8
TORSDOF 3
ENDMDL
