MODEL 1
REMARK VINA RESULT:      13.7      0.000      0.000
REMARK  4 active torsions:
REMARK  status: ('A' for Active; 'I' for Inactive)
REMARK    1  A    between atoms: C_6  and  C_1 
REMARK    2  A    between atoms: C_4  and  C_8 
REMARK    3  A    between atoms: O_18  and  C_6 
REMARK    4  A    between atoms: C_19  and  O_18 
ROOT
ATOM      1  C   UNL d   1      45.481 -13.744  44.367  0.00  0.00     0.121 A 
ATOM      2  C   UNL d   1      45.619 -15.162  44.378  0.00  0.00     0.057 A 
ATOM      3  C   UNL d   1      45.912 -14.416  44.183  0.00  0.00     0.204 A 
ATOM      4  C   UNL d   1      46.059 -15.833  44.190  0.00  0.00     0.009 A 
ATOM      5  N   UNL d   1      44.452 -14.559  44.946  0.00  0.00    -0.244 NA
ATOM      6  C   UNL d   1      45.769 -16.579  44.383  0.00  0.00     0.072 A 
ATOM      7  C   UNL d   1      44.745 -13.812  44.751  0.00  0.00     0.107 A 
ATOM      8  C   UNL d   1      44.891 -15.238  44.758  0.00  0.00     0.085 A 
ATOM      9  C   UNL d   1      45.041 -16.655  44.764  0.00  0.00     0.005 A 
ATOM     10  C   UNL d   1      44.603 -15.984  44.951  0.00  0.00     0.019 A 
ATOM     11  O   UNL d   1      46.641 -14.344  43.802  0.00  0.00    -0.286 OA
ENDROOT
BRANCH   1  12
ATOM     12  C   UNL d   1      45.770 -12.998  44.174  0.00  0.00     0.305 C 
ATOM     13  O   UNL d   1      46.110 -12.523  44.757  0.00  0.00    -0.259 OA
BRANCH  12  14
ATOM     14  O   UNL d   1      45.722 -12.717  43.396  0.00  0.00    -0.271 OA
BRANCH  14  15
ATOM     15  C   UNL d   1      45.048 -12.311  43.148  0.00  0.00     0.126 C 
ATOM     16  C   UNL d   1      44.950 -12.135  42.346  0.00  0.00     0.029 C 
ENDBRANCH  14  15
ENDBRANCH  12  14
ENDBRANCH   1  12
BRANCH   6  17
ATOM     17  C   UNL d   1      46.208 -17.250  44.195  0.00  0.00     0.419 C 
ATOM     18  F   UNL d   1      46.581 -17.308  43.461  0.00  0.00    -0.166 F 
ATOM     19  F   UNL d   1      46.276 -17.866  44.742  0.00  0.00    -0.166 F 
ATOM     20  F   UNL d   1      45.837 -17.196  44.929  0.00  0.00    -0.166 F 
ENDBRANCH   6  17
TORSDOF 4
ENDMDL
MODEL 2
REMARK VINA RESULT:      15.5      7.416      8.183
REMARK  4 active torsions:
REMARK  status: ('A' for Active; 'I' for Inactive)
REMARK    1  A    between atoms: C_6  and  C_1 
REMARK    2  A    between atoms: C_4  and  C_8 
REMARK    3  A    between atoms: O_18  and  C_6 
REMARK    4  A    between atoms: C_19  and  O_18 
ROOT
ATOM      1  C   UNL d   1      43.207 -15.653  36.614  0.00  0.00     0.121 A 
ATOM      2  C   UNL d   1      44.535 -15.170  36.804  0.00  0.00     0.057 A 
ATOM      3  C   UNL d   1      43.719 -15.051  36.833  0.00  0.00     0.204 A 
ATOM      4  C   UNL d   1      45.043 -14.561  37.026  0.00  0.00     0.009 A 
ATOM      5  N   UNL d   1      44.327 -16.505  36.331  0.00  0.00    -0.244 NA
ATOM      6  C   UNL d   1      45.857 -14.676  36.998  0.00  0.00     0.072 A 
ATOM      7  C   UNL d   1      43.510 -16.386  36.360  0.00  0.00     0.107 A 
ATOM      8  C   UNL d   1      44.842 -15.894  36.554  0.00  0.00     0.085 A 
ATOM      9  C   UNL d   1      46.164 -15.400  36.747  0.00  0.00     0.005 A 
ATOM     10  C   UNL d   1      45.657 -16.008  36.525  0.00  0.00     0.019 A 
ATOM     11  O   UNL d   1      43.415 -14.326  37.084  0.00  0.00    -0.286 OA
ENDROOT
BRANCH   1  12
ATOM     12  C   UNL d   1      42.393 -15.538  36.642  0.00  0.00     0.305 C 
ATOM     13  O   UNL d   1      42.087 -14.790  36.804  0.00  0.00    -0.259 OA
BRANCH  12  14
ATOM     14  O   UNL d   1      41.875 -16.171  36.509  0.00  0.00    -0.271 OA
BRANCH  14  15
ATOM     15  C   UNL d   1      41.063 -16.035  36.472  0.00  0.00     0.126 C 
ATOM     16  C   UNL d   1      40.548 -16.669  36.345  0.00  0.00     0.029 C 
ENDBRANCH  14  15
ENDBRANCH  12  14
ENDBRANCH   1  12
BRANCH   6  17
ATOM     17  C   UNL d   1      46.365 -14.067  37.220  0.00  0.00     0.419 C 
ATOM     18  F   UNL d   1      46.598 -13.500  36.667  0.00  0.00    -0.166 F 
ATOM     19  F   UNL d   1      46.641 -14.023  37.998  0.00  0.00    -0.166 F 
ATOM     20  F   UNL d   1      46.134 -14.631  37.775  0.00  0.00    -0.166 F 
ENDBRANCH   6  17
TORSDOF 4
ENDMDL
