MODEL 1
REMARK VINA RESULT:      -8.4      0.000      0.000
REMARK  6 active torsions:
REMARK  status: ('A' for Active; 'I' for Inactive)
REMARK    1  A    between atoms: C_3  and  S_1 
REMARK    2  A    between atoms: N_4  and  S_1 
REMARK    3  A    between atoms: S_2  and  C_7 
REMARK    4  A    between atoms: C_8  and  S_2 
REMARK    5  A    between atoms: C_6  and  C_9 
REMARK       I    between atoms: N_10  and  C_6 
REMARK    6  A    between atoms: C_17  and  N_10 
ROOT
ATOM      1  C   UNL d   1      53.659  33.345  53.792  0.00  0.00     0.115 A 
ATOM      2  C   UNL d   1      53.046  33.548  53.275  0.00  0.00     0.019 A 
ATOM      3  C   UNL d   1      52.444  34.037  53.549  0.00  0.00     0.059 A 
ATOM      4  C   UNL d   1      53.666  33.625  54.555  0.00  0.00     0.070 A 
ATOM      5  C   UNL d   1      52.450  34.317  54.312  0.00  0.00     0.006 A 
ATOM      6  C   UNL d   1      53.059  34.115  54.822  0.00  0.00     0.012 A 
ATOM      7 CL   UNL d   1      54.290  33.414  55.068  0.00  0.00    -0.082 Cl
ENDROOT
BRANCH   3   8
ATOM      8  C   UNL d   1      51.814  34.255  53.046  0.00  0.00     0.279 C 
ATOM      9  N   UNL d   1      51.037  34.083  53.252  0.00  0.00    -0.208 NA
ATOM     10  O   UNL d   1      51.970  34.645  52.336  0.00  0.00    -0.265 OA
BRANCH   9  11
ATOM     11  C   UNL d   1      50.420  34.300  52.751  0.00  0.00     0.085 A 
ATOM     12  C   UNL d   1      49.821  34.816  53.025  0.00  0.00     0.031 A 
ATOM     13  C   UNL d   1      49.194  35.039  52.522  0.00  0.00     0.094 A 
ATOM     14  C   UNL d   1      49.160  34.745  51.734  0.00  0.00     0.012 A 
ATOM     15  C   UNL d   1      49.758  34.229  51.460  0.00  0.00     0.002 A 
ATOM     16  C   UNL d   1      50.385  34.006  51.963  0.00  0.00     0.019 A 
BRANCH  13  17
ATOM     17  S   UNL d   1      48.682  35.541  52.905  0.00  0.00     0.262 S 
ATOM     18  O   UNL d   1      48.158  36.046  53.280  0.00  0.00    -0.213 OA
ATOM     19  O   UNL d   1      49.167  35.576  53.553  0.00  0.00    -0.213 OA
BRANCH  17  20
ATOM     20  C   UNL d   1      48.181  35.514  52.253  0.00  0.00     0.364 C 
ATOM     21  F   UNL d   1      47.618  34.934  52.199  0.00  0.00    -0.159 F 
ATOM     22  F   UNL d   1      48.248  36.071  51.658  0.00  0.00    -0.159 F 
ENDBRANCH  17  20
ENDBRANCH  13  17
ENDBRANCH   9  11
ENDBRANCH   3   8
BRANCH   1  23
ATOM     23  S   UNL d   1      54.261  32.851  53.507  0.00  0.00     0.272 S 
ATOM     24  O   UNL d   1      54.769  33.511  53.446  0.00  0.00    -0.200 OA
ATOM     25  O   UNL d   1      54.872  32.381  53.222  0.00  0.00    -0.200 OA
BRANCH  23  26
ATOM     26  N   UNL d   1      53.777  32.196  53.560  0.00  0.00    -0.225 N 
ATOM     27  C   UNL d   1      53.682  31.807  54.275  0.00  0.00     0.118 A 
ATOM     28  C   UNL d   1      53.195  31.149  54.324  0.00  0.00     0.142 A 
ATOM     29  O   UNL d   1      52.803  30.878  53.666  0.00  0.00    -0.300 OA
ATOM     30  C   UNL d   1      52.892  31.266  52.934  0.00  0.00     0.142 A 
ATOM     31  C   UNL d   1      53.379  31.921  52.893  0.00  0.00     0.118 A 
ENDBRANCH  23  26
ENDBRANCH   1  23
TORSDOF 6
ENDMDL
MODEL 2
REMARK VINA RESULT:      -8.0      1.189      1.998
REMARK  6 active torsions:
REMARK  status: ('A' for Active; 'I' for Inactive)
REMARK    1  A    between atoms: C_3  and  S_1 
REMARK    2  A    between atoms: N_4  and  S_1 
REMARK    3  A    between atoms: S_2  and  C_7 
REMARK    4  A    between atoms: C_8  and  S_2 
REMARK    5  A    between atoms: C_6  and  C_9 
REMARK       I    between atoms: N_10  and  C_6 
REMARK    6  A    between atoms: C_17  and  N_10 
ROOT
ATOM      1  C   UNL d   1      52.729  33.441  53.279  0.00  0.00     0.115 A 
ATOM      2  C   UNL d   1      52.147  33.913  52.926  0.00  0.00     0.019 A 
ATOM      3  C   UNL d   1      51.374  33.631  52.899  0.00  0.00     0.059 A 
ATOM      4  C   UNL d   1      52.541  32.715  53.590  0.00  0.00     0.070 A 
ATOM      5  C   UNL d   1      51.186  32.905  53.210  0.00  0.00     0.006 A 
ATOM      6  C   UNL d   1      51.764  32.440  53.558  0.00  0.00     0.012 A 
ATOM      7 CL   UNL d   1      53.136  32.248  53.943  0.00  0.00    -0.082 Cl
ENDROOT
BRANCH   3   8
ATOM      8  C   UNL d   1      50.770  34.088  52.549  0.00  0.00     0.279 C 
ATOM      9  N   UNL d   1      50.050  34.191  52.932  0.00  0.00    -0.208 NA
ATOM     10  O   UNL d   1      50.893  34.441  51.813  0.00  0.00    -0.265 OA
BRANCH   9  11
ATOM     11  C   UNL d   1      49.458  34.644  52.582  0.00  0.00     0.085 A 
ATOM     12  C   UNL d   1      49.046  35.216  53.033  0.00  0.00     0.031 A 
ATOM     13  C   UNL d   1      48.445  35.677  52.684  0.00  0.00     0.094 A 
ATOM     14  C   UNL d   1      48.249  35.569  51.872  0.00  0.00     0.012 A 
ATOM     15  C   UNL d   1      48.660  34.998  51.421  0.00  0.00     0.002 A 
ATOM     16  C   UNL d   1      49.261  34.537  51.770  0.00  0.00     0.019 A 
BRANCH  13  17
ATOM     17  S   UNL d   1      48.125  36.191  53.225  0.00  0.00     0.262 S 
ATOM     18  O   UNL d   1      47.791  36.709  53.764  0.00  0.00    -0.213 OA
ATOM     19  O   UNL d   1      48.821  36.224  53.638  0.00  0.00    -0.213 OA
BRANCH  17  20
ATOM     20  C   UNL d   1      47.413  36.167  52.815  0.00  0.00     0.364 C 
ATOM     21  F   UNL d   1      47.268  36.700  52.222  0.00  0.00    -0.159 F 
ATOM     22  F   UNL d   1      46.847  35.606  53.002  0.00  0.00    -0.159 F 
ENDBRANCH  17  20
ENDBRANCH  13  17
ENDBRANCH   9  11
ENDBRANCH   3   8
BRANCH   1  23
ATOM     23  S   UNL d   1      53.505  33.734  53.302  0.00  0.00     0.272 S 
ATOM     24  O   UNL d   1      53.710  33.231  52.668  0.00  0.00    -0.200 OA
ATOM     25  O   UNL d   1      54.279  34.010  53.307  0.00  0.00    -0.200 OA
BRANCH  23  26
ATOM     26  N   UNL d   1      53.320  34.232  53.922  0.00  0.00    -0.225 N 
ATOM     27  C   UNL d   1      53.322  33.954  54.693  0.00  0.00     0.118 A 
ATOM     28  C   UNL d   1      53.136  34.458  55.312  0.00  0.00     0.142 A 
ATOM     29  O   UNL d   1      52.948  35.235  55.168  0.00  0.00    -0.300 OA
ATOM     30  C   UNL d   1      52.943  35.529  54.388  0.00  0.00     0.142 A 
ATOM     31  C   UNL d   1      53.130  35.020  53.776  0.00  0.00     0.118 A 
ENDBRANCH  23  26
ENDBRANCH   1  23
TORSDOF 6
ENDMDL
MODEL 3
REMARK VINA RESULT:      -7.8      2.997      5.198
REMARK  6 active torsions:
REMARK  status: ('A' for Active; 'I' for Inactive)
REMARK    1  A    between atoms: C_3  and  S_1 
REMARK    2  A    between atoms: N_4  and  S_1 
REMARK    3  A    between atoms: S_2  and  C_7 
REMARK    4  A    between atoms: C_8  and  S_2 
REMARK    5  A    between atoms: C_6  and  C_9 
REMARK       I    between atoms: N_10  and  C_6 
REMARK    6  A    between atoms: C_17  and  N_10 
ROOT
ATOM      1  C   UNL d   1      53.077  34.222  53.640  0.00  0.00     0.115 A 
ATOM      2  C   UNL d   1      53.165  33.428  53.421  0.00  0.00     0.019 A 
ATOM      3  C   UNL d   1      53.401  32.885  53.993  0.00  0.00     0.059 A 
ATOM      4  C   UNL d   1      53.221  34.458  54.403  0.00  0.00     0.070 A 
ATOM      5  C   UNL d   1      53.545  33.121  54.756  0.00  0.00     0.006 A 
ATOM      6  C   UNL d   1      53.457  33.907  54.971  0.00  0.00     0.012 A 
ATOM      7 CL   UNL d   1      53.129  35.261  54.613  0.00  0.00    -0.082 Cl
ENDROOT
BRANCH   3   8
ATOM      8  C   UNL d   1      53.496  32.079  53.795  0.00  0.00     0.279 C 
ATOM      9  N   UNL d   1      52.901  31.537  53.962  0.00  0.00    -0.208 NA
ATOM     10  O   UNL d   1      54.190  31.823  53.430  0.00  0.00    -0.265 OA
BRANCH   9  11
ATOM     11  C   UNL d   1      53.000  30.743  53.765  0.00  0.00     0.085 A 
ATOM     12  C   UNL d   1      53.058  30.166  54.368  0.00  0.00     0.031 A 
ATOM     13  C   UNL d   1      53.159  29.360  54.174  0.00  0.00     0.094 A 
ATOM     14  C   UNL d   1      53.203  29.123  53.367  0.00  0.00     0.012 A 
ATOM     15  C   UNL d   1      53.145  29.700  52.765  0.00  0.00     0.002 A 
ATOM     16  C   UNL d   1      53.044  30.505  52.959  0.00  0.00     0.019 A 
BRANCH  13  17
ATOM     17  S   UNL d   1      53.201  28.905  54.846  0.00  0.00     0.262 S 
ATOM     18  O   UNL d   1      53.253  28.440  55.517  0.00  0.00    -0.213 OA
ATOM     19  O   UNL d   1      52.602  29.325  55.194  0.00  0.00    -0.213 OA
BRANCH  17  20
ATOM     20  C   UNL d   1      53.810  28.471  54.504  0.00  0.00     0.364 C 
ATOM     21  F   UNL d   1      53.656  27.746  54.177  0.00  0.00    -0.159 F 
ATOM     22  F   UNL d   1      54.572  28.769  54.492  0.00  0.00    -0.159 F 
ENDBRANCH  17  20
ENDBRANCH  13  17
ENDBRANCH   9  11
ENDBRANCH   3   8
BRANCH   1  23
ATOM     23  S   UNL d   1      52.840  34.761  53.057  0.00  0.00     0.272 S 
ATOM     24  O   UNL d   1      53.614  35.072  53.033  0.00  0.00    -0.200 OA
ATOM     25  O   UNL d   1      52.626  35.305  52.479  0.00  0.00    -0.200 OA
BRANCH  23  26
ATOM     26  N   UNL d   1      52.077  34.469  53.069  0.00  0.00    -0.225 N 
ATOM     27  C   UNL d   1      51.572  34.651  53.687  0.00  0.00     0.118 A 
ATOM     28  C   UNL d   1      50.807  34.355  53.694  0.00  0.00     0.142 A 
ATOM     29  O   UNL d   1      50.544  33.881  53.090  0.00  0.00    -0.300 OA
ATOM     30  C   UNL d   1      51.049  33.689  52.455  0.00  0.00     0.142 A 
ATOM     31  C   UNL d   1      51.810  33.988  52.455  0.00  0.00     0.118 A 
ENDBRANCH  23  26
ENDBRANCH   1  23
TORSDOF 6
ENDMDL
MODEL 4
REMARK VINA RESULT:      -7.5      3.507      5.107
REMARK  6 active torsions:
REMARK  status: ('A' for Active; 'I' for Inactive)
REMARK    1  A    between atoms: C_3  and  S_1 
REMARK    2  A    between atoms: N_4  and  S_1 
REMARK    3  A    between atoms: S_2  and  C_7 
REMARK    4  A    between atoms: C_8  and  S_2 
REMARK    5  A    between atoms: C_6  and  C_9 
REMARK       I    between atoms: N_10  and  C_6 
REMARK    6  A    between atoms: C_17  and  N_10 
ROOT
ATOM      1  C   UNL d   1      52.988  34.115  54.042  0.00  0.00     0.115 A 
ATOM      2  C   UNL d   1      52.841  33.300  54.052  0.00  0.00     0.019 A 
ATOM      3  C   UNL d   1      52.754  32.907  53.335  0.00  0.00     0.059 A 
ATOM      4  C   UNL d   1      53.045  34.516  53.339  0.00  0.00     0.070 A 
ATOM      5  C   UNL d   1      52.811  33.308  52.631  0.00  0.00     0.006 A 
ATOM      6  C   UNL d   1      52.957  34.114  52.624  0.00  0.00     0.012 A 
ATOM      7 CL   UNL d   1      53.193  35.338  53.340  0.00  0.00    -0.082 Cl
ENDROOT
BRANCH   3   8
ATOM      8  C   UNL d   1      52.606  32.085  53.320  0.00  0.00     0.279 C 
ATOM      9  N   UNL d   1      53.229  31.549  53.339  0.00  0.00    -0.208 NA
ATOM     10  O   UNL d   1      51.830  31.806  53.286  0.00  0.00    -0.265 OA
BRANCH   9  11
ATOM     11  C   UNL d   1      53.076  30.739  53.324  0.00  0.00     0.085 A 
ATOM     12  C   UNL d   1      53.180  30.281  54.015  0.00  0.00     0.031 A 
ATOM     13  C   UNL d   1      53.027  29.460  54.006  0.00  0.00     0.094 A 
ATOM     14  C   UNL d   1      52.766  29.089  53.296  0.00  0.00     0.012 A 
ATOM     15  C   UNL d   1      52.662  29.547  52.605  0.00  0.00     0.002 A 
ATOM     16  C   UNL d   1      52.815  30.367  52.615  0.00  0.00     0.019 A 
BRANCH  13  17
ATOM     17  S   UNL d   1      53.166  29.133  54.736  0.00  0.00     0.262 S 
ATOM     18  O   UNL d   1      53.314  28.795  55.466  0.00  0.00    -0.213 OA
ATOM     19  O   UNL d   1      52.613  29.614  55.081  0.00  0.00    -0.213 OA
BRANCH  17  20
ATOM     20  C   UNL d   1      53.729  28.638  54.398  0.00  0.00     0.364 C 
ATOM     21  F   UNL d   1      53.538  27.873  54.213  0.00  0.00    -0.159 F 
ATOM     22  F   UNL d   1      54.484  28.916  54.247  0.00  0.00    -0.159 F 
ENDBRANCH  17  20
ENDBRANCH  13  17
ENDBRANCH   9  11
ENDBRANCH   3   8
BRANCH   1  23
ATOM     23  S   UNL d   1      53.074  34.503  54.770  0.00  0.00     0.272 S 
ATOM     24  O   UNL d   1      52.320  34.847  54.672  0.00  0.00    -0.200 OA
ATOM     25  O   UNL d   1      53.137  34.897  55.489  0.00  0.00    -0.200 OA
BRANCH  23  26
ATOM     26  N   UNL d   1      53.813  34.175  54.881  0.00  0.00    -0.225 N 
ATOM     27  C   UNL d   1      54.458  34.452  54.460  0.00  0.00     0.118 A 
ATOM     28  C   UNL d   1      55.199  34.119  54.575  0.00  0.00     0.142 A 
ATOM     29  O   UNL d   1      55.299  33.513  55.106  0.00  0.00    -0.300 OA
ATOM     30  C   UNL d   1      54.650  33.223  55.541  0.00  0.00     0.142 A 
ATOM     31  C   UNL d   1      53.915  33.560  55.420  0.00  0.00     0.118 A 
ENDBRANCH  23  26
ENDBRANCH   1  23
TORSDOF 6
ENDMDL
