MODEL 1
REMARK VINA RESULT:      76.5      0.000      0.000
REMARK  6 active torsions:
REMARK  status: ('A' for Active; 'I' for Inactive)
REMARK    1  A    between atoms: C_8  and  C_1 
REMARK    2  A    between atoms: C_13  and  N_2 
REMARK    3  A    between atoms: C_7  and  C_4 
REMARK    4  A    between atoms: C_6  and  C_8 
REMARK    5  A    between atoms: C_22  and  C_13 
REMARK    6  A    between atoms: N_18  and  C_22 
ROOT
ATOM      1  C   UNL d   1      45.259 -16.652  38.526  0.00  0.00     0.103 A 
ATOM      2  N   UNL d   1      44.249 -16.222  37.760  0.00  0.00    -0.267 N 
ATOM      3  C   UNL d   1      44.583 -17.079  38.737  0.00  0.00     0.256 A 
ATOM      4  C   UNL d   1      45.052 -16.128  37.927  0.00  0.00     0.096 A 
ATOM      5  C   UNL d   1      43.959 -16.813  38.264  0.00  0.00     0.304 A 
ATOM      6  O   UNL d   1      43.179 -17.090  38.290  0.00  0.00    -0.263 OA
ATOM      7  O   UNL d   1      44.527 -17.664  39.311  0.00  0.00    -0.281 OA
ENDROOT
BRANCH   1   8
ATOM      8  C   UNL d   1      46.006 -16.743  38.862  0.00  0.00     0.223 C 
ATOM      9  O   UNL d   1      46.644 -16.296  38.577  0.00  0.00    -0.284 OA
BRANCH   8  10
ATOM     10  C   UNL d   1      46.125 -17.278  39.482  0.00  0.00     0.139 A 
ATOM     11  O   UNL d   1      46.393 -18.056  39.407  0.00  0.00    -0.304 OA
ATOM     12  C   UNL d   1      46.429 -18.384  40.157  0.00  0.00     0.100 A 
ATOM     13  C   UNL d   1      46.647 -19.112  40.430  0.00  0.00     0.025 A 
ATOM     14  C   UNL d   1      46.184 -17.810  40.698  0.00  0.00     0.025 A 
ATOM     15  C   UNL d   1      46.629 -19.291  41.223  0.00  0.00     0.002 A 
ATOM     16  C   UNL d   1      46.385 -18.721  41.766  0.00  0.00     0.000 A 
ATOM     17  C   UNL d   1      46.164 -17.981  41.491  0.00  0.00     0.002 A 
ATOM     18  C   UNL d   1      45.996 -17.125  40.273  0.00  0.00     0.030 A 
ENDBRANCH   8  10
ENDBRANCH   1   8
BRANCH   4  19
ATOM     19  C   UNL d   1      45.566 -15.592  37.552  0.00  0.00     0.116 A 
ATOM     20  O   UNL d   1      45.617 -14.778  37.586  0.00  0.00    -0.306 OA
ATOM     21  C   UNL d   1      46.232 -14.541  37.102  0.00  0.00     0.100 A 
ATOM     22  C   UNL d   1      46.468 -13.760  36.979  0.00  0.00     0.027 C 
ATOM     23  C   UNL d   1      46.566 -15.215  36.763  0.00  0.00     0.027 A 
ATOM     24  C   UNL d   1      46.155 -15.867  37.042  0.00  0.00     0.028 A 
ENDBRANCH   4  19
BRANCH   2  25
ATOM     25  C   UNL d   1      43.817 -15.810  37.202  0.00  0.00     0.102 C 
BRANCH  25  26
ATOM     26  C   UNL d   1      43.198 -16.181  36.803  0.00  0.00     0.100 C 
BRANCH  26  27
ATOM     27  N   UNL d   1      42.497 -15.771  36.654  0.00  0.00    -0.298 N 
ATOM     28  C   UNL d   1      41.810 -16.182  36.480  0.00  0.00     0.107 A 
ATOM     29  C   UNL d   1      41.107 -15.779  36.330  0.00  0.00     0.142 A 
ATOM     30  O   UNL d   1      41.094 -14.960  36.356  0.00  0.00    -0.300 OA
ATOM     31  C   UNL d   1      41.782 -14.538  36.531  0.00  0.00     0.142 A 
ATOM     32  C   UNL d   1      42.486 -14.951  36.681  0.00  0.00     0.107 A 
ENDBRANCH  26  27
ENDBRANCH  25  26
ENDBRANCH   2  25
TORSDOF 6
ENDMDL
