MODEL 1
REMARK VINA RESULT:      68.6      0.000      0.000
REMARK  2 active torsions:
REMARK  status: ('A' for Active; 'I' for Inactive)
REMARK    1  A    between atoms: C_6  and  C_1 
REMARK    2  A    between atoms: C_7  and  C_3 
ROOT
ATOM      1  C   UNL d   1      58.723  49.375  51.207  0.00  0.00     0.081 A 
ATOM      2  N   UNL d   1      58.595  49.531  52.002  0.00  0.00    -0.246 NA
ATOM      3  C   UNL d   1      59.532  49.313  51.087  0.00  0.00     0.019 A 
ATOM      4  C   UNL d   1      59.905  49.431  51.806  0.00  0.00     0.019 A 
ATOM      5  C   UNL d   1      59.332  49.567  52.376  0.00  0.00     0.081 A 
ATOM      6  C   UNL d   1      60.710  49.431  52.008  0.00  0.00     0.002 A 
ATOM      7  C   UNL d   1      59.553  49.704  53.158  0.00  0.00     0.019 A 
ATOM      8  C   UNL d   1      60.924  49.570  52.797  0.00  0.00     0.000 A 
ATOM      9  C   UNL d   1      60.345  49.707  53.372  0.00  0.00     0.002 A 
ENDROOT
BRANCH   1  10
ATOM     10  C   UNL d   1      58.002  49.332  50.798  0.00  0.00     0.018 A 
ATOM     11  C   UNL d   1      57.926  49.708  50.075  0.00  0.00     0.002 A 
ATOM     12  C   UNL d   1      57.211  49.664  49.672  0.00  0.00     0.000 A 
ATOM     13  C   UNL d   1      56.577  49.249  49.987  0.00  0.00     0.000 A 
ATOM     14  C   UNL d   1      56.664  48.873  50.718  0.00  0.00     0.000 A 
ATOM     15  C   UNL d   1      57.372  48.915  51.121  0.00  0.00     0.002 A 
ENDBRANCH   1  10
BRANCH   3  16
ATOM     16  C   UNL d   1      59.900  49.158  50.359  0.00  0.00     0.002 A 
ATOM     17  C   UNL d   1      60.329  48.462  50.248  0.00  0.00     0.000 A 
ATOM     18  C   UNL d   1      60.691  48.312  49.528  0.00  0.00     0.000 A 
ATOM     19  C   UNL d   1      60.632  48.856  48.902  0.00  0.00     0.000 A 
ATOM     20  C   UNL d   1      60.199  49.559  49.012  0.00  0.00     0.000 A 
ATOM     21  C   UNL d   1      59.834  49.708  49.740  0.00  0.00     0.000 A 
ENDBRANCH   3  16
TORSDOF 2
ENDMDL
MODEL 2
REMARK VINA RESULT:      68.7      1.230      3.089
REMARK  2 active torsions:
REMARK  status: ('A' for Active; 'I' for Inactive)
REMARK    1  A    between atoms: C_6  and  C_1 
REMARK    2  A    between atoms: C_7  and  C_3 
ROOT
ATOM      1  C   UNL d   1      58.469  49.427  51.769  0.00  0.00     0.081 A 
ATOM      2  N   UNL d   1      58.461  49.483  52.587  0.00  0.00    -0.246 NA
ATOM      3  C   UNL d   1      57.694  49.469  51.503  0.00  0.00     0.019 A 
ATOM      4  C   UNL d   1      57.206  49.551  52.156  0.00  0.00     0.019 A 
ATOM      5  C   UNL d   1      57.673  49.561  52.829  0.00  0.00     0.081 A 
ATOM      6  C   UNL d   1      56.381  49.619  52.214  0.00  0.00     0.002 A 
ATOM      7  C   UNL d   1      57.325  49.638  53.572  0.00  0.00     0.019 A 
ATOM      8  C   UNL d   1      56.038  49.697  52.965  0.00  0.00     0.000 A 
ATOM      9  C   UNL d   1      56.510  49.707  53.644  0.00  0.00     0.002 A 
ENDROOT
BRANCH   1  10
ATOM     10  C   UNL d   1      59.246  49.347  51.490  0.00  0.00     0.018 A 
ATOM     11  C   UNL d   1      59.388  48.911  50.812  0.00  0.00     0.002 A 
ATOM     12  C   UNL d   1      60.159  48.834  50.537  0.00  0.00     0.000 A 
ATOM     13  C   UNL d   1      60.783  49.188  50.935  0.00  0.00     0.000 A 
ATOM     14  C   UNL d   1      60.630  49.627  51.618  0.00  0.00     0.000 A 
ATOM     15  C   UNL d   1      59.865  49.705  51.894  0.00  0.00     0.002 A 
ENDBRANCH   1  10
BRANCH   3  16
ATOM     16  C   UNL d   1      57.455  49.434  50.709  0.00  0.00     0.002 A 
ATOM     17  C   UNL d   1      56.708  49.704  50.485  0.00  0.00     0.000 A 
ATOM     18  C   UNL d   1      56.475  49.667  49.700  0.00  0.00     0.000 A 
ATOM     19  C   UNL d   1      56.986  49.359  49.120  0.00  0.00     0.000 A 
ATOM     20  C   UNL d   1      57.740  49.086  49.345  0.00  0.00     0.000 A 
ATOM     21  C   UNL d   1      57.972  49.124  50.139  0.00  0.00     0.000 A 
ENDBRANCH   3  16
TORSDOF 2
ENDMDL
MODEL 3
REMARK VINA RESULT:      69.6      0.660      2.890
REMARK  2 active torsions:
REMARK  status: ('A' for Active; 'I' for Inactive)
REMARK    1  A    between atoms: C_6  and  C_1 
REMARK    2  A    between atoms: C_7  and  C_3 
ROOT
ATOM      1  C   UNL d   1      59.120  49.490  51.601  0.00  0.00     0.081 A 
ATOM      2  N   UNL d   1      58.324  49.661  51.703  0.00  0.00    -0.246 NA
ATOM      3  C   UNL d   1      59.244  49.319  50.808  0.00  0.00     0.019 A 
ATOM      4  C   UNL d   1      58.526  49.385  50.419  0.00  0.00     0.019 A 
ATOM      5  C   UNL d   1      57.954  49.596  50.966  0.00  0.00     0.081 A 
ATOM      6  C   UNL d   1      58.327  49.276  49.621  0.00  0.00     0.002 A 
ATOM      7  C   UNL d   1      57.172  49.701  50.725  0.00  0.00     0.019 A 
ATOM      8  C   UNL d   1      57.539  49.384  49.387  0.00  0.00     0.000 A 
ATOM      9  C   UNL d   1      56.961  49.596  49.939  0.00  0.00     0.002 A 
ENDROOT
BRANCH   1  10
ATOM     10  C   UNL d   1      59.525  49.545  52.323  0.00  0.00     0.018 A 
ATOM     11  C   UNL d   1      60.341  49.492  52.332  0.00  0.00     0.002 A 
ATOM     12  C   UNL d   1      60.741  49.547  53.048  0.00  0.00     0.000 A 
ATOM     13  C   UNL d   1      60.330  49.654  53.749  0.00  0.00     0.000 A 
ATOM     14  C   UNL d   1      59.505  49.707  53.731  0.00  0.00     0.000 A 
ATOM     15  C   UNL d   1      59.106  49.653  53.021  0.00  0.00     0.002 A 
ENDBRANCH   1  10
BRANCH   3  16
ATOM     16  C   UNL d   1      59.973  49.117  50.468  0.00  0.00     0.002 A 
ATOM     17  C   UNL d   1      60.134  48.335  50.258  0.00  0.00     0.000 A 
ATOM     18  C   UNL d   1      60.855  48.139  49.923  0.00  0.00     0.000 A 
ATOM     19  C   UNL d   1      61.433  48.722  49.788  0.00  0.00     0.000 A 
ATOM     20  C   UNL d   1      61.273  49.511  49.999  0.00  0.00     0.000 A 
ATOM     21  C   UNL d   1      60.543  49.707  50.338  0.00  0.00     0.000 A 
ENDBRANCH   3  16
TORSDOF 2
ENDMDL
MODEL 4
REMARK VINA RESULT:      71.2      0.932      3.323
REMARK  2 active torsions:
REMARK  status: ('A' for Active; 'I' for Inactive)
REMARK    1  A    between atoms: C_6  and  C_1 
REMARK    2  A    between atoms: C_7  and  C_3 
ROOT
ATOM      1  C   UNL d   1      60.224  49.639  51.723  0.00  0.00     0.081 A 
ATOM      2  N   UNL d   1      61.010  49.623  51.489  0.00  0.00    -0.246 NA
ATOM      3  C   UNL d   1      59.758  49.645  51.047  0.00  0.00     0.019 A 
ATOM      4  C   UNL d   1      60.255  49.632  50.396  0.00  0.00     0.019 A 
ATOM      5  C   UNL d   1      61.029  49.618  50.662  0.00  0.00     0.081 A 
ATOM      6  C   UNL d   1      60.087  49.632  49.584  0.00  0.00     0.002 A 
ATOM      7  C   UNL d   1      61.651  49.603  50.120  0.00  0.00     0.019 A 
ATOM      8  C   UNL d   1      60.718  49.617  49.045  0.00  0.00     0.000 A 
ATOM      9  C   UNL d   1      61.500  49.602  49.313  0.00  0.00     0.002 A 
ENDROOT
BRANCH   1  10
ATOM     10  C   UNL d   1      60.165  49.645  52.550  0.00  0.00     0.018 A 
ATOM     11  C   UNL d   1      59.427  49.670  52.902  0.00  0.00     0.002 A 
ATOM     12  C   UNL d   1      59.371  49.675  53.722  0.00  0.00     0.000 A 
ATOM     13  C   UNL d   1      60.046  49.655  54.187  0.00  0.00     0.000 A 
ATOM     14  C   UNL d   1      60.788  49.630  53.823  0.00  0.00     0.000 A 
ATOM     15  C   UNL d   1      60.846  49.625  53.009  0.00  0.00     0.002 A 
ENDBRANCH   1  10
BRANCH   3  16
ATOM     16  C   UNL d   1      58.928  49.662  51.035  0.00  0.00     0.002 A 
ATOM     17  C   UNL d   1      58.500  49.686  51.740  0.00  0.00     0.000 A 
ATOM     18  C   UNL d   1      57.681  49.702  51.725  0.00  0.00     0.000 A 
ATOM     19  C   UNL d   1      57.271  49.694  51.002  0.00  0.00     0.000 A 
ATOM     20  C   UNL d   1      57.701  49.670  50.289  0.00  0.00     0.000 A 
ATOM     21  C   UNL d   1      58.528  49.653  50.307  0.00  0.00     0.000 A 
ENDBRANCH   3  16
TORSDOF 2
ENDMDL
