MODEL 1
REMARK VINA RESULT:      33.8      0.000      0.000
REMARK  2 active torsions:
REMARK  status: ('A' for Active; 'I' for Inactive)
REMARK    1  A    between atoms: C_3  and  C_1 
REMARK       I    between atoms: N_7  and  C_3 
REMARK    2  A    between atoms: C_11  and  N_7 
ROOT
ATOM      1  C   UNL d   1     -54.876-101.551 -37.686  0.00  0.00     0.121 A 
ATOM      2  C   UNL d   1     -54.999-102.034 -37.026  0.00  0.00     0.305 A 
ATOM      3  C   UNL d   1     -54.781-100.743 -37.579  0.00  0.00     0.012 A 
ATOM      4  O   UNL d   1     -55.027-101.717 -36.266  0.00  0.00    -0.273 OA
ATOM      5  C   UNL d   1     -54.807-100.412 -36.825  0.00  0.00     0.023 A 
ATOM      6  C   UNL d   1     -54.931-100.904 -36.167  0.00  0.00     0.103 A 
ATOM      7  O   UNL d   1     -55.096-102.861 -37.130  0.00  0.00    -0.259 OA
ATOM      8  C   UNL d   1     -54.712 -99.600 -36.716  0.00  0.00     0.002 A 
ATOM      9  C   UNL d   1     -54.958-100.576 -35.406  0.00  0.00     0.025 A 
ATOM     10  C   UNL d   1     -54.739 -99.281 -35.973  0.00  0.00     0.000 A 
ATOM     11  C   UNL d   1     -54.862 -99.775 -35.316  0.00  0.00     0.002 A 
ENDROOT
BRANCH   1  12
ATOM     12  C   UNL d   1     -54.849-101.878 -38.446  0.00  0.00     0.284 C 
ATOM     13  N   UNL d   1     -54.845-101.373 -39.104  0.00  0.00    -0.208 NA
ATOM     14  O   UNL d   1     -54.827-102.690 -38.535  0.00  0.00    -0.265 OA
BRANCH  13  15
ATOM     15  C   UNL d   1     -54.818-101.710 -39.862  0.00  0.00     0.085 A 
ATOM     16  C   UNL d   1     -54.756-101.237 -40.541  0.00  0.00     0.021 A 
ATOM     17  C   UNL d   1     -54.730-101.581 -41.282  0.00  0.00     0.031 A 
ATOM     18  C   UNL d   1     -54.765-102.396 -41.362  0.00  0.00     0.140 A 
ATOM     19  C   UNL d   1     -54.827-102.878 -40.688  0.00  0.00     0.031 A 
ATOM     20  F   UNL d   1     -54.739-102.738 -42.100  0.00  0.00    -0.204 F 
ATOM     21  C   UNL d   1     -54.854-102.531 -39.935  0.00  0.00     0.021 A 
ENDBRANCH  13  15
ENDBRANCH   1  12
TORSDOF 2
ENDMDL
