MODEL 1
REMARK VINA RESULT:      70.9      0.000      0.000
REMARK  6 active torsions:
REMARK  status: ('A' for Active; 'I' for Inactive)
REMARK       I    between atoms: C_6  and  N_1 
REMARK    1  A    between atoms: C_7  and  C_3 
REMARK    2  A    between atoms: C_14  and  C_4 
REMARK    3  A    between atoms: C_20  and  C_6 
REMARK    4  A    between atoms: C_11  and  C_22 
REMARK    5  A    between atoms: C_21  and  C_20 
REMARK    6  A    between atoms: C_22  and  C_21 
ROOT
ATOM      1  N   UNL d   1      59.300  49.662  52.724  0.00  0.00    -0.195 N 
ATOM      2  N   UNL d   1      59.368  49.669  53.563  0.00  0.00    -0.163 NA
ATOM      3  C   UNL d   1      58.509  49.639  52.539  0.00  0.00     0.088 A 
ATOM      4  C   UNL d   1      58.600  49.650  53.872  0.00  0.00     0.103 A 
ATOM      5  C   UNL d   1      58.074  49.632  53.219  0.00  0.00     0.040 A 
ATOM      6  C   UNL d   1      59.975  49.677  52.187  0.00  0.00     0.280 C 
ATOM      7  O   UNL d   1      60.751  49.700  52.497  0.00  0.00    -0.265 OA
ENDROOT
BRANCH   3   8
ATOM      8  C   UNL d   1      58.200  49.626  51.772  0.00  0.00     0.019 A 
ATOM      9  C   UNL d   1      58.682  49.636  51.131  0.00  0.00     0.022 A 
ATOM     10  C   UNL d   1      58.373  49.623  50.363  0.00  0.00     0.099 A 
ATOM     11  N   UNL d   1      58.871  49.633  49.748  0.00  0.00    -0.241 NA
ATOM     12  C   UNL d   1      57.554  49.599  50.248  0.00  0.00     0.099 A 
ATOM     13  C   UNL d   1      58.551  49.620  48.953  0.00  0.00     0.120 A 
ATOM     14  C   UNL d   1      57.755  49.597  48.828  0.00  0.00     0.120 A 
ATOM     15  N   UNL d   1      57.256  49.587  49.508  0.00  0.00    -0.241 NA
ATOM     16  C   UNL d   1      57.081  49.590  50.916  0.00  0.00     0.021 A 
ATOM     17  C   UNL d   1      57.379  49.603  51.657  0.00  0.00     0.003 A 
ENDBRANCH   3   8
BRANCH   6  18
ATOM     18  C   UNL d   1      59.828  49.668  51.386  0.00  0.00     0.063 C 
BRANCH  18  19
ATOM     19  C   UNL d   1      60.182  49.077  50.916  0.00  0.00     0.011 C 
BRANCH  19  20
ATOM     20  C   UNL d   1      60.832  48.681  51.224  0.00  0.00     0.070 C 
BRANCH  20  21
ATOM     21  C   UNL d   1      61.530  48.598  50.800  0.00  0.00     0.211 C 
ATOM     22  O   UNL d   1      61.715  47.859  50.469  0.00  0.00    -0.644 OA
ATOM     23  O   UNL d   1      62.046  49.229  50.696  0.00  0.00    -0.644 OA
ENDBRANCH  20  21
ENDBRANCH  19  20
ENDBRANCH  18  19
ENDBRANCH   6  18
BRANCH   4  24
ATOM     24  C   UNL d   1      58.397  49.649  54.695  0.00  0.00     0.019 A 
ATOM     25  C   UNL d   1      57.628  49.690  54.917  0.00  0.00     0.002 A 
ATOM     26  C   UNL d   1      57.416  49.690  55.715  0.00  0.00     0.000 A 
ATOM     27  C   UNL d   1      58.002  49.649  56.282  0.00  0.00     0.000 A 
ATOM     28  C   UNL d   1      58.794  49.607  56.050  0.00  0.00     0.000 A 
ATOM     29  C   UNL d   1      59.006  49.607  55.253  0.00  0.00     0.002 A 
ENDBRANCH   4  24
TORSDOF 6
ENDMDL
