MODEL 1
REMARK VINA RESULT:      24.7      0.000      0.000
REMARK  3 active torsions:
REMARK  status: ('A' for Active; 'I' for Inactive)
REMARK    1  A    between atoms: S_9  and  C_3 
REMARK    2  A    between atoms: C_15  and  S_9 
REMARK    3  A    between atoms: C_11  and  C_15 
ROOT
ATOM      1  N   UNL d   1     -58.264 -98.766 -44.257  0.00  0.00    -0.263 N 
ATOM      2  C   UNL d   1     -58.849 -98.774 -44.850  0.00  0.00     0.202 A 
ATOM      3  C   UNL d   1     -57.527 -98.763 -44.646  0.00  0.00     0.202 A 
ATOM      4  N   UNL d   1     -58.483 -98.776 -45.586  0.00  0.00    -0.121 NA
ATOM      5  S   UNL d   1     -59.594 -98.777 -44.462  0.00  0.00    -0.047 SA
ATOM      6  N   UNL d   1     -57.659 -98.769 -45.458  0.00  0.00    -0.121 NA
ATOM      7  C   UNL d   1     -58.638 -98.764 -43.522  0.00  0.00     0.074 A 
ATOM      8  C   UNL d   1     -59.455 -98.770 -43.642  0.00  0.00     0.049 A 
ATOM      9  C   UNL d   1     -58.333 -98.757 -42.756  0.00  0.00     0.018 A 
ATOM     10  C   UNL d   1     -59.956 -98.770 -43.003  0.00  0.00     0.008 A 
ATOM     11  C   UNL d   1     -58.848 -98.756 -42.111  0.00  0.00     0.002 A 
ATOM     12  C   UNL d   1     -59.664 -98.763 -42.240  0.00  0.00     0.001 A 
ENDROOT
BRANCH   3  13
ATOM     13  S   UNL d   1     -56.798 -98.755 -44.276  0.00  0.00    -0.047 SA
BRANCH  13  14
ATOM     14  C   UNL d   1     -56.114 -98.879 -44.713  0.00  0.00     0.045 C 
BRANCH  14  15
ATOM     15  C   UNL d   1     -55.619 -99.516 -44.536  0.00  0.00     0.036 A 
ATOM     16  S   UNL d   1     -55.339 -99.716 -43.782  0.00  0.00    -0.086 SA
ATOM     17  C   UNL d   1     -54.868-100.384 -43.863  0.00  0.00     0.035 A 
ATOM     18  C   UNL d   1     -54.852-100.602 -44.657  0.00  0.00     0.007 A 
ATOM     19  C   UNL d   1     -55.319-100.060 -45.069  0.00  0.00     0.007 A 
ENDBRANCH  14  15
ENDBRANCH  13  14
ENDBRANCH   3  13
TORSDOF 3
ENDMDL
