MODEL 1
REMARK VINA RESULT:      -6.4      0.000      0.000
REMARK  1 active torsions:
REMARK  status: ('A' for Active; 'I' for Inactive)
REMARK    1  A    between atoms: C_4  and  C_1 
ROOT
ATOM      1  C   UNL d   1     -47.987  12.460  23.111  0.00  0.00     0.024 A 
ATOM      2  C   UNL d   1     -47.317  12.228  23.532  0.00  0.00     0.002 A 
ATOM      3  C   UNL d   1     -47.925  13.005  22.498  0.00  0.00     0.002 A 
ATOM      4  C   UNL d   1     -46.585  12.539  23.341  0.00  0.00     0.000 A 
ATOM      5  C   UNL d   1     -47.188  13.321  22.302  0.00  0.00     0.000 A 
ATOM      6  C   UNL d   1     -46.521  13.085  22.727  0.00  0.00     0.000 A 
ATOM      7  C   UNL d   1     -45.777  13.400  22.535  0.00  0.00     0.000 C 
ENDROOT
BRANCH   1   8
ATOM      8  C   UNL d   1     -48.724  12.144  23.306  0.00  0.00     0.111 A 
ATOM      9  N   UNL d   1     -48.826  11.326  23.339  0.00  0.00    -0.237 NA
ATOM     10  C   UNL d   1     -50.198  11.512  23.698  0.00  0.00     0.106 A 
ATOM     11  C   UNL d   1     -50.096  12.330  23.665  0.00  0.00     0.058 A 
ATOM     12  S   UNL d   1     -49.359  12.646  23.469  0.00  0.00    -0.066 SA
ENDBRANCH   1   8
TORSDOF 1
ENDMDL
MODEL 2
REMARK VINA RESULT:      -6.3      1.697      2.537
REMARK  1 active torsions:
REMARK  status: ('A' for Active; 'I' for Inactive)
REMARK    1  A    between atoms: C_4  and  C_1 
ROOT
ATOM      1  C   UNL d   1     -47.147  13.151  23.093  0.00  0.00     0.024 A 
ATOM      2  C   UNL d   1     -47.968  13.162  23.176  0.00  0.00     0.002 A 
ATOM      3  C   UNL d   1     -46.749  13.813  22.810  0.00  0.00     0.002 A 
ATOM      4  C   UNL d   1     -48.390  13.833  22.978  0.00  0.00     0.000 A 
ATOM      5  C   UNL d   1     -47.173  14.492  22.608  0.00  0.00     0.000 A 
ATOM      6  C   UNL d   1     -47.993  14.497  22.694  0.00  0.00     0.000 A 
ATOM      7  C   UNL d   1     -48.425  15.178  22.493  0.00  0.00     0.000 C 
ENDROOT
BRANCH   1   8
ATOM      8  C   UNL d   1     -46.724  12.472  23.294  0.00  0.00     0.111 A 
ATOM      9  N   UNL d   1     -45.899  12.485  23.294  0.00  0.00    -0.237 NA
ATOM     10  C   UNL d   1     -45.877  11.113  23.698  0.00  0.00     0.106 A 
ATOM     11  C   UNL d   1     -46.702  11.100  23.698  0.00  0.00     0.058 A 
ATOM     12  S   UNL d   1     -47.126  11.780  23.496  0.00  0.00    -0.066 SA
ENDBRANCH   1   8
TORSDOF 1
ENDMDL
MODEL 3
REMARK VINA RESULT:      -6.3      1.863      2.125
REMARK  1 active torsions:
REMARK  status: ('A' for Active; 'I' for Inactive)
REMARK    1  A    between atoms: C_4  and  C_1 
ROOT
ATOM      1  C   UNL d   1     -47.789  14.051  22.720  0.00  0.00     0.024 A 
ATOM      2  C   UNL d   1     -47.701  13.304  22.380  0.00  0.00     0.002 A 
ATOM      3  C   UNL d   1     -47.128  14.492  22.931  0.00  0.00     0.002 A 
ATOM      4  C   UNL d   1     -46.954  13.000  22.249  0.00  0.00     0.000 A 
ATOM      5  C   UNL d   1     -46.372  14.188  22.801  0.00  0.00     0.000 A 
ATOM      6  C   UNL d   1     -46.290  13.441  22.460  0.00  0.00     0.000 A 
ATOM      7  C   UNL d   1     -45.532  13.130  22.326  0.00  0.00     0.000 C 
ENDROOT
BRANCH   1   8
ATOM      8  C   UNL d   1     -48.546  14.355  22.850  0.00  0.00     0.111 A 
ATOM      9  N   UNL d   1     -49.083  13.939  23.318  0.00  0.00    -0.237 NA
ATOM     10  C   UNL d   1     -50.058  14.964  23.110  0.00  0.00     0.106 A 
ATOM     11  C   UNL d   1     -49.520  15.380  22.642  0.00  0.00     0.058 A 
ATOM     12  S   UNL d   1     -48.764  15.076  22.512  0.00  0.00    -0.066 SA
ENDBRANCH   1   8
TORSDOF 1
ENDMDL
MODEL 4
REMARK VINA RESULT:      -6.1      1.183      3.105
REMARK  1 active torsions:
REMARK  status: ('A' for Active; 'I' for Inactive)
REMARK    1  A    between atoms: C_4  and  C_1 
ROOT
ATOM      1  C   UNL d   1     -48.237  12.589  23.023  0.00  0.00     0.024 A 
ATOM      2  C   UNL d   1     -48.892  13.091  23.041  0.00  0.00     0.002 A 
ATOM      3  C   UNL d   1     -48.314  11.797  23.229  0.00  0.00     0.002 A 
ATOM      4  C   UNL d   1     -49.623  12.802  23.264  0.00  0.00     0.000 A 
ATOM      5  C   UNL d   1     -49.051  11.501  23.455  0.00  0.00     0.000 A 
ATOM      6  C   UNL d   1     -49.702  12.008  23.471  0.00  0.00     0.000 A 
ATOM      7  C   UNL d   1     -50.446  11.716  23.697  0.00  0.00     0.000 C 
ENDROOT
BRANCH   1   8
ATOM      8  C   UNL d   1     -47.500  12.885  22.797  0.00  0.00     0.111 A 
ATOM      9  N   UNL d   1     -47.319  12.975  21.997  0.00  0.00    -0.237 NA
ATOM     10  C   UNL d   1     -46.027  13.477  22.346  0.00  0.00     0.106 A 
ATOM     11  C   UNL d   1     -46.208  13.388  23.146  0.00  0.00     0.058 A 
ATOM     12  S   UNL d   1     -46.945  13.092  23.372  0.00  0.00    -0.066 SA
ENDBRANCH   1   8
TORSDOF 1
ENDMDL
