MODEL 1
REMARK VINA RESULT:     131.7      0.000      0.000
REMARK  6 active torsions:
REMARK  status: ('A' for Active; 'I' for Inactive)
REMARK    1  A    between atoms: S_5  and  C_3 
REMARK    2  A    between atoms: C_16  and  S_5 
REMARK    3  A    between atoms: C_20  and  N_6 
REMARK    4  A    between atoms: N_19  and  C_25 
REMARK    5  A    between atoms: C_24  and  C_20 
REMARK    6  A    between atoms: C_25  and  C_24 
ROOT
ATOM      1  C   UNL d   1     -57.825 -99.059 -43.768  0.00  0.00     0.155 A 
ATOM      2  C   UNL d   1     -58.645 -99.092 -43.687  0.00  0.00     0.092 A 
ATOM      3  C   UNL d   1     -58.496 -99.230 -42.272  0.00  0.00     0.124 A 
ATOM      4  N   UNL d   1     -57.488 -98.973 -44.521  0.00  0.00    -0.210 NA
ATOM      5  N   UNL d   1     -57.344 -99.110 -43.110  0.00  0.00    -0.273 N 
ATOM      6  C   UNL d   1     -57.676 -99.197 -42.353  0.00  0.00     0.181 A 
ATOM      7  C   UNL d   1     -59.137 -99.039 -44.359  0.00  0.00     0.269 A 
ATOM      8  N   UNL d   1     -58.800 -98.954 -45.105  0.00  0.00    -0.258 N 
ATOM      9  C   UNL d   1     -58.991 -99.178 -42.936  0.00  0.00     0.022 A 
ATOM     10  C   UNL d   1     -57.971 -98.920 -45.191  0.00  0.00     0.152 A 
ATOM     11  N   UNL d   1     -57.186 -99.248 -41.689  0.00  0.00    -0.128 N 
ATOM     12  C   UNL d   1     -59.287 -98.902 -45.773  0.00  0.00     0.084 A 
ATOM     13  O   UNL d   1     -59.961 -99.073 -44.270  0.00  0.00    -0.266 OA
ATOM     14  C   UNL d   1     -57.641 -98.836 -45.936  0.00  0.00     0.038 A 
ATOM     15  C   UNL d   1     -58.944 -98.817 -46.516  0.00  0.00     0.019 A 
ATOM     16  C   UNL d   1     -58.115 -98.783 -46.598  0.00  0.00     0.005 A 
ENDROOT
BRANCH   3  17
ATOM     17  S   UNL d   1     -58.826 -99.315 -41.519  0.00  0.00     0.213 S 
ATOM     18  O   UNL d   1     -58.296 -98.791 -41.181  0.00  0.00    -0.217 OA
ATOM     19  O   UNL d   1     -59.379 -99.850 -41.825  0.00  0.00    -0.217 OA
BRANCH  17  20
ATOM     20  C   UNL d   1     -59.158 -99.403 -40.769  0.00  0.00     0.088 A 
ATOM     21  C   UNL d   1     -59.594-100.083 -40.596  0.00  0.00     0.011 A 
ATOM     22  C   UNL d   1     -59.927-100.177 -39.852  0.00  0.00     0.001 A 
ATOM     23  C   UNL d   1     -59.826 -99.593 -39.277  0.00  0.00     0.000 A 
ATOM     24  C   UNL d   1     -59.388 -98.911 -39.453  0.00  0.00     0.001 A 
ATOM     25  C   UNL d   1     -59.056 -98.824 -40.204  0.00  0.00     0.011 A 
ENDBRANCH  17  20
ENDBRANCH   3  17
BRANCH   5  26
ATOM     26  C   UNL d   1     -56.519 -99.077 -43.192  0.00  0.00     0.085 C 
BRANCH  26  27
ATOM     27  C   UNL d   1     -56.156 -99.457 -43.828  0.00  0.00     0.038 C 
BRANCH  27  28
ATOM     28  C   UNL d   1     -56.477-100.141 -44.137  0.00  0.00     0.082 C 
BRANCH  28  29
ATOM     29  N   UNL d   1     -55.991-100.740 -44.425  0.00  0.00    -0.299 N 
ATOM     30  C   UNL d   1     -55.348-100.551 -44.903  0.00  0.00     0.107 A 
ATOM     31  C   UNL d   1     -54.859-101.138 -45.195  0.00  0.00     0.142 A 
ATOM     32  O   UNL d   1     -55.007-101.929 -45.012  0.00  0.00    -0.300 OA
ATOM     33  C   UNL d   1     -55.652-102.129 -44.531  0.00  0.00     0.142 A 
ATOM     34  C   UNL d   1     -56.148-101.528 -44.236  0.00  0.00     0.107 A 
ENDBRANCH  28  29
ENDBRANCH  27  28
ENDBRANCH  26  27
ENDBRANCH   5  26
TORSDOF 6
ENDMDL
