MODEL 1
REMARK VINA RESULT:      62.6      0.000      0.000
REMARK  8 active torsions:
REMARK  status: ('A' for Active; 'I' for Inactive)
REMARK    1  A    between atoms: N_5  and  C_1 
REMARK    2  A    between atoms: N_7  and  C_1 
REMARK    3  A    between atoms: N_2  and  C_3 
REMARK    4  A    between atoms: C_3  and  C_4 
REMARK    5  A    between atoms: C_6  and  C_3 
REMARK    6  A    between atoms: C_4  and  N_5 
REMARK    7  A    between atoms: C_8  and  N_7 
REMARK    8  A    between atoms: C_25  and  N_10 
ROOT
ATOM      1  C   UNL d   1     -55.321-100.735 -43.555  0.00  0.00     0.088 C 
ENDROOT
BRANCH   1   2
ATOM      2  N   UNL d   1     -55.171-100.948 -42.770  0.00  0.00    -0.300 N 
ATOM      3  C   UNL d   1     -54.883-100.388 -42.240  0.00  0.00     0.100 A 
ATOM      4  C   UNL d   1     -54.734-100.599 -41.462  0.00  0.00     0.100 A 
ATOM      5  N   UNL d   1     -54.870-101.372 -41.200  0.00  0.00    -0.300 N 
ATOM      6  C   UNL d   1     -55.160-101.935 -41.735  0.00  0.00     0.100 A 
ATOM      7  C   UNL d   1     -55.313-101.730 -42.521  0.00  0.00     0.100 A 
BRANCH   5   8
ATOM      8  C   UNL d   1     -54.719-101.580 -40.420  0.00  0.00     0.080 C 
ATOM      9  C   UNL d   1     -54.770-101.004 -39.827  0.00  0.00     0.021 C 
ENDBRANCH   5   8
ENDBRANCH   1   2
BRANCH   1  10
ATOM     10  C   UNL d   1     -55.460 -99.948 -43.752  0.00  0.00     0.100 C 
ATOM     11  C   UNL d   1     -54.952 -99.562 -44.263  0.00  0.00     0.022 C 
BRANCH  10  12
ATOM     12  N   UNL d   1     -56.107 -99.559 -43.431  0.00  0.00    -0.216 NA
BRANCH  12  13
ATOM     13  C   UNL d   1     -56.713 -99.288 -43.926  0.00  0.00     0.221 C 
ATOM     14  S   UNL d   1     -56.725 -99.520 -44.714  0.00  0.00    -0.037 SA
BRANCH  13  15
ATOM     15  N   UNL d   1     -57.294 -98.791 -43.627  0.00  0.00    -0.217 NA
BRANCH  15  16
ATOM     16  C   UNL d   1     -58.057 -98.805 -43.939  0.00  0.00     0.084 A 
ATOM     17  C   UNL d   1     -58.704 -98.823 -43.437  0.00  0.00     0.018 A 
ATOM     18  C   UNL d   1     -59.462 -98.837 -43.739  0.00  0.00     0.002 A 
ATOM     19  C   UNL d   1     -58.581 -98.827 -42.615  0.00  0.00     0.002 C 
ATOM     20  C   UNL d   1     -59.579 -98.834 -44.562  0.00  0.00     0.000 A 
ATOM     21  C   UNL d   1     -58.921 -98.816 -45.075  0.00  0.00     0.002 A 
ATOM     22  C   UNL d   1     -58.165 -98.802 -44.760  0.00  0.00     0.019 A 
ATOM     23  C   UNL d   1     -59.033 -98.812 -45.889  0.00  0.00     0.000 C 
ENDBRANCH  15  16
ENDBRANCH  13  15
ENDBRANCH  12  13
ENDBRANCH  10  12
ENDBRANCH   1  10
BRANCH   1  24
ATOM     24  C   UNL d   1     -55.332-101.313 -44.139  0.00  0.00     0.047 A 
ATOM     25  S   UNL d   1     -54.732-101.474 -44.685  0.00  0.00    -0.085 SA
ATOM     26  C   UNL d   1     -54.978-102.096 -45.163  0.00  0.00     0.035 A 
ATOM     27  C   UNL d   1     -55.732-102.331 -44.923  0.00  0.00     0.007 A 
ATOM     28  C   UNL d   1     -55.957-101.847 -44.285  0.00  0.00     0.009 A 
ENDBRANCH   1  24
TORSDOF 8
ENDMDL
