MODEL 1
REMARK VINA RESULT:      -5.8      0.000      0.000
REMARK  3 active torsions:
REMARK  status: ('A' for Active; 'I' for Inactive)
REMARK    1  A    between atoms: C_6  and  C_1 
REMARK    2  A    between atoms: N_7  and  C_2 
REMARK       I    between atoms: C_8  and  N_9 
REMARK    3  A    between atoms: C_11  and  C_8 
ROOT
ATOM      1  C   UNL d   1     -41.816-123.310 -49.657  0.00  0.00     0.186 A 
ATOM      2  C   UNL d   1     -41.770-123.277 -50.981  0.00  0.00     0.197 A 
ATOM      3  C   UNL d   1     -41.556-122.540 -50.697  0.00  0.00     0.191 A 
ATOM      4  O   UNL d   1     -41.934-123.760 -50.314  0.00  0.00    -0.270 OA
ATOM      5  N   UNL d   1     -41.585-122.559 -49.852  0.00  0.00    -0.208 NA
ATOM      6  C   UNL d   1     -41.339-121.863 -51.173  0.00  0.00     0.124 C 
ATOM      7  N   UNL d   1     -41.123-121.187 -51.634  0.00  0.00    -0.190 NA
ENDROOT
BRANCH   2   8
ATOM      8  N   UNL d   1     -41.740-123.252 -51.825  0.00  0.00    -0.280 N 
ATOM      9  C   UNL d   1     -41.264-123.790 -52.245  0.00  0.00     0.101 A 
ATOM     10  C   UNL d   1     -41.227-123.776 -53.054  0.00  0.00     0.102 A 
ATOM     11  N   UNL d   1     -41.678-123.206 -53.502  0.00  0.00    -0.267 N 
ATOM     12  C   UNL d   1     -41.614-123.220 -54.359  0.00  0.00     0.288 C 
ATOM     13  C   UNL d   1     -42.178-122.641 -53.064  0.00  0.00     0.102 A 
ATOM     14  O   UNL d   1     -41.123-123.778 -54.752  0.00  0.00    -0.264 OA
ATOM     15  C   UNL d   1     -42.188-122.690 -52.222  0.00  0.00     0.101 A 
BRANCH  12  16
ATOM     16  C   UNL d   1     -42.065-122.651 -54.806  0.00  0.00     0.156 A 
ATOM     17  O   UNL d   1     -42.856-122.448 -54.837  0.00  0.00    -0.300 OA
ATOM     18  C   UNL d   1     -42.951-121.835 -55.398  0.00  0.00     0.123 A 
ATOM     19  C   UNL d   1     -42.215-121.667 -55.707  0.00  0.00     0.029 A 
ATOM     20  C   UNL d   1     -41.663-122.162 -55.351  0.00  0.00     0.032 A 
ENDBRANCH  12  16
ENDBRANCH   2   8
BRANCH   1  21
ATOM     21  C   UNL d   1     -41.844-123.325 -48.809  0.00  0.00     0.052 A 
ATOM     22  C   UNL d   1     -42.559-123.535 -48.430  0.00  0.00     0.061 A 
ATOM     23 CL   UNL d   1     -43.190-123.714 -48.929  0.00  0.00    -0.082 Cl
ATOM     24  C   UNL d   1     -42.603-123.555 -47.611  0.00  0.00     0.011 A 
ATOM     25  C   UNL d   1     -41.946-123.369 -47.163  0.00  0.00     0.001 A 
ATOM     26  C   UNL d   1     -41.236-123.160 -47.527  0.00  0.00     0.000 A 
ATOM     27  C   UNL d   1     -41.194-123.141 -48.337  0.00  0.00     0.004 A 
ENDBRANCH   1  21
TORSDOF 3
ENDMDL
MODEL 2
REMARK VINA RESULT:      -4.2      1.527      5.390
REMARK  3 active torsions:
REMARK  status: ('A' for Active; 'I' for Inactive)
REMARK    1  A    between atoms: C_6  and  C_1 
REMARK    2  A    between atoms: N_7  and  C_2 
REMARK       I    between atoms: C_8  and  N_9 
REMARK    3  A    between atoms: C_11  and  C_8 
ROOT
ATOM      1  C   UNL d   1     -41.774-122.682 -53.383  0.00  0.00     0.186 A 
ATOM      2  C   UNL d   1     -41.812-122.961 -52.088  0.00  0.00     0.197 A 
ATOM      3  C   UNL d   1     -41.566-122.186 -52.177  0.00  0.00     0.191 A 
ATOM      4  O   UNL d   1     -41.942-123.270 -52.859  0.00  0.00    -0.270 OA
ATOM      5  N   UNL d   1     -41.541-122.007 -53.004  0.00  0.00    -0.208 NA
ATOM      6  C   UNL d   1     -41.366-121.648 -51.544  0.00  0.00     0.124 C 
ATOM      7  N   UNL d   1     -41.167-121.106 -50.925  0.00  0.00    -0.190 NA
ENDROOT
BRANCH   2   8
ATOM      8  N   UNL d   1     -41.835-123.136 -51.262  0.00  0.00    -0.280 N 
ATOM      9  C   UNL d   1     -41.132-123.290 -50.844  0.00  0.00     0.101 A 
ATOM     10  C   UNL d   1     -41.142-123.459 -50.052  0.00  0.00     0.102 A 
ATOM     11  N   UNL d   1     -41.878-123.484 -49.620  0.00  0.00    -0.267 N 
ATOM     12  C   UNL d   1     -41.851-123.666 -48.781  0.00  0.00     0.288 C 
ATOM     13  C   UNL d   1     -42.617-123.323 -50.055  0.00  0.00     0.102 A 
ATOM     14  O   UNL d   1     -41.123-123.817 -48.389  0.00  0.00    -0.264 OA
ATOM     15  C   UNL d   1     -42.561-123.152 -50.880  0.00  0.00     0.101 A 
BRANCH  12  16
ATOM     16  C   UNL d   1     -42.587-123.691 -48.349  0.00  0.00     0.156 A 
ATOM     17  O   UNL d   1     -43.374-123.673 -48.565  0.00  0.00    -0.300 OA
ATOM     18  C   UNL d   1     -43.841-123.717 -47.872  0.00  0.00     0.123 A 
ATOM     19  C   UNL d   1     -43.332-123.761 -47.235  0.00  0.00     0.029 A 
ATOM     20  C   UNL d   1     -42.560-123.746 -47.517  0.00  0.00     0.032 A 
ENDBRANCH  12  16
ENDBRANCH   2   8
BRANCH   1  21
ATOM     21  C   UNL d   1     -41.748-122.498 -54.210  0.00  0.00     0.052 A 
ATOM     22  C   UNL d   1     -41.434-123.061 -54.742  0.00  0.00     0.061 A 
ATOM     23 CL   UNL d   1     -41.171-123.766 -54.404  0.00  0.00    -0.082 Cl
ATOM     24  C   UNL d   1     -41.401-122.899 -55.546  0.00  0.00     0.011 A 
ATOM     25  C   UNL d   1     -41.676-122.184 -55.829  0.00  0.00     0.001 A 
ATOM     26  C   UNL d   1     -41.988-121.621 -55.313  0.00  0.00     0.000 A 
ATOM     27  C   UNL d   1     -42.020-121.783 -54.519  0.00  0.00     0.004 A 
ENDBRANCH   1  21
TORSDOF 3
ENDMDL
