MODEL 1
REMARK VINA RESULT:      -3.1      0.000      0.000
REMARK  4 active torsions:
REMARK  status: ('A' for Active; 'I' for Inactive)
REMARK    1  A    between atoms: N_3  and  S_1 
REMARK    2  A    between atoms: C_4  and  S_1 
REMARK    3  A    between atoms: S_2  and  C_5 
REMARK    4  A    between atoms: C_13  and  N_3 
ROOT
ATOM      1  N   UNL d   1      31.683  16.215 -24.197  0.00  0.00    -0.158 NA
ENDROOT
BRANCH   1   2
ATOM      2  S   UNL d   1      30.889  16.067 -24.092  0.00  0.00     0.285 S 
ATOM      3  O   UNL d   1      31.033  15.771 -23.335  0.00  0.00    -0.198 OA
ATOM      4  O   UNL d   1      30.724  16.361 -24.853  0.00  0.00    -0.198 OA
BRANCH   2   5
ATOM      5  C   UNL d   1      30.049  15.913 -23.986  0.00  0.00     0.105 A 
ATOM      6  C   UNL d   1      29.786  15.646 -23.269  0.00  0.00     0.015 A 
ATOM      7  C   UNL d   1      28.989  15.493 -23.147  0.00  0.00     0.022 A 
ATOM      8  C   UNL d   1      28.457  15.611 -23.754  0.00  0.00     0.103 A 
ATOM      9  C   UNL d   1      28.730  15.885 -24.489  0.00  0.00     0.022 A 
ATOM     10  N   UNL d   1      27.642  15.453 -23.624  0.00  0.00    -0.148 N 
ATOM     11  C   UNL d   1      29.537  16.031 -24.586  0.00  0.00     0.015 A 
ENDBRANCH   2   5
ENDBRANCH   1   2
BRANCH   1  12
ATOM     12  C   UNL d   1      31.994  16.952 -24.026  0.00  0.00     0.094 A 
ATOM     13  C   UNL d   1      31.967  17.531 -24.585  0.00  0.00     0.021 A 
ATOM     14  C   UNL d   1      32.283  18.280 -24.412  0.00  0.00     0.015 A 
ATOM     15  C   UNL d   1      32.612  18.417 -23.686  0.00  0.00     0.107 A 
ATOM     16  C   UNL d   1      32.643  17.825 -23.108  0.00  0.00     0.015 A 
ATOM     17  C   UNL d   1      32.327  17.076 -23.281  0.00  0.00     0.021 A 
BRANCH  15  18
ATOM     18  S   UNL d   1      32.928  19.165 -23.513  0.00  0.00     0.302 S 
ATOM     19  O   UNL d   1      32.634  19.108 -22.729  0.00  0.00    -0.197 OA
ATOM     20  O   UNL d   1      33.214  19.221 -24.274  0.00  0.00    -0.197 OA
ATOM     21  N   UNL d   1      33.241  19.907 -23.341  0.00  0.00    -0.043 N 
ENDBRANCH  15  18
ENDBRANCH   1  12
TORSDOF 4
ENDMDL
MODEL 2
REMARK VINA RESULT:      -3.1      1.598      4.554
REMARK  4 active torsions:
REMARK  status: ('A' for Active; 'I' for Inactive)
REMARK    1  A    between atoms: N_3  and  S_1 
REMARK    2  A    between atoms: C_4  and  S_1 
REMARK    3  A    between atoms: S_2  and  C_5 
REMARK    4  A    between atoms: C_13  and  N_3 
ROOT
ATOM      1  N   UNL d   1      33.135  18.017 -23.830  0.00  0.00    -0.158 NA
ENDROOT
BRANCH   1   2
ATOM      2  S   UNL d   1      33.155  18.673 -23.348  0.00  0.00     0.285 S 
ATOM      3  O   UNL d   1      33.202  19.169 -24.006  0.00  0.00    -0.198 OA
ATOM      4  O   UNL d   1      33.108  18.190 -22.672  0.00  0.00    -0.198 OA
BRANCH   2   5
ATOM      5  C   UNL d   1      33.176  19.363 -22.835  0.00  0.00     0.105 A 
ATOM      6  C   UNL d   1      33.220  20.100 -23.167  0.00  0.00     0.015 A 
ATOM      7  C   UNL d   1      33.241  20.770 -22.695  0.00  0.00     0.022 A 
ATOM      8  C   UNL d   1      33.217  20.695 -21.883  0.00  0.00     0.103 A 
ATOM      9  C   UNL d   1      33.172  19.938 -21.545  0.00  0.00     0.022 A 
ATOM     10  N   UNL d   1      33.239  21.385 -21.405  0.00  0.00    -0.148 N 
ATOM     11  C   UNL d   1      33.152  19.278 -22.042  0.00  0.00     0.015 A 
ENDBRANCH   2   5
ENDBRANCH   1   2
BRANCH   1  12
ATOM     12  C   UNL d   1      32.422  17.656 -24.011  0.00  0.00     0.094 A 
ATOM     13  C   UNL d   1      31.965  17.961 -24.599  0.00  0.00     0.021 A 
ATOM     14  C   UNL d   1      31.242  17.596 -24.783  0.00  0.00     0.015 A 
ATOM     15  C   UNL d   1      31.007  16.941 -24.371  0.00  0.00     0.107 A 
ATOM     16  C   UNL d   1      31.475  16.623 -23.765  0.00  0.00     0.015 A 
ATOM     17  C   UNL d   1      32.198  16.989 -23.581  0.00  0.00     0.021 A 
BRANCH  15  18
ATOM     18  S   UNL d   1      30.285  16.575 -24.554  0.00  0.00     0.302 S 
ATOM     19  O   UNL d   1      30.682  15.843 -24.656  0.00  0.00    -0.197 OA
ATOM     20  O   UNL d   1      29.900  17.287 -24.455  0.00  0.00    -0.197 OA
ATOM     21  N   UNL d   1      29.569  16.213 -24.736  0.00  0.00    -0.043 N 
ENDBRANCH  15  18
ENDBRANCH   1  12
TORSDOF 4
ENDMDL
MODEL 3
REMARK VINA RESULT:      -2.9      2.065      3.140
REMARK  4 active torsions:
REMARK  status: ('A' for Active; 'I' for Inactive)
REMARK    1  A    between atoms: N_3  and  S_1 
REMARK    2  A    between atoms: C_4  and  S_1 
REMARK    3  A    between atoms: S_2  and  C_5 
REMARK    4  A    between atoms: C_13  and  N_3 
ROOT
ATOM      1  N   UNL d   1      33.241  18.946 -23.106  0.00  0.00    -0.158 NA
ENDROOT
BRANCH   1   2
ATOM      2  S   UNL d   1      32.651  18.509 -23.459  0.00  0.00     0.285 S 
ATOM      3  O   UNL d   1      32.709  17.934 -22.869  0.00  0.00    -0.198 OA
ATOM      4  O   UNL d   1      32.577  19.078 -24.061  0.00  0.00    -0.198 OA
BRANCH   2   5
ATOM      5  C   UNL d   1      32.027  18.051 -23.835  0.00  0.00     0.105 A 
ATOM      6  C   UNL d   1      31.745  17.391 -23.462  0.00  0.00     0.015 A 
ATOM      7  C   UNL d   1      31.150  16.941 -23.805  0.00  0.00     0.022 A 
ATOM      8  C   UNL d   1      30.840  17.160 -24.526  0.00  0.00     0.103 A 
ATOM      9  C   UNL d   1      31.131  17.840 -24.906  0.00  0.00     0.022 A 
ATOM     10  N   UNL d   1      30.232  16.696 -24.872  0.00  0.00    -0.148 N 
ATOM     11  C   UNL d   1      31.730  18.276 -24.541  0.00  0.00     0.015 A 
ENDBRANCH   2   5
ENDBRANCH   1   2
BRANCH   1  12
ATOM     12  C   UNL d   1      33.055  19.566 -22.604  0.00  0.00     0.094 A 
ATOM     13  C   UNL d   1      32.948  20.303 -22.912  0.00  0.00     0.021 A 
ATOM     14  C   UNL d   1      32.760  20.932 -22.403  0.00  0.00     0.015 A 
ATOM     15  C   UNL d   1      32.687  20.798 -21.609  0.00  0.00     0.107 A 
ATOM     16  C   UNL d   1      32.796  20.042 -21.288  0.00  0.00     0.015 A 
ATOM     17  C   UNL d   1      32.984  19.412 -21.797  0.00  0.00     0.021 A 
BRANCH  15  18
ATOM     18  S   UNL d   1      32.499  21.427 -21.101  0.00  0.00     0.302 S 
ATOM     19  O   UNL d   1      31.736  21.099 -20.978  0.00  0.00    -0.197 OA
ATOM     20  O   UNL d   1      33.239  21.745 -21.220  0.00  0.00    -0.197 OA
ATOM     21  N   UNL d   1      32.312  22.050 -20.597  0.00  0.00    -0.043 N 
ENDBRANCH  15  18
ENDBRANCH   1  12
TORSDOF 4
ENDMDL
MODEL 4
REMARK VINA RESULT:      -2.9      1.707      2.496
REMARK  4 active torsions:
REMARK  status: ('A' for Active; 'I' for Inactive)
REMARK    1  A    between atoms: N_3  and  S_1 
REMARK    2  A    between atoms: C_4  and  S_1 
REMARK    3  A    between atoms: S_2  and  C_5 
REMARK    4  A    between atoms: C_13  and  N_3 
ROOT
ATOM      1  N   UNL d   1      33.233  18.246 -23.779  0.00  0.00    -0.158 NA
ENDROOT
BRANCH   1   2
ATOM      2  S   UNL d   1      32.556  17.835 -23.969  0.00  0.00     0.285 S 
ATOM      3  O   UNL d   1      32.366  18.393 -24.548  0.00  0.00    -0.198 OA
ATOM      4  O   UNL d   1      32.729  17.263 -23.391  0.00  0.00    -0.198 OA
BRANCH   2   5
ATOM      5  C   UNL d   1      31.841  17.398 -24.166  0.00  0.00     0.105 A 
ATOM      6  C   UNL d   1      31.617  16.778 -23.697  0.00  0.00     0.015 A 
ATOM      7  C   UNL d   1      30.939  16.349 -23.868  0.00  0.00     0.022 A 
ATOM      8  C   UNL d   1      30.487  16.547 -24.516  0.00  0.00     0.103 A 
ATOM      9  C   UNL d   1      30.719  17.185 -24.997  0.00  0.00     0.022 A 
ATOM     10  N   UNL d   1      29.794  16.105 -24.687  0.00  0.00    -0.148 N 
ATOM     11  C   UNL d   1      31.406  17.601 -24.803  0.00  0.00     0.015 A 
ENDBRANCH   2   5
ENDBRANCH   1   2
BRANCH   1  12
ATOM     12  C   UNL d   1      33.201  18.888 -23.272  0.00  0.00     0.094 A 
ATOM     13  C   UNL d   1      33.147  19.630 -23.580  0.00  0.00     0.021 A 
ATOM     14  C   UNL d   1      33.114  20.282 -23.065  0.00  0.00     0.015 A 
ATOM     15  C   UNL d   1      33.137  20.163 -22.266  0.00  0.00     0.107 A 
ATOM     16  C   UNL d   1      33.192  19.402 -21.945  0.00  0.00     0.015 A 
ATOM     17  C   UNL d   1      33.225  18.750 -22.459  0.00  0.00     0.021 A 
BRANCH  15  18
ATOM     18  S   UNL d   1      33.104  20.814 -21.752  0.00  0.00     0.302 S 
ATOM     19  O   UNL d   1      33.240  21.331 -22.399  0.00  0.00    -0.197 OA
ATOM     20  O   UNL d   1      32.973  20.312 -21.124  0.00  0.00    -0.197 OA
ATOM     21  N   UNL d   1      33.072  21.460 -21.242  0.00  0.00    -0.043 N 
ENDBRANCH  15  18
ENDBRANCH   1  12
TORSDOF 4
ENDMDL
MODEL 5
REMARK VINA RESULT:      -0.3      1.485      1.894
REMARK  4 active torsions:
REMARK  status: ('A' for Active; 'I' for Inactive)
REMARK    1  A    between atoms: N_3  and  S_1 
REMARK    2  A    between atoms: C_4  and  S_1 
REMARK    3  A    between atoms: S_2  and  C_5 
REMARK    4  A    between atoms: C_13  and  N_3 
ROOT
ATOM      1  N   UNL d   1      29.658  16.806 -25.066  0.00  0.00    -0.158 NA
ENDROOT
BRANCH   1   2
ATOM      2  S   UNL d   1      29.024  16.582 -24.607  0.00  0.00     0.285 S 
ATOM      3  O   UNL d   1      28.715  17.346 -24.640  0.00  0.00    -0.198 OA
ATOM      4  O   UNL d   1      29.319  15.805 -24.562  0.00  0.00    -0.198 OA
BRANCH   2   5
ATOM      5  C   UNL d   1      28.356  16.340 -24.122  0.00  0.00     0.105 A 
ATOM      6  C   UNL d   1      28.162  16.781 -23.472  0.00  0.00     0.015 A 
ATOM      7  C   UNL d   1      27.528  16.566 -22.996  0.00  0.00     0.022 A 
ATOM      8  C   UNL d   1      27.090  15.903 -23.180  0.00  0.00     0.103 A 
ATOM      9  C   UNL d   1      27.292  15.453 -23.848  0.00  0.00     0.022 A 
ATOM     10  N   UNL d   1      26.443  15.689 -22.690  0.00  0.00    -0.148 N 
ATOM     11  C   UNL d   1      27.934  15.689 -24.310  0.00  0.00     0.015 A 
ENDBRANCH   2   5
ENDBRANCH   1   2
BRANCH   1  12
ATOM     12  C   UNL d   1      30.374  17.000 -24.719  0.00  0.00     0.094 A 
ATOM     13  C   UNL d   1      30.575  17.775 -24.637  0.00  0.00     0.021 A 
ATOM     14  C   UNL d   1      31.301  17.972 -24.285  0.00  0.00     0.015 A 
ATOM     15  C   UNL d   1      31.796  17.385 -24.030  0.00  0.00     0.107 A 
ATOM     16  C   UNL d   1      31.593  16.586 -24.112  0.00  0.00     0.015 A 
ATOM     17  C   UNL d   1      30.867  16.389 -24.464  0.00  0.00     0.021 A 
BRANCH  15  18
ATOM     18  S   UNL d   1      32.521  17.582 -23.678  0.00  0.00     0.302 S 
ATOM     19  O   UNL d   1      32.841  17.754 -24.434  0.00  0.00    -0.197 OA
ATOM     20  O   UNL d   1      32.211  17.414 -22.944  0.00  0.00    -0.197 OA
ATOM     21  N   UNL d   1      33.241  17.777 -23.329  0.00  0.00    -0.043 N 
ENDBRANCH  15  18
ENDBRANCH   1  12
TORSDOF 4
ENDMDL
