MODEL 1
REMARK VINA RESULT:      14.2      0.000      0.000
REMARK  4 active torsions:
REMARK  status: ('A' for Active; 'I' for Inactive)
REMARK    1  A    between atoms: C_3  and  C_2 
REMARK    2  A    between atoms: C_14  and  C_12 
REMARK    3  A    between atoms: C_15  and  C_14 
REMARK    4  A    between atoms: C_16  and  C_15 
ROOT
ATOM      1  N   UNL d   1      24.279  13.235  -3.755  0.00  0.00    -0.244 NA
ATOM      2  C   UNL d   1      24.355  12.566  -3.283  0.00  0.00     0.081 A 
ATOM      3  C   UNL d   1      24.585  11.807  -3.657  0.00  0.00     0.019 A 
ATOM      4  C   UNL d   1      24.415  13.209  -4.571  0.00  0.00     0.099 A 
ATOM      5  C   UNL d   1      24.722  11.780  -4.474  0.00  0.00     0.003 A 
ATOM      6  C   UNL d   1      24.634  12.512  -4.955  0.00  0.00     0.019 A 
ENDROOT
BRANCH   2   7
ATOM      7  C   UNL d   1      24.218  12.593  -2.467  0.00  0.00     0.018 A 
ATOM      8  C   UNL d   1      24.767  12.916  -1.943  0.00  0.00     0.002 A 
ATOM      9  C   UNL d   1      24.636  12.942  -1.158  0.00  0.00     0.007 A 
ATOM     10  C   UNL d   1      23.940  12.647  -0.802  0.00  0.00     0.035 A 
ATOM     11  C   UNL d   1      23.338  12.295  -1.354  0.00  0.00     0.007 A 
ATOM     12 BR   UNL d   1      23.809  12.673  -0.017  0.00  0.00    -0.049 Br
ATOM     13  C   UNL d   1      23.469  12.269  -2.139  0.00  0.00     0.002 A 
ENDBRANCH   2   7
BRANCH   6  14
ATOM     14  C   UNL d   1      24.768  12.485  -5.759  0.00  0.00     0.002 C 
BRANCH  14  15
ATOM     15  C   UNL d   1      24.424  13.023  -6.258  0.00  0.00     0.000 C 
BRANCH  15  16
ATOM     16  C   UNL d   1      24.694  13.791  -6.298  0.00  0.00     0.000 C 
ATOM     17  C   UNL d   1      24.173  14.392  -6.386  0.00  0.00     0.000 C 
ENDBRANCH  15  16
ENDBRANCH  14  15
ENDBRANCH   6  14
TORSDOF 4
ENDMDL
