MODEL 1
REMARK VINA RESULT:      51.2      0.000      0.000
REMARK  4 active torsions:
REMARK  status: ('A' for Active; 'I' for Inactive)
REMARK    1  A    between atoms: S_7  and  C_2 
REMARK    2  A    between atoms: C_20  and  S_7 
REMARK    3  A    between atoms: C_10  and  C_20 
REMARK       I    between atoms: N_12  and  C_10 
REMARK    4  A    between atoms: C_15  and  N_12 
ROOT
ATOM      1  C   UNL d   1     -49.372  27.297  34.125  0.00  0.00     0.286 C 
ATOM      2  N   UNL d   1     -49.686  27.025  33.411  0.00  0.00    -0.207 NA
ATOM      3  O   UNL d   1     -49.443  26.842  34.805  0.00  0.00    -0.265 OA
ENDROOT
BRANCH   1   4
ATOM      4  C   UNL d   1     -48.993  28.023  34.136  0.00  0.00     0.101 C 
BRANCH   4   5
ATOM      5  S   UNL d   1     -48.721  28.327  34.850  0.00  0.00    -0.041 SA
BRANCH   5   6
ATOM      6  C   UNL d   1     -48.450  29.104  34.891  0.00  0.00     0.220 A 
ATOM      7  N   UNL d   1     -47.944  29.334  35.501  0.00  0.00    -0.148 N 
ATOM      8  C   UNL d   1     -47.665  30.115  35.552  0.00  0.00     0.305 A 
ATOM      9  N   UNL d   1     -47.708  28.787  36.070  0.00  0.00    -0.037 N 
ATOM     10  C   UNL d   1     -47.909  30.658  34.973  0.00  0.00     0.185 A 
ATOM     11  O   UNL d   1     -47.164  30.342  36.155  0.00  0.00    -0.263 OA
ATOM     12  N   UNL d   1     -48.416  30.429  34.363  0.00  0.00    -0.139 NA
ATOM     13  N   UNL d   1     -48.684  29.653  34.325  0.00  0.00    -0.121 NA
ENDBRANCH   5   6
ENDBRANCH   4   5
ENDBRANCH   1   4
BRANCH   2  14
ATOM     14  C   UNL d   1     -50.072  26.293  33.385  0.00  0.00     0.087 A 
ATOM     15  C   UNL d   1     -50.898  26.264  33.399  0.00  0.00     0.045 A 
ATOM     16  C   UNL d   1     -51.280  25.540  33.374  0.00  0.00     0.121 A 
ATOM     17  O   UNL d   1     -52.083  25.331  33.379  0.00  0.00    -0.299 OA
ATOM     18  C   UNL d   1     -50.844  24.841  33.334  0.00  0.00     0.119 A 
ATOM     19  C   UNL d   1     -52.144  24.513  33.343  0.00  0.00     0.304 A 
ATOM     20  O   UNL d   1     -51.377  24.209  33.316  0.00  0.00    -0.300 OA
ATOM     21  C   UNL d   1     -50.020  24.869  33.320  0.00  0.00     0.028 A 
ATOM     22  C   UNL d   1     -49.629  25.602  33.346  0.00  0.00     0.021 A 
ENDBRANCH   2  14
TORSDOF 4
ENDMDL
MODEL 2
REMARK VINA RESULT:      51.5      1.649      5.313
REMARK  4 active torsions:
REMARK  status: ('A' for Active; 'I' for Inactive)
REMARK    1  A    between atoms: S_7  and  C_2 
REMARK    2  A    between atoms: C_20  and  S_7 
REMARK    3  A    between atoms: C_10  and  C_20 
REMARK       I    between atoms: N_12  and  C_10 
REMARK    4  A    between atoms: C_15  and  N_12 
ROOT
ATOM      1  C   UNL d   1     -49.564  27.105  33.876  0.00  0.00     0.286 C 
ATOM      2  N   UNL d   1     -49.173  27.014  34.598  0.00  0.00    -0.207 NA
ATOM      3  O   UNL d   1     -49.664  27.853  33.554  0.00  0.00    -0.265 OA
ENDROOT
BRANCH   1   4
ATOM      4  C   UNL d   1     -49.845  26.436  33.495  0.00  0.00     0.101 C 
BRANCH   4   5
ATOM      5  S   UNL d   1     -50.655  26.340  33.389  0.00  0.00    -0.041 SA
BRANCH   5   6
ATOM      6  C   UNL d   1     -50.981  25.584  33.362  0.00  0.00     0.220 A 
ATOM      7  N   UNL d   1     -51.801  25.488  33.347  0.00  0.00    -0.148 N 
ATOM      8  C   UNL d   1     -52.140  24.730  33.320  0.00  0.00     0.305 A 
ATOM      9  N   UNL d   1     -52.294  26.148  33.360  0.00  0.00    -0.037 N 
ATOM     10  C   UNL d   1     -51.633  24.072  33.308  0.00  0.00     0.185 A 
ATOM     11  O   UNL d   1     -52.951  24.635  33.306  0.00  0.00    -0.263 OA
ATOM     12  N   UNL d   1     -50.814  24.169  33.322  0.00  0.00    -0.139 NA
ATOM     13  N   UNL d   1     -50.492  24.924  33.349  0.00  0.00    -0.121 NA
ENDBRANCH   5   6
ENDBRANCH   4   5
ENDBRANCH   1   4
BRANCH   2  14
ATOM     14  C   UNL d   1     -48.884  27.682  34.994  0.00  0.00     0.087 A 
ATOM     15  C   UNL d   1     -48.275  28.126  34.656  0.00  0.00     0.045 A 
ATOM     16  C   UNL d   1     -47.988  28.786  35.047  0.00  0.00     0.121 A 
ATOM     17  O   UNL d   1     -47.394  29.335  34.859  0.00  0.00    -0.299 OA
ATOM     18  C   UNL d   1     -48.305  29.009  35.776  0.00  0.00     0.119 A 
ATOM     19  C   UNL d   1     -47.344  29.889  35.462  0.00  0.00     0.304 A 
ATOM     20  O   UNL d   1     -47.908  29.688  36.030  0.00  0.00    -0.300 OA
ATOM     21  C   UNL d   1     -48.914  28.565  36.113  0.00  0.00     0.028 A 
ATOM     22  C   UNL d   1     -49.207  27.895  35.719  0.00  0.00     0.021 A 
ENDBRANCH   2  14
TORSDOF 4
ENDMDL
MODEL 3
REMARK VINA RESULT:      52.0      0.638      1.310
REMARK  4 active torsions:
REMARK  status: ('A' for Active; 'I' for Inactive)
REMARK    1  A    between atoms: S_7  and  C_2 
REMARK    2  A    between atoms: C_20  and  S_7 
REMARK    3  A    between atoms: C_10  and  C_20 
REMARK       I    between atoms: N_12  and  C_10 
REMARK    4  A    between atoms: C_15  and  N_12 
ROOT
ATOM      1  C   UNL d   1     -49.268  27.508  34.419  0.00  0.00     0.286 C 
ATOM      2  N   UNL d   1     -49.604  27.395  33.672  0.00  0.00    -0.207 NA
ATOM      3  O   UNL d   1     -49.555  27.092  35.066  0.00  0.00    -0.265 OA
ENDROOT
BRANCH   1   4
ATOM      4  C   UNL d   1     -48.648  28.038  34.494  0.00  0.00     0.101 C 
BRANCH   4   5
ATOM      5  S   UNL d   1     -48.804  28.814  34.717  0.00  0.00    -0.041 SA
BRANCH   5   6
ATOM      6  C   UNL d   1     -48.219  29.263  35.085  0.00  0.00     0.220 A 
ATOM      7  N   UNL d   1     -48.157  30.070  34.925  0.00  0.00    -0.148 N 
ATOM      8  C   UNL d   1     -47.571  30.533  35.290  0.00  0.00     0.305 A 
ATOM      9  N   UNL d   1     -48.678  30.429  34.398  0.00  0.00    -0.037 N 
ATOM     10  C   UNL d   1     -47.050  30.161  35.820  0.00  0.00     0.185 A 
ATOM     11  O   UNL d   1     -47.509  31.332  35.133  0.00  0.00    -0.263 OA
ATOM     12  N   UNL d   1     -47.113  29.354  35.979  0.00  0.00    -0.139 NA
ATOM     13  N   UNL d   1     -47.697  28.909  35.611  0.00  0.00    -0.121 NA
ENDBRANCH   5   6
ENDBRANCH   4   5
ENDBRANCH   1   4
BRANCH   2  14
ATOM     14  C   UNL d   1     -50.231  26.862  33.582  0.00  0.00     0.087 A 
ATOM     15  C   UNL d   1     -50.082  26.050  33.587  0.00  0.00     0.045 A 
ATOM     16  C   UNL d   1     -50.702  25.522  33.497  0.00  0.00     0.121 A 
ATOM     17  O   UNL d   1     -50.732  24.692  33.479  0.00  0.00    -0.299 OA
ATOM     18  C   UNL d   1     -51.473  25.798  33.401  0.00  0.00     0.119 A 
ATOM     19  C   UNL d   1     -51.512  24.458  33.373  0.00  0.00     0.304 A 
ATOM     20  O   UNL d   1     -51.971  25.142  33.325  0.00  0.00    -0.300 OA
ATOM     21  C   UNL d   1     -51.622  26.609  33.396  0.00  0.00     0.028 A 
ATOM     22  C   UNL d   1     -50.996  27.147  33.487  0.00  0.00     0.021 A 
ENDBRANCH   2  14
TORSDOF 4
ENDMDL
MODEL 4
REMARK VINA RESULT:      53.0      0.885      1.294
REMARK  4 active torsions:
REMARK  status: ('A' for Active; 'I' for Inactive)
REMARK    1  A    between atoms: S_7  and  C_2 
REMARK    2  A    between atoms: C_20  and  S_7 
REMARK    3  A    between atoms: C_10  and  C_20 
REMARK       I    between atoms: N_12  and  C_10 
REMARK    4  A    between atoms: C_15  and  N_12 
ROOT
ATOM      1  C   UNL d   1     -49.946  26.704  33.593  0.00  0.00     0.286 C 
ATOM      2  N   UNL d   1     -50.755  26.691  33.427  0.00  0.00    -0.207 NA
ATOM      3  O   UNL d   1     -49.543  26.001  33.727  0.00  0.00    -0.265 OA
ENDROOT
BRANCH   1   4
ATOM      4  C   UNL d   1     -49.563  27.427  33.620  0.00  0.00     0.101 C 
BRANCH   4   5
ATOM      5  S   UNL d   1     -49.200  27.668  34.318  0.00  0.00    -0.041 SA
BRANCH   5   6
ATOM      6  C   UNL d   1     -48.932  28.443  34.398  0.00  0.00     0.220 A 
ATOM      7  N   UNL d   1     -48.273  28.606  34.867  0.00  0.00    -0.148 N 
ATOM      8  C   UNL d   1     -47.995  29.384  34.955  0.00  0.00     0.305 A 
ATOM      9  N   UNL d   1     -47.881  27.994  35.256  0.00  0.00    -0.037 N 
ATOM     10  C   UNL d   1     -48.397  29.993  34.558  0.00  0.00     0.185 A 
ATOM     11  O   UNL d   1     -47.342  29.545  35.419  0.00  0.00    -0.263 OA
ATOM     12  N   UNL d   1     -49.056  29.829  34.089  0.00  0.00    -0.139 NA
ATOM     13  N   UNL d   1     -49.321  29.055  34.011  0.00  0.00    -0.121 NA
ENDBRANCH   5   6
ENDBRANCH   4   5
ENDBRANCH   1   4
BRANCH   2  14
ATOM     14  C   UNL d   1     -51.156  25.967  33.396  0.00  0.00     0.087 A 
ATOM     15  C   UNL d   1     -50.726  25.261  33.384  0.00  0.00     0.045 A 
ATOM     16  C   UNL d   1     -51.121  24.544  33.354  0.00  0.00     0.121 A 
ATOM     17  O   UNL d   1     -50.855  23.758  33.336  0.00  0.00    -0.299 OA
ATOM     18  C   UNL d   1     -51.946  24.524  33.335  0.00  0.00     0.119 A 
ATOM     19  C   UNL d   1     -51.505  23.259  33.307  0.00  0.00     0.304 A 
ATOM     20  O   UNL d   1     -52.181  23.733  33.306  0.00  0.00    -0.300 OA
ATOM     21  C   UNL d   1     -52.375  25.229  33.346  0.00  0.00     0.028 A 
ATOM     22  C   UNL d   1     -51.977  25.957  33.377  0.00  0.00     0.021 A 
ENDBRANCH   2  14
TORSDOF 4
ENDMDL
