MODEL 1
REMARK VINA RESULT:      -9.5      0.000      0.000
REMARK  3 active torsions:
REMARK  status: ('A' for Active; 'I' for Inactive)
REMARK    1  A    between atoms: N_3  and  C_2 
REMARK       I    between atoms: C_4  and  N_3 
REMARK    2  A    between atoms: C_10  and  N_3 
REMARK    3  A    between atoms: C_12  and  C_4 
ROOT
ATOM      1  N   UNL d   1      52.886  32.520  53.424  0.00  0.00    -0.274 N 
ATOM      2  C   UNL d   1      52.807  31.296  53.169  0.00  0.00     0.265 C 
ATOM      3  O   UNL d   1      52.139  31.114  52.765  0.00  0.00    -0.267 OA
ENDROOT
BRANCH   1   4
ATOM      4  C   UNL d   1      53.528  32.747  53.821  0.00  0.00     0.079 A 
ATOM      5  C   UNL d   1      53.575  32.861  54.598  0.00  0.00     0.116 A 
ATOM      6  S   UNL d   1      54.309  33.083  54.765  0.00  0.00     0.213 S 
ATOM      7  C   UNL d   1      54.710  33.105  54.090  0.00  0.00     0.100 A 
ATOM      8  O   UNL d   1      55.043  33.305  54.932  0.00  0.00    -0.217 OA
ATOM      9  O   UNL d   1      53.940  33.072  55.453  0.00  0.00    -0.217 OA
ATOM     10  C   UNL d   1      54.231  32.898  53.511  0.00  0.00     0.030 A 
ENDBRANCH   1   4
BRANCH   1  11
ATOM     11  C   UNL d   1      52.300  33.054  53.190  0.00  0.00     0.067 A 
ATOM     12  C   UNL d   1      52.426  33.522  52.530  0.00  0.00     0.020 A 
ATOM     13  C   UNL d   1      51.831  34.068  52.286  0.00  0.00     0.031 A 
ATOM     14  C   UNL d   1      51.125  34.125  52.717  0.00  0.00     0.140 A 
ATOM     15  C   UNL d   1      51.004  33.652  53.380  0.00  0.00     0.031 A 
ATOM     16  F   UNL d   1      50.542  34.656  52.484  0.00  0.00    -0.204 F 
ATOM     17  C   UNL d   1      51.576  33.114  53.630  0.00  0.00     0.020 A 
ENDBRANCH   1  11
BRANCH   2  18
ATOM     18  C   UNL d   1      53.382  30.743  53.393  0.00  0.00     0.057 C 
ATOM     19  C   UNL d   1      54.062  30.618  52.919  0.00  0.00     0.005 C 
ATOM     20  C   UNL d   1      53.281  30.300  54.105  0.00  0.00     0.005 C 
ENDBRANCH   2  18
TORSDOF 3
ENDMDL
MODEL 2
REMARK VINA RESULT:      -9.1      1.936      2.936
REMARK  3 active torsions:
REMARK  status: ('A' for Active; 'I' for Inactive)
REMARK    1  A    between atoms: N_3  and  C_2 
REMARK       I    between atoms: C_4  and  N_3 
REMARK    2  A    between atoms: C_10  and  N_3 
REMARK    3  A    between atoms: C_12  and  C_4 
ROOT
ATOM      1  N   UNL d   1      53.380  32.396  53.745  0.00  0.00    -0.274 N 
ATOM      2  C   UNL d   1      53.394  31.153  53.589  0.00  0.00     0.265 C 
ATOM      3  O   UNL d   1      53.999  30.806  53.984  0.00  0.00    -0.267 OA
ENDROOT
BRANCH   1   4
ATOM      4  C   UNL d   1      52.801  32.781  53.374  0.00  0.00     0.079 A 
ATOM      5  C   UNL d   1      52.116  33.004  53.692  0.00  0.00     0.116 A 
ATOM      6  S   UNL d   1      51.701  33.370  53.136  0.00  0.00     0.213 S 
ATOM      7  C   UNL d   1      52.131  33.371  52.478  0.00  0.00     0.100 A 
ATOM      8  O   UNL d   1      51.285  33.736  52.579  0.00  0.00    -0.217 OA
ATOM      9  O   UNL d   1      51.247  33.387  53.771  0.00  0.00    -0.217 OA
ATOM     10  C   UNL d   1      52.806  33.010  52.625  0.00  0.00     0.030 A 
ENDBRANCH   1   4
BRANCH   1  11
ATOM     11  C   UNL d   1      53.943  32.785  54.209  0.00  0.00     0.067 A 
ATOM     12  C   UNL d   1      54.601  33.113  53.847  0.00  0.00     0.020 A 
ATOM     13  C   UNL d   1      55.179  33.511  54.316  0.00  0.00     0.031 A 
ATOM     14  C   UNL d   1      55.075  33.565  55.136  0.00  0.00     0.140 A 
ATOM     15  C   UNL d   1      54.412  33.233  55.494  0.00  0.00     0.031 A 
ATOM     16  F   UNL d   1      55.636  33.952  55.597  0.00  0.00    -0.204 F 
ATOM     17  C   UNL d   1      53.839  32.842  55.049  0.00  0.00     0.020 A 
ENDBRANCH   1  11
BRANCH   2  18
ATOM     18  C   UNL d   1      52.841  30.741  53.130  0.00  0.00     0.057 C 
ATOM     19  C   UNL d   1      52.957  30.648  52.304  0.00  0.00     0.005 C 
ATOM     20  C   UNL d   1      52.154  30.414  53.496  0.00  0.00     0.005 C 
ENDBRANCH   2  18
TORSDOF 3
ENDMDL
MODEL 3
REMARK VINA RESULT:      -9.0      2.018      3.573
REMARK  3 active torsions:
REMARK  status: ('A' for Active; 'I' for Inactive)
REMARK    1  A    between atoms: N_3  and  C_2 
REMARK       I    between atoms: C_4  and  N_3 
REMARK    2  A    between atoms: C_10  and  N_3 
REMARK    3  A    between atoms: C_12  and  C_4 
ROOT
ATOM      1  N   UNL d   1      53.026  33.321  53.648  0.00  0.00    -0.274 N 
ATOM      2  C   UNL d   1      52.383  34.291  53.183  0.00  0.00     0.265 C 
ATOM      3  O   UNL d   1      52.690  34.994  53.413  0.00  0.00    -0.267 OA
ENDROOT
BRANCH   1   4
ATOM      4  C   UNL d   1      52.761  32.606  53.449  0.00  0.00     0.079 A 
ATOM      5  C   UNL d   1      53.071  32.135  52.901  0.00  0.00     0.116 A 
ATOM      6  S   UNL d   1      52.641  31.478  52.877  0.00  0.00     0.213 S 
ATOM      7  C   UNL d   1      52.069  31.549  53.411  0.00  0.00     0.100 A 
ATOM      8  O   UNL d   1      52.211  30.822  52.854  0.00  0.00    -0.217 OA
ATOM      9  O   UNL d   1      53.197  31.375  52.339  0.00  0.00    -0.217 OA
ATOM     10  C   UNL d   1      52.143  32.242  53.761  0.00  0.00     0.030 A 
ENDBRANCH   1   4
BRANCH   1  11
ATOM     11  C   UNL d   1      53.687  33.428  54.133  0.00  0.00     0.067 A 
ATOM     12  C   UNL d   1      53.582  33.489  54.943  0.00  0.00     0.020 A 
ATOM     13  C   UNL d   1      54.254  33.598  55.443  0.00  0.00     0.031 A 
ATOM     14  C   UNL d   1      55.011  33.642  55.110  0.00  0.00     0.140 A 
ATOM     15  C   UNL d   1      55.110  33.579  54.294  0.00  0.00     0.031 A 
ATOM     16  F   UNL d   1      55.668  33.748  55.592  0.00  0.00    -0.204 F 
ATOM     17  C   UNL d   1      54.464  33.473  53.793  0.00  0.00     0.020 A 
ENDBRANCH   1  11
BRANCH   2  18
ATOM     18  C   UNL d   1      51.718  34.209  52.696  0.00  0.00     0.057 C 
ATOM     19  C   UNL d   1      50.955  34.111  53.028  0.00  0.00     0.005 C 
ATOM     20  C   UNL d   1      51.811  34.225  51.856  0.00  0.00     0.005 C 
ENDBRANCH   2  18
TORSDOF 3
ENDMDL
MODEL 4
REMARK VINA RESULT:      -9.0      1.147      2.282
REMARK  3 active torsions:
REMARK  status: ('A' for Active; 'I' for Inactive)
REMARK    1  A    between atoms: N_3  and  C_2 
REMARK       I    between atoms: C_4  and  N_3 
REMARK    2  A    between atoms: C_10  and  N_3 
REMARK    3  A    between atoms: C_12  and  C_4 
ROOT
ATOM      1  N   UNL d   1      52.621  32.957  53.457  0.00  0.00    -0.274 N 
ATOM      2  C   UNL d   1      53.379  33.469  54.313  0.00  0.00     0.265 C 
ATOM      3  O   UNL d   1      53.158  34.215  54.504  0.00  0.00    -0.267 OA
ENDROOT
BRANCH   1   4
ATOM      4  C   UNL d   1      52.800  32.222  53.237  0.00  0.00     0.079 A 
ATOM      5  C   UNL d   1      52.393  31.573  53.419  0.00  0.00     0.116 A 
ATOM      6  S   UNL d   1      52.758  30.960  53.092  0.00  0.00     0.213 S 
ATOM      7  C   UNL d   1      53.388  31.234  52.710  0.00  0.00     0.100 A 
ATOM      8  O   UNL d   1      53.123  30.347  52.765  0.00  0.00    -0.217 OA
ATOM      9  O   UNL d   1      52.142  30.655  53.461  0.00  0.00    -0.217 OA
ATOM     10  C   UNL d   1      53.413  32.008  52.799  0.00  0.00     0.030 A 
ENDBRANCH   1   4
BRANCH   1  11
ATOM     11  C   UNL d   1      51.976  33.367  53.144  0.00  0.00     0.067 A 
ATOM     12  C   UNL d   1      52.074  33.803  52.457  0.00  0.00     0.020 A 
ATOM     13  C   UNL d   1      51.417  34.224  52.133  0.00  0.00     0.031 A 
ATOM     14  C   UNL d   1      50.682  34.192  52.513  0.00  0.00     0.140 A 
ATOM     15  C   UNL d   1      50.590  33.753  53.204  0.00  0.00     0.031 A 
ATOM     16  F   UNL d   1      50.040  34.600  52.202  0.00  0.00    -0.204 F 
ATOM     17  C   UNL d   1      51.221  33.336  53.532  0.00  0.00     0.020 A 
ENDBRANCH   1  11
BRANCH   2  18
ATOM     18  C   UNL d   1      54.032  33.078  54.641  0.00  0.00     0.057 C 
ATOM     19  C   UNL d   1      53.950  32.623  55.341  0.00  0.00     0.005 C 
ATOM     20  C   UNL d   1      54.787  33.138  54.267  0.00  0.00     0.005 C 
ENDBRANCH   2  18
TORSDOF 3
ENDMDL
MODEL 5
REMARK VINA RESULT:      -8.8      1.606      2.879
REMARK  3 active torsions:
REMARK  status: ('A' for Active; 'I' for Inactive)
REMARK    1  A    between atoms: N_3  and  C_2 
REMARK       I    between atoms: C_4  and  N_3 
REMARK    2  A    between atoms: C_10  and  N_3 
REMARK    3  A    between atoms: C_12  and  C_4 
ROOT
ATOM      1  N   UNL d   1      53.296  32.328  53.730  0.00  0.00    -0.274 N 
ATOM      2  C   UNL d   1      52.358  33.045  53.311  0.00  0.00     0.265 C 
ATOM      3  O   UNL d   1      51.767  32.611  52.988  0.00  0.00    -0.267 OA
ENDROOT
BRANCH   1   4
ATOM      4  C   UNL d   1      53.902  32.712  54.057  0.00  0.00     0.079 A 
ATOM      5  C   UNL d   1      53.992  32.865  54.823  0.00  0.00     0.116 A 
ATOM      6  S   UNL d   1      54.667  33.256  54.912  0.00  0.00     0.213 S 
ATOM      7  C   UNL d   1      54.988  33.342  54.200  0.00  0.00     0.100 A 
ATOM      8  O   UNL d   1      55.342  33.647  55.001  0.00  0.00    -0.217 OA
ATOM      9  O   UNL d   1      54.376  33.189  55.633  0.00  0.00    -0.217 OA
ATOM     10  C   UNL d   1      54.518  33.007  53.676  0.00  0.00     0.030 A 
ENDBRANCH   1   4
BRANCH   1  11
ATOM     11  C   UNL d   1      53.277  31.504  53.667  0.00  0.00     0.067 A 
ATOM     12  C   UNL d   1      53.465  31.154  52.951  0.00  0.00     0.020 A 
ATOM     13  C   UNL d   1      53.447  30.313  52.881  0.00  0.00     0.031 A 
ATOM     14  C   UNL d   1      53.241  29.851  53.537  0.00  0.00     0.140 A 
ATOM     15  C   UNL d   1      53.053  30.209  54.255  0.00  0.00     0.031 A 
ATOM     16  F   UNL d   1      53.222  29.031  53.474  0.00  0.00    -0.204 F 
ATOM     17  C   UNL d   1      53.066  31.029  54.338  0.00  0.00     0.020 A 
ENDBRANCH   1  11
BRANCH   2  18
ATOM     18  C   UNL d   1      52.354  33.872  53.363  0.00  0.00     0.057 C 
ATOM     19  C   UNL d   1      52.704  34.340  52.761  0.00  0.00     0.005 C 
ATOM     20  C   UNL d   1      51.994  34.248  54.029  0.00  0.00     0.005 C 
ENDBRANCH   2  18
TORSDOF 3
ENDMDL
MODEL 6
REMARK VINA RESULT:      -7.6      2.142      3.649
REMARK  3 active torsions:
REMARK  status: ('A' for Active; 'I' for Inactive)
REMARK    1  A    between atoms: N_3  and  C_2 
REMARK       I    between atoms: C_4  and  N_3 
REMARK    2  A    between atoms: C_10  and  N_3 
REMARK    3  A    between atoms: C_12  and  C_4 
ROOT
ATOM      1  N   UNL d   1      52.896  33.244  53.661  0.00  0.00    -0.274 N 
ATOM      2  C   UNL d   1      53.520  34.092  54.341  0.00  0.00     0.265 C 
ATOM      3  O   UNL d   1      54.162  33.776  54.701  0.00  0.00    -0.267 OA
ENDROOT
BRANCH   1   4
ATOM      4  C   UNL d   1      52.255  33.510  53.287  0.00  0.00     0.079 A 
ATOM      5  C   UNL d   1      51.510  33.409  53.519  0.00  0.00     0.116 A 
ATOM      6  S   UNL d   1      51.044  33.759  52.993  0.00  0.00     0.213 S 
ATOM      7  C   UNL d   1      51.505  34.073  52.439  0.00  0.00     0.100 A 
ATOM      8  O   UNL d   1      50.579  34.108  52.466  0.00  0.00    -0.217 OA
ATOM      9  O   UNL d   1      50.558  33.458  53.524  0.00  0.00    -0.217 OA
ATOM     10  C   UNL d   1      52.248  33.920  52.621  0.00  0.00     0.030 A 
ENDBRANCH   1   4
BRANCH   1  11
ATOM     11  C   UNL d   1      53.143  32.458  53.610  0.00  0.00     0.067 A 
ATOM     12  C   UNL d   1      52.991  31.949  54.234  0.00  0.00     0.020 A 
ATOM     13  C   UNL d   1      53.242  31.144  54.187  0.00  0.00     0.031 A 
ATOM     14  C   UNL d   1      53.638  30.877  53.510  0.00  0.00     0.140 A 
ATOM     15  C   UNL d   1      53.788  31.393  52.885  0.00  0.00     0.031 A 
ATOM     16  F   UNL d   1      53.884  30.095  53.459  0.00  0.00    -0.204 F 
ATOM     17  C   UNL d   1      53.550  32.182  52.917  0.00  0.00     0.020 A 
ENDBRANCH   1  11
BRANCH   2  18
ATOM     18  C   UNL d   1      53.292  34.885  54.408  0.00  0.00     0.057 C 
ATOM     19  C   UNL d   1      53.507  35.442  53.819  0.00  0.00     0.005 C 
ATOM     20  C   UNL d   1      52.838  35.135  55.075  0.00  0.00     0.005 C 
ENDBRANCH   2  18
TORSDOF 3
ENDMDL
