MODEL 1
REMARK VINA RESULT:      -8.9      0.000      0.000
REMARK  3 active torsions:
REMARK  status: ('A' for Active; 'I' for Inactive)
REMARK    1  A    between atoms: C_9  and  N_1 
REMARK       I    between atoms: C_8  and  N_2 
REMARK    2  A    between atoms: C_3  and  C_9 
REMARK    3  A    between atoms: C_13  and  C_8 
ROOT
ATOM      1  N   UNL d   1      53.288  30.764  53.761  0.00  0.00    -0.193 N 
ATOM      2  C   UNL d   1      53.434  32.080  53.576  0.00  0.00     0.055 A 
ATOM      3  N   UNL d   1      53.596  31.097  54.466  0.00  0.00    -0.163 NA
ATOM      4  C   UNL d   1      53.193  31.375  53.225  0.00  0.00     0.089 A 
ATOM      5  C   UNL d   1      53.117  29.969  53.645  0.00  0.00     0.303 C 
ATOM      6  C   UNL d   1      53.683  31.910  54.341  0.00  0.00     0.104 A 
ATOM      7  O   UNL d   1      52.811  29.726  52.909  0.00  0.00    -0.263 OA
ATOM      8  C   UNL d   1      52.901  31.288  52.455  0.00  0.00     0.021 C 
ATOM      9  C   UNL d   1      53.972  32.453  54.896  0.00  0.00     0.023 C 
ENDROOT
BRANCH   2  10
ATOM     10  C   UNL d   1      53.426  32.832  53.215  0.00  0.00     0.089 C 
BRANCH  10  11
ATOM     11  N   UNL d   1      52.729  33.276  53.196  0.00  0.00    -0.240 N 
ATOM     12  C   UNL d   1      52.162  33.251  52.606  0.00  0.00     0.267 A 
ATOM     13  C   UNL d   1      51.565  33.784  52.816  0.00  0.00     0.061 A 
ATOM     14  O   UNL d   1      52.185  32.781  51.927  0.00  0.00    -0.267 OA
ATOM     15  C   UNL d   1      50.864  33.990  52.438  0.00  0.00     0.005 A 
ATOM     16  C   UNL d   1      51.763  34.133  53.529  0.00  0.00     0.061 A 
ATOM     17  C   UNL d   1      50.361  34.547  52.776  0.00  0.00     0.000 A 
ATOM     18  C   UNL d   1      50.559  34.900  53.495  0.00  0.00     0.000 A 
ATOM     19  C   UNL d   1      51.261  34.693  53.874  0.00  0.00     0.005 A 
ATOM     20  C   UNL d   1      52.488  33.821  53.773  0.00  0.00     0.267 A 
ATOM     21  O   UNL d   1      52.896  34.019  54.466  0.00  0.00    -0.267 OA
ENDBRANCH  10  11
ENDBRANCH   2  10
BRANCH   5  22
ATOM     22  C   UNL d   1      53.247  29.426  54.250  0.00  0.00     0.158 A 
ATOM     23  O   UNL d   1      52.788  29.343  54.931  0.00  0.00    -0.300 OA
ATOM     24  C   UNL d   1      53.117  28.737  55.383  0.00  0.00     0.123 A 
ATOM     25  C   UNL d   1      53.771  28.448  54.989  0.00  0.00     0.029 A 
ATOM     26  C   UNL d   1      53.855  28.875  54.283  0.00  0.00     0.032 A 
ENDBRANCH   5  22
TORSDOF 3
ENDMDL
MODEL 2
REMARK VINA RESULT:      -7.5      1.390      4.532
REMARK  3 active torsions:
REMARK  status: ('A' for Active; 'I' for Inactive)
REMARK    1  A    between atoms: C_9  and  N_1 
REMARK       I    between atoms: C_8  and  N_2 
REMARK    2  A    between atoms: C_3  and  C_9 
REMARK    3  A    between atoms: C_13  and  C_8 
ROOT
ATOM      1  N   UNL d   1      53.372  33.426  53.752  0.00  0.00    -0.193 N 
ATOM      2  C   UNL d   1      53.013  32.323  53.088  0.00  0.00     0.055 A 
ATOM      3  N   UNL d   1      52.550  33.470  53.593  0.00  0.00    -0.163 NA
ATOM      4  C   UNL d   1      53.643  32.721  53.439  0.00  0.00     0.089 A 
ATOM      5  C   UNL d   1      53.810  33.996  54.151  0.00  0.00     0.303 C 
ATOM      6  C   UNL d   1      52.339  32.783  53.182  0.00  0.00     0.104 A 
ATOM      7  O   UNL d   1      54.625  33.870  54.265  0.00  0.00    -0.263 OA
ATOM      8  C   UNL d   1      54.427  32.459  53.474  0.00  0.00     0.021 C 
ATOM      9  C   UNL d   1      51.577  32.599  52.916  0.00  0.00     0.023 C 
ENDROOT
BRANCH   2  10
ATOM     10  C   UNL d   1      53.057  31.583  52.706  0.00  0.00     0.089 C 
BRANCH  10  11
ATOM     11  N   UNL d   1      53.090  30.887  53.151  0.00  0.00    -0.240 N 
ATOM     12  C   UNL d   1      53.771  30.478  53.350  0.00  0.00     0.267 A 
ATOM     13  C   UNL d   1      53.540  29.820  53.795  0.00  0.00     0.061 A 
ATOM     14  O   UNL d   1      54.543  30.687  53.144  0.00  0.00    -0.267 OA
ATOM     15  C   UNL d   1      53.982  29.218  54.141  0.00  0.00     0.005 A 
ATOM     16  C   UNL d   1      52.726  29.824  53.868  0.00  0.00     0.061 A 
ATOM     17  C   UNL d   1      53.605  28.619  54.561  0.00  0.00     0.000 A 
ATOM     18  C   UNL d   1      52.783  28.621  54.636  0.00  0.00     0.000 A 
ATOM     19  C   UNL d   1      52.341  29.224  54.289  0.00  0.00     0.005 A 
ATOM     20  C   UNL d   1      52.436  30.487  53.469  0.00  0.00     0.267 A 
ATOM     21  O   UNL d   1      51.641  30.707  53.401  0.00  0.00    -0.267 OA
ENDBRANCH  10  11
ENDBRANCH   2  10
BRANCH   5  22
ATOM     22  C   UNL d   1      53.443  34.678  54.431  0.00  0.00     0.158 A 
ATOM     23  O   UNL d   1      53.159  34.793  55.198  0.00  0.00    -0.300 OA
ATOM     24  C   UNL d   1      52.835  35.551  55.234  0.00  0.00     0.123 A 
ATOM     25  C   UNL d   1      52.917  35.901  54.501  0.00  0.00     0.029 A 
ATOM     26  C   UNL d   1      53.295  35.360  53.999  0.00  0.00     0.032 A 
ENDBRANCH   5  22
TORSDOF 3
ENDMDL
MODEL 3
REMARK VINA RESULT:      -7.3      1.633      4.897
REMARK  3 active torsions:
REMARK  status: ('A' for Active; 'I' for Inactive)
REMARK    1  A    between atoms: C_9  and  N_1 
REMARK       I    between atoms: C_8  and  N_2 
REMARK    2  A    between atoms: C_3  and  C_9 
REMARK    3  A    between atoms: C_13  and  C_8 
ROOT
ATOM      1  N   UNL d   1      50.606  34.665  52.800  0.00  0.00    -0.193 N 
ATOM      2  C   UNL d   1      51.911  34.392  52.895  0.00  0.00     0.055 A 
ATOM      3  N   UNL d   1      50.912  35.073  53.465  0.00  0.00    -0.163 NA
ATOM      4  C   UNL d   1      51.225  34.253  52.460  0.00  0.00     0.089 A 
ATOM      5  C   UNL d   1      49.823  34.686  52.548  0.00  0.00     0.303 C 
ATOM      6  C   UNL d   1      51.719  34.898  53.514  0.00  0.00     0.104 A 
ATOM      7  O   UNL d   1      49.606  34.247  51.874  0.00  0.00    -0.263 OA
ATOM      8  C   UNL d   1      51.163  33.775  51.788  0.00  0.00     0.021 C 
ATOM      9  C   UNL d   1      52.238  35.186  54.092  0.00  0.00     0.023 C 
ENDROOT
BRANCH   2  10
ATOM     10  C   UNL d   1      52.664  34.075  52.732  0.00  0.00     0.089 C 
BRANCH  10  11
ATOM     11  N   UNL d   1      52.910  33.378  53.103  0.00  0.00    -0.240 N 
ATOM     12  C   UNL d   1      53.341  33.331  53.797  0.00  0.00     0.267 A 
ATOM     13  C   UNL d   1      53.461  32.528  53.959  0.00  0.00     0.061 A 
ATOM     14  O   UNL d   1      53.606  33.969  54.250  0.00  0.00    -0.267 OA
ATOM     15  C   UNL d   1      53.852  32.152  54.577  0.00  0.00     0.005 A 
ATOM     16  C   UNL d   1      53.107  32.086  53.369  0.00  0.00     0.061 A 
ATOM     17  C   UNL d   1      53.888  31.330  54.603  0.00  0.00     0.000 A 
ATOM     18  C   UNL d   1      53.532  30.882  54.009  0.00  0.00     0.000 A 
ATOM     19  C   UNL d   1      53.140  31.259  53.390  0.00  0.00     0.005 A 
ATOM     20  C   UNL d   1      52.760  32.608  52.830  0.00  0.00     0.267 A 
ATOM     21  O   UNL d   1      52.343  32.398  52.147  0.00  0.00    -0.267 OA
ENDBRANCH  10  11
ENDBRANCH   2  10
BRANCH   5  22
ATOM     22  C   UNL d   1      49.269  35.134  52.960  0.00  0.00     0.158 A 
ATOM     23  O   UNL d   1      49.133  35.105  53.774  0.00  0.00    -0.300 OA
ATOM     24  C   UNL d   1      48.533  35.643  53.947  0.00  0.00     0.123 A 
ATOM     25  C   UNL d   1      48.300  36.002  53.252  0.00  0.00     0.029 A 
ATOM     26  C   UNL d   1      48.756  35.686  52.635  0.00  0.00     0.032 A 
ENDBRANCH   5  22
TORSDOF 3
ENDMDL
MODEL 4
REMARK VINA RESULT:      -6.8      4.081      6.220
REMARK  3 active torsions:
REMARK  status: ('A' for Active; 'I' for Inactive)
REMARK    1  A    between atoms: C_9  and  N_1 
REMARK       I    between atoms: C_8  and  N_2 
REMARK    2  A    between atoms: C_3  and  C_9 
REMARK    3  A    between atoms: C_13  and  C_8 
ROOT
ATOM      1  N   UNL d   1      49.223  35.033  52.512  0.00  0.00    -0.193 N 
ATOM      2  C   UNL d   1      48.222  35.901  52.690  0.00  0.00     0.055 A 
ATOM      3  N   UNL d   1      49.291  35.360  53.281  0.00  0.00    -0.163 NA
ATOM      4  C   UNL d   1      48.567  35.371  52.161  0.00  0.00     0.089 A 
ATOM      5  C   UNL d   1      49.732  34.476  52.185  0.00  0.00     0.303 C 
ATOM      6  C   UNL d   1      48.667  35.895  53.381  0.00  0.00     0.104 A 
ATOM      7  O   UNL d   1      49.588  34.206  51.411  0.00  0.00    -0.263 OA
ATOM      8  C   UNL d   1      48.300  35.202  51.396  0.00  0.00     0.021 C 
ATOM      9  C   UNL d   1      48.524  36.343  54.062  0.00  0.00     0.023 C 
ENDROOT
BRANCH   2  10
ATOM     10  C   UNL d   1      47.541  36.360  52.545  0.00  0.00     0.089 C 
BRANCH  10  11
ATOM     11  N   UNL d   1      46.789  36.029  52.638  0.00  0.00    -0.240 N 
ATOM     12  C   UNL d   1      46.307  35.761  52.034  0.00  0.00     0.267 A 
ATOM     13  C   UNL d   1      45.612  35.477  52.382  0.00  0.00     0.061 A 
ATOM     14  O   UNL d   1      46.483  35.772  51.227  0.00  0.00    -0.267 OA
ATOM     15  C   UNL d   1      44.936  35.145  52.051  0.00  0.00     0.005 A 
ATOM     16  C   UNL d   1      45.667  35.570  53.193  0.00  0.00     0.061 A 
ATOM     17  C   UNL d   1      44.314  34.906  52.535  0.00  0.00     0.000 A 
ATOM     18  C   UNL d   1      44.368  34.999  53.353  0.00  0.00     0.000 A 
ATOM     19  C   UNL d   1      45.045  35.332  53.684  0.00  0.00     0.005 A 
ATOM     20  C   UNL d   1      46.399  35.914  53.362  0.00  0.00     0.267 A 
ATOM     21  O   UNL d   1      46.686  36.107  54.114  0.00  0.00    -0.267 OA
ENDBRANCH  10  11
ENDBRANCH   2  10
BRANCH   5  22
ATOM     22  C   UNL d   1      50.370  34.194  52.622  0.00  0.00     0.158 A 
ATOM     23  O   UNL d   1      50.341  33.592  53.187  0.00  0.00    -0.300 OA
ATOM     24  C   UNL d   1      51.103  33.490  53.485  0.00  0.00     0.123 A 
ATOM     25  C   UNL d   1      51.598  34.020  53.112  0.00  0.00     0.029 A 
ATOM     26  C   UNL d   1      51.145  34.460  52.574  0.00  0.00     0.032 A 
ENDBRANCH   5  22
TORSDOF 3
ENDMDL
