MODEL 1
REMARK VINA RESULT:      -5.6      0.000      0.000
REMARK  4 active torsions:
REMARK  status: ('A' for Active; 'I' for Inactive)
REMARK    1  A    between atoms: S_6  and  C_1 
REMARK    2  A    between atoms: C_14  and  N_2 
REMARK    3  A    between atoms: C_7  and  S_6 
REMARK    4  A    between atoms: O_18  and  C_16 
ROOT
ATOM      1  C   UNL d   1     -41.138-122.999 -50.555  0.00  0.00     0.114 A 
ATOM      2  N   UNL d   1     -41.135-123.490 -51.218  0.00  0.00    -0.239 NA
ATOM      3  C   UNL d   1     -41.149-123.145 -51.961  0.00  0.00     0.084 A 
ATOM      4  C   UNL d   1     -41.164-122.340 -52.045  0.00  0.00     0.018 A 
ATOM      5  C   UNL d   1     -41.167-121.850 -51.387  0.00  0.00     0.004 A 
ATOM      6  C   UNL d   1     -41.147-123.636 -52.629  0.00  0.00     0.043 A 
ATOM      7  C   UNL d   1     -41.153-122.195 -50.638  0.00  0.00     0.026 A 
ATOM      8  C   UNL d   1     -41.178-121.996 -52.799  0.00  0.00     0.004 A 
ATOM      9  C   UNL d   1     -41.160-123.291 -53.374  0.00  0.00     0.096 A 
ATOM     10  C   UNL d   1     -41.176-122.487 -53.457  0.00  0.00     0.024 A 
ATOM     11  C   UNL d   1     -41.182-121.036 -51.472  0.00  0.00     0.000 C 
ENDROOT
BRANCH   1  12
ATOM     12  S   UNL d   1     -41.125-123.244 -49.740  0.00  0.00    -0.028 SA
BRANCH  12  13
ATOM     13  C   UNL d   1     -41.978-123.446 -49.766  0.00  0.00     0.220 A 
ATOM     14  N   UNL d   1     -42.515-123.499 -49.112  0.00  0.00    -0.186 N 
ATOM     15  N   UNL d   1     -43.247-123.705 -49.420  0.00  0.00    -0.038 NA
ATOM     16  N   UNL d   1     -43.182-123.783 -50.267  0.00  0.00    -0.022 NA
ATOM     17  N   UNL d   1     -42.395-123.621 -50.462  0.00  0.00    -0.101 NA
BRANCH  14  18
ATOM     18  C   UNL d   1     -42.329-123.367 -48.306  0.00  0.00     0.087 A 
ATOM     19  C   UNL d   1     -42.765-122.774 -47.889  0.00  0.00     0.019 A 
ATOM     20  C   UNL d   1     -42.595-122.614 -47.054  0.00  0.00     0.002 A 
ATOM     21  C   UNL d   1     -41.994-123.059 -46.679  0.00  0.00     0.000 A 
ATOM     22  C   UNL d   1     -41.543-123.667 -47.099  0.00  0.00     0.002 A 
ATOM     23  C   UNL d   1     -41.743-123.790 -47.917  0.00  0.00     0.019 A 
ENDBRANCH  14  18
ENDBRANCH  12  13
ENDBRANCH   1  12
BRANCH   9  24
ATOM     24  O   UNL d   1     -41.158-123.781 -54.031  0.00  0.00    -0.328 OA
ATOM     25  C   UNL d   1     -41.663-123.638 -54.649  0.00  0.00     0.181 C 
ENDBRANCH   9  24
TORSDOF 4
ENDMDL
MODEL 2
REMARK VINA RESULT:      -4.5      1.821      4.771
REMARK  4 active torsions:
REMARK  status: ('A' for Active; 'I' for Inactive)
REMARK    1  A    between atoms: S_6  and  C_1 
REMARK    2  A    between atoms: C_14  and  N_2 
REMARK    3  A    between atoms: C_7  and  S_6 
REMARK    4  A    between atoms: O_18  and  C_16 
ROOT
ATOM      1  C   UNL d   1     -41.704-123.277 -50.877  0.00  0.00     0.114 A 
ATOM      2  N   UNL d   1     -41.252-123.211 -50.190  0.00  0.00    -0.239 NA
ATOM      3  C   UNL d   1     -41.639-123.168 -49.469  0.00  0.00     0.084 A 
ATOM      4  C   UNL d   1     -42.447-123.190 -49.430  0.00  0.00     0.018 A 
ATOM      5  C   UNL d   1     -42.899-123.255 -50.111  0.00  0.00     0.004 A 
ATOM      6  C   UNL d   1     -41.187-123.102 -48.777  0.00  0.00     0.043 A 
ATOM      7  C   UNL d   1     -42.512-123.298 -50.838  0.00  0.00     0.026 A 
ATOM      8  C   UNL d   1     -42.834-123.146 -48.697  0.00  0.00     0.004 A 
ATOM      9  C   UNL d   1     -41.574-123.060 -48.054  0.00  0.00     0.096 A 
ATOM     10  C   UNL d   1     -42.382-123.081 -48.015  0.00  0.00     0.024 A 
ATOM     11  C   UNL d   1     -43.717-123.276 -50.071  0.00  0.00     0.000 C 
ENDROOT
BRANCH   1  12
ATOM     12  S   UNL d   1     -41.414-123.328 -51.675  0.00  0.00    -0.028 SA
BRANCH  12  13
ATOM     13  C   UNL d   1     -41.322-122.457 -51.719  0.00  0.00     0.220 A 
ATOM     14  N   UNL d   1     -41.365-121.970 -52.412  0.00  0.00    -0.186 N 
ATOM     15  N   UNL d   1     -41.243-121.196 -52.167  0.00  0.00    -0.038 NA
ATOM     16  N   UNL d   1     -41.123-121.185 -51.323  0.00  0.00    -0.022 NA
ATOM     17  N   UNL d   1     -41.174-121.969 -51.065  0.00  0.00    -0.101 NA
BRANCH  14  18
ATOM     18  C   UNL d   1     -41.505-122.232 -53.195  0.00  0.00     0.087 A 
ATOM     19  C   UNL d   1     -42.060-121.801 -53.666  0.00  0.00     0.019 A 
ATOM     20  C   UNL d   1     -42.226-122.049 -54.480  0.00  0.00     0.002 A 
ATOM     21  C   UNL d   1     -41.824-122.718 -54.782  0.00  0.00     0.000 A 
ATOM     22  C   UNL d   1     -41.254-123.164 -54.305  0.00  0.00     0.002 A 
ATOM     23  C   UNL d   1     -41.123-122.886 -53.512  0.00  0.00     0.019 A 
ENDBRANCH  14  18
ENDBRANCH  12  13
ENDBRANCH   1  12
BRANCH   9  24
ATOM     24  O   UNL d   1     -41.123-122.995 -47.373  0.00  0.00    -0.328 OA
ATOM     25  C   UNL d   1     -41.272-123.475 -46.736  0.00  0.00     0.181 C 
ENDBRANCH   9  24
TORSDOF 4
ENDMDL
