MODEL 1
REMARK VINA RESULT:      -6.2      0.000      0.000
REMARK  1 active torsions:
REMARK  status: ('A' for Active; 'I' for Inactive)
REMARK    1  A    between atoms: C_6  and  C_3 
ROOT
ATOM      1  N   UNL d   1     -48.755  14.744  23.300  0.00  0.00    -0.228 NA
ATOM      2  C   UNL d   1     -49.461  15.017  22.972  0.00  0.00     0.166 A 
ATOM      3  C   UNL d   1     -48.397  14.251  22.744  0.00  0.00     0.089 A 
ATOM      4  S   UNL d   1     -49.537  14.699  22.224  0.00  0.00    -0.055 SA
ATOM      5  C   UNL d   1     -48.880  14.220  22.071  0.00  0.00     0.057 A 
ATOM      6  S   UNL d   1     -49.996  15.528  23.343  0.00  0.00    -0.050 SA
ENDROOT
BRANCH   3   7
ATOM      7  C   UNL d   1     -47.675  13.855  22.839  0.00  0.00     0.018 A 
ATOM      8  C   UNL d   1     -46.970  14.254  22.709  0.00  0.00     0.002 A 
ATOM      9  C   UNL d   1     -46.252  13.866  22.802  0.00  0.00     0.000 A 
ATOM     10  C   UNL d   1     -46.241  13.064  23.029  0.00  0.00     0.000 A 
ATOM     11  C   UNL d   1     -46.950  12.673  23.158  0.00  0.00     0.000 A 
ATOM     12  C   UNL d   1     -47.670  13.065  23.064  0.00  0.00     0.002 A 
ENDBRANCH   3   7
TORSDOF 1
ENDMDL
MODEL 2
REMARK VINA RESULT:      -6.1      1.620      1.906
REMARK  1 active torsions:
REMARK  status: ('A' for Active; 'I' for Inactive)
REMARK    1  A    between atoms: C_6  and  C_3 
ROOT
ATOM      1  N   UNL d   1     -48.892  12.454  23.501  0.00  0.00    -0.228 NA
ATOM      2  C   UNL d   1     -49.588  12.110  23.225  0.00  0.00     0.166 A 
ATOM      3  C   UNL d   1     -48.464  12.712  22.845  0.00  0.00     0.089 A 
ATOM      4  S   UNL d   1     -49.591  12.155  22.410  0.00  0.00    -0.055 SA
ATOM      5  C   UNL d   1     -48.896  12.528  22.162  0.00  0.00     0.057 A 
ATOM      6  S   UNL d   1     -50.180  11.777  23.698  0.00  0.00    -0.050 SA
ENDROOT
BRANCH   3   7
ATOM      7  C   UNL d   1     -47.728  13.091  22.863  0.00  0.00     0.018 A 
ATOM      8  C   UNL d   1     -47.691  13.911  22.838  0.00  0.00     0.002 A 
ATOM      9  C   UNL d   1     -46.963  14.292  22.856  0.00  0.00     0.000 A 
ATOM     10  C   UNL d   1     -46.262  13.845  22.900  0.00  0.00     0.000 A 
ATOM     11  C   UNL d   1     -46.307  13.027  22.925  0.00  0.00     0.000 A 
ATOM     12  C   UNL d   1     -47.039  12.646  22.907  0.00  0.00     0.002 A 
ENDBRANCH   3   7
TORSDOF 1
ENDMDL
MODEL 3
REMARK VINA RESULT:      -5.7      1.783      2.986
REMARK  1 active torsions:
REMARK  status: ('A' for Active; 'I' for Inactive)
REMARK    1  A    between atoms: C_6  and  C_3 
ROOT
ATOM      1  N   UNL d   1     -47.830  12.782  23.250  0.00  0.00    -0.228 NA
ATOM      2  C   UNL d   1     -47.061  12.496  23.334  0.00  0.00     0.166 A 
ATOM      3  C   UNL d   1     -47.784  13.506  22.857  0.00  0.00     0.089 A 
ATOM      4  S   UNL d   1     -46.548  13.034  22.997  0.00  0.00    -0.055 SA
ATOM      5  C   UNL d   1     -46.987  13.668  22.697  0.00  0.00     0.057 A 
ATOM      6  S   UNL d   1     -46.852  11.783  23.698  0.00  0.00    -0.050 SA
ENDROOT
BRANCH   3   7
ATOM      7  C   UNL d   1     -48.425  13.991  22.655  0.00  0.00     0.018 A 
ATOM      8  C   UNL d   1     -48.977  13.729  22.107  0.00  0.00     0.002 A 
ATOM      9  C   UNL d   1     -49.615  14.205  21.903  0.00  0.00     0.000 A 
ATOM     10  C   UNL d   1     -49.700  14.956  22.254  0.00  0.00     0.000 A 
ATOM     11  C   UNL d   1     -49.144  15.210  22.800  0.00  0.00     0.000 A 
ATOM     12  C   UNL d   1     -48.504  14.730  23.003  0.00  0.00     0.002 A 
ENDBRANCH   3   7
TORSDOF 1
ENDMDL
