MODEL 1
REMARK VINA RESULT:      -3.2      0.000      0.000
REMARK  6 active torsions:
REMARK  status: ('A' for Active; 'I' for Inactive)
REMARK    1  A    between atoms: C_9  and  N_1 
REMARK    2  A    between atoms: S_10  and  C_6 
REMARK    3  A    between atoms: C_16  and  C_9 
REMARK    4  A    between atoms: C_15  and  S_10 
REMARK    5  A    between atoms: C_12  and  C_15 
REMARK       I    between atoms: N_13  and  C_12 
REMARK    6  A    between atoms: C_19  and  N_13 
ROOT
ATOM      1  N   UNL d   1      57.161  -0.139  31.115  0.00  0.00    -0.192 N 
ATOM      2  N   UNL d   1      57.555  -0.796  31.409  0.00  0.00    -0.058 NA
ATOM      3  C   UNL d   1      57.494   0.047  30.385  0.00  0.00     0.189 A 
ATOM      4  C   UNL d   1      58.095  -0.504  30.238  0.00  0.00     0.164 A 
ATOM      5  N   UNL d   1      58.122  -1.020  30.881  0.00  0.00    -0.125 NA
ATOM      6  C   UNL d   1      58.533  -0.466  29.550  0.00  0.00     0.135 A 
ATOM      7  N   UNL d   1      57.332   0.636  29.843  0.00  0.00    -0.203 NA
ATOM      8  N   UNL d   1      58.374   0.131  28.994  0.00  0.00    -0.216 NA
ATOM      9  C   UNL d   1      57.773   0.682  29.140  0.00  0.00     0.201 A 
ENDROOT
BRANCH   6  10
ATOM     10  S   UNL d   1      59.133  -1.017  29.403  0.00  0.00    -0.061 SA
BRANCH  10  11
ATOM     11  C   UNL d   1      59.059  -1.559  28.797  0.00  0.00     0.099 C 
BRANCH  11  12
ATOM     12  C   UNL d   1      59.626  -2.155  28.705  0.00  0.00     0.286 C 
ATOM     13  N   UNL d   1      59.411  -2.946  28.843  0.00  0.00    -0.208 NA
ATOM     14  O   UNL d   1      60.398  -1.973  28.479  0.00  0.00    -0.265 OA
BRANCH  13  15
ATOM     15  C   UNL d   1      59.972  -3.549  28.754  0.00  0.00     0.085 A 
ATOM     16  C   UNL d   1      60.801  -3.568  28.874  0.00  0.00     0.019 A 
ATOM     17  C   UNL d   1      61.050  -4.323  28.693  0.00  0.00     0.002 A 
ATOM     18  C   UNL d   1      60.408  -4.750  28.472  0.00  0.00     0.002 A 
ATOM     19  C   UNL d   1      59.739  -4.297  28.502  0.00  0.00     0.019 A 
ENDBRANCH  13  15
ENDBRANCH  11  12
ENDBRANCH  10  11
ENDBRANCH   6  10
BRANCH   1  20
ATOM     20  C   UNL d   1      56.531   0.268  31.495  0.00  0.00     0.104 C 
BRANCH  20  21
ATOM     21  C   UNL d   1      56.415   0.194  32.320  0.00  0.00     0.019 A 
ATOM     22  C   UNL d   1      55.869  -0.355  32.612  0.00  0.00     0.004 A 
ATOM     23  C   UNL d   1      55.751  -0.431  33.419  0.00  0.00     0.030 A 
ATOM     24  C   UNL d   1      56.183   0.044  33.943  0.00  0.00     0.140 A 
ATOM     25  C   UNL d   1      56.735   0.599  33.654  0.00  0.00     0.030 A 
ATOM     26  F   UNL d   1      56.055  -0.043  34.771  0.00  0.00    -0.204 F 
ATOM     27  C   UNL d   1      56.839   0.662  32.850  0.00  0.00     0.004 A 
ENDBRANCH  20  21
ENDBRANCH   1  20
TORSDOF 6
ENDMDL
MODEL 2
REMARK VINA RESULT:      -1.7      1.236      1.678
REMARK  6 active torsions:
REMARK  status: ('A' for Active; 'I' for Inactive)
REMARK    1  A    between atoms: C_9  and  N_1 
REMARK    2  A    between atoms: S_10  and  C_6 
REMARK    3  A    between atoms: C_16  and  C_9 
REMARK    4  A    between atoms: C_15  and  S_10 
REMARK    5  A    between atoms: C_12  and  C_15 
REMARK       I    between atoms: N_13  and  C_12 
REMARK    6  A    between atoms: C_19  and  N_13 
ROOT
ATOM      1  N   UNL d   1      57.151   0.524  31.866  0.00  0.00    -0.192 N 
ATOM      2  N   UNL d   1      56.732   0.336  31.186  0.00  0.00    -0.058 NA
ATOM      3  C   UNL d   1      57.952   0.530  31.672  0.00  0.00     0.189 A 
ATOM      4  C   UNL d   1      58.015   0.343  30.867  0.00  0.00     0.164 A 
ATOM      5  N   UNL d   1      57.251   0.226  30.579  0.00  0.00    -0.125 NA
ATOM      6  C   UNL d   1      58.746   0.305  30.507  0.00  0.00     0.135 A 
ATOM      7  N   UNL d   1      58.622   0.678  32.115  0.00  0.00    -0.203 NA
ATOM      8  N   UNL d   1      59.433   0.455  30.951  0.00  0.00    -0.216 NA
ATOM      9  C   UNL d   1      59.371   0.641  31.756  0.00  0.00     0.201 A 
ENDROOT
BRANCH   6  10
ATOM     10  S   UNL d   1      58.809   0.119  29.702  0.00  0.00    -0.061 SA
BRANCH  10  11
ATOM     11  C   UNL d   1      59.528  -0.101  29.383  0.00  0.00     0.099 C 
BRANCH  11  12
ATOM     12  C   UNL d   1      59.620  -0.856  29.056  0.00  0.00     0.286 C 
ATOM     13  N   UNL d   1      60.225  -1.351  29.341  0.00  0.00    -0.208 NA
ATOM     14  O   UNL d   1      59.122  -1.121  28.456  0.00  0.00    -0.265 OA
BRANCH  13  15
ATOM     15  C   UNL d   1      60.324  -2.108  29.020  0.00  0.00     0.085 A 
ATOM     16  C   UNL d   1      59.789  -2.741  28.895  0.00  0.00     0.019 A 
ATOM     17  C   UNL d   1      60.215  -3.349  28.557  0.00  0.00     0.002 A 
ATOM     18  C   UNL d   1      60.975  -3.106  28.477  0.00  0.00     0.002 A 
ATOM     19  C   UNL d   1      61.065  -2.351  28.753  0.00  0.00     0.019 A 
ENDBRANCH  13  15
ENDBRANCH  11  12
ENDBRANCH  10  11
ENDBRANCH   6  10
BRANCH   1  20
ATOM     20  C   UNL d   1      56.820   0.682  32.622  0.00  0.00     0.104 C 
BRANCH  20  21
ATOM     21  C   UNL d   1      56.164   0.242  32.897  0.00  0.00     0.019 A 
ATOM     22  C   UNL d   1      55.440   0.620  33.033  0.00  0.00     0.004 A 
ATOM     23  C   UNL d   1      54.796   0.194  33.302  0.00  0.00     0.030 A 
ATOM     24  C   UNL d   1      54.869  -0.621  33.438  0.00  0.00     0.140 A 
ATOM     25  C   UNL d   1      55.596  -1.008  33.302  0.00  0.00     0.030 A 
ATOM     26  F   UNL d   1      54.200  -1.050  33.714  0.00  0.00    -0.204 F 
ATOM     27  C   UNL d   1      56.227  -0.569  33.035  0.00  0.00     0.004 A 
ENDBRANCH  20  21
ENDBRANCH   1  20
TORSDOF 6
ENDMDL
