MODEL 1
REMARK VINA RESULT:      12.1      0.000      0.000
REMARK  3 active torsions:
REMARK  status: ('A' for Active; 'I' for Inactive)
REMARK    1  A    between atoms: C_7  and  C_1 
REMARK    2  A    between atoms: N_8  and  C_7 
REMARK    3  A    between atoms: C_11  and  N_8 
ROOT
ATOM      1  C   UNL d   1      46.337 -18.022  43.582  0.00  0.00     0.145 A 
ATOM      2  C   UNL d   1      46.213 -18.230  42.800  0.00  0.00     0.304 A 
ATOM      3  C   UNL d   1      46.487 -18.606  44.145  0.00  0.00     0.304 A 
ATOM      4  O   UNL d   1      46.237 -19.024  42.574  0.00  0.00    -0.277 OA
ATOM      5  O   UNL d   1      46.511 -19.400  43.918  0.00  0.00    -0.277 OA
ATOM      6  C   UNL d   1      46.385 -19.606  43.130  0.00  0.00     0.203 A 
ATOM      7  O   UNL d   1      46.059 -17.620  42.229  0.00  0.00    -0.259 OA
ATOM      8  O   UNL d   1      46.616 -18.382  44.955  0.00  0.00    -0.259 OA
ATOM      9  C   UNL d   1      46.517 -20.330  43.529  0.00  0.00     0.062 C 
ATOM     10  C   UNL d   1      46.282 -19.981  42.394  0.00  0.00     0.062 C 
ENDROOT
BRANCH   1  11
ATOM     11  C   UNL d   1      46.313 -17.221  43.811  0.00  0.00     0.111 C 
BRANCH  11  12
ATOM     12  N   UNL d   1      45.636 -16.916  44.169  0.00  0.00    -0.225 NA
BRANCH  12  13
ATOM     13  C   UNL d   1      45.602 -16.110  44.375  0.00  0.00     0.163 A 
ATOM     14  N   UNL d   1      46.237 -15.616  44.205  0.00  0.00    -0.225 NA
ATOM     15  C   UNL d   1      46.203 -14.812  44.410  0.00  0.00     0.101 A 
ATOM     16  C   UNL d   1      45.536 -14.511  44.784  0.00  0.00     0.021 A 
ATOM     17  C   UNL d   1      44.899 -15.006  44.955  0.00  0.00     0.005 A 
ATOM     18  C   UNL d   1      44.932 -15.809  44.749  0.00  0.00     0.039 A 
ENDBRANCH  12  13
ENDBRANCH  11  12
ENDBRANCH   1  11
TORSDOF 3
ENDMDL
