MODEL 1
REMARK VINA RESULT:      45.6      0.000      0.000
REMARK  3 active torsions:
REMARK  status: ('A' for Active; 'I' for Inactive)
REMARK    1  A    between atoms: N_3  and  C_1 
REMARK       I    between atoms: C_5  and  N_3 
REMARK    2  A    between atoms: C_8  and  C_5 
REMARK       I    between atoms: C_11  and  N_12 
REMARK    3  A    between atoms: N_12  and  C_13 
ROOT
ATOM      1  C   UNL d   1      45.781 -17.110  38.946  0.00  0.00     0.197 A 
ATOM      2  N   UNL d   1      46.107 -16.465  38.558  0.00  0.00    -0.221 NA
ATOM      3  S   UNL d   1      45.043 -17.251  38.632  0.00  0.00    -0.047 SA
ATOM      4  C   UNL d   1      44.911 -16.695  38.050  0.00  0.00     0.051 A 
ATOM      5  C   UNL d   1      45.575 -16.205  38.004  0.00  0.00     0.090 A 
ATOM      6  C   UNL d   1      44.255 -16.572  37.546  0.00  0.00     0.027 A 
ATOM      7  C   UNL d   1      44.273 -15.957  37.000  0.00  0.00     0.085 A 
ATOM      8  C   UNL d   1      45.585 -15.590  37.454  0.00  0.00     0.021 A 
ATOM      9  C   UNL d   1      44.950 -15.457  36.953  0.00  0.00     0.021 A 
ENDROOT
BRANCH   1  10
ATOM     10  N   UNL d   1      46.130 -17.551  39.554  0.00  0.00    -0.182 NA
ATOM     11  C   UNL d   1      45.650 -17.821  40.164  0.00  0.00     0.287 C 
ATOM     12  O   UNL d   1      44.824 -17.640  40.146  0.00  0.00    -0.265 OA
BRANCH  11  13
ATOM     13  C   UNL d   1      45.961 -18.254  40.771  0.00  0.00     0.087 A 
ATOM     14  S   UNL d   1      46.539 -18.852  40.791  0.00  0.00    -0.082 SA
ATOM     15  C   UNL d   1      46.641 -19.099  41.551  0.00  0.00     0.036 A 
ATOM     16  C   UNL d   1      46.141 -18.675  42.031  0.00  0.00     0.008 A 
ATOM     17  C   UNL d   1      45.705 -18.136  41.544  0.00  0.00     0.012 A 
ENDBRANCH  11  13
ENDBRANCH   1  10
BRANCH   7  18
ATOM     18  N   UNL d   1      43.604 -15.847  36.500  0.00  0.00    -0.208 NA
ATOM     19  C   UNL d   1      42.883 -15.572  36.828  0.00  0.00     0.279 C 
ATOM     20  O   UNL d   1      42.221 -15.463  36.335  0.00  0.00    -0.265 OA
ATOM     21  C   UNL d   1      42.833 -15.411  37.639  0.00  0.00     0.068 C 
ENDBRANCH   7  18
TORSDOF 3
ENDMDL
MODEL 2
REMARK VINA RESULT:      46.8      1.233      1.860
REMARK  3 active torsions:
REMARK  status: ('A' for Active; 'I' for Inactive)
REMARK    1  A    between atoms: N_3  and  C_1 
REMARK       I    between atoms: C_5  and  N_3 
REMARK    2  A    between atoms: C_8  and  C_5 
REMARK       I    between atoms: C_11  and  N_12 
REMARK    3  A    between atoms: N_12  and  C_13 
ROOT
ATOM      1  C   UNL d   1      45.978 -17.986  40.302  0.00  0.00     0.197 A 
ATOM      2  N   UNL d   1      45.176 -17.917  40.139  0.00  0.00    -0.221 NA
ATOM      3  S   UNL d   1      46.392 -17.581  39.728  0.00  0.00    -0.047 SA
ATOM      4  C   UNL d   1      45.848 -17.262  39.210  0.00  0.00     0.051 A 
ATOM      5  C   UNL d   1      45.090 -17.471  39.466  0.00  0.00     0.090 A 
ATOM      6  C   UNL d   1      45.952 -16.797  38.522  0.00  0.00     0.027 A 
ATOM      7  C   UNL d   1      45.292 -16.547  38.099  0.00  0.00     0.085 A 
ATOM      8  C   UNL d   1      44.434 -17.216  39.036  0.00  0.00     0.021 A 
ATOM      9  C   UNL d   1      44.520 -16.761  38.361  0.00  0.00     0.021 A 
ENDROOT
BRANCH   1  10
ATOM     10  N   UNL d   1      46.322 -18.392  40.936  0.00  0.00    -0.182 NA
ATOM     11  C   UNL d   1      45.835 -18.639  41.549  0.00  0.00     0.287 C 
ATOM     12  O   UNL d   1      45.006 -18.468  41.509  0.00  0.00    -0.265 OA
BRANCH  11  13
ATOM     13  C   UNL d   1      46.139 -19.038  42.182  0.00  0.00     0.087 A 
ATOM     14  S   UNL d   1      46.303 -19.845  42.306  0.00  0.00    -0.082 SA
ATOM     15  C   UNL d   1      46.606 -19.944  43.046  0.00  0.00     0.036 A 
ATOM     16  C   UNL d   1      46.645 -19.219  43.411  0.00  0.00     0.008 A 
ATOM     17  C   UNL d   1      46.350 -18.638  42.869  0.00  0.00     0.012 A 
ENDBRANCH  11  13
ENDBRANCH   1  10
BRANCH   7  18
ATOM     18  N   UNL d   1      45.414 -16.080  37.409  0.00  0.00    -0.208 NA
ATOM     19  C   UNL d   1      44.759 -15.711  37.038  0.00  0.00     0.279 C 
ATOM     20  O   UNL d   1      44.877 -15.249  36.356  0.00  0.00    -0.265 OA
ATOM     21  C   UNL d   1      43.998 -15.808  37.351  0.00  0.00     0.068 C 
ENDBRANCH   7  18
TORSDOF 3
ENDMDL
MODEL 3
REMARK VINA RESULT:      46.9      5.040      6.531
REMARK  3 active torsions:
REMARK  status: ('A' for Active; 'I' for Inactive)
REMARK    1  A    between atoms: N_3  and  C_1 
REMARK       I    between atoms: C_5  and  N_3 
REMARK    2  A    between atoms: C_8  and  C_5 
REMARK       I    between atoms: C_11  and  N_12 
REMARK    3  A    between atoms: N_12  and  C_13 
ROOT
ATOM      1  C   UNL d   1      46.284 -16.731  44.394  0.00  0.00     0.197 A 
ATOM      2  N   UNL d   1      46.311 -17.330  44.955  0.00  0.00    -0.221 NA
ATOM      3  S   UNL d   1      46.269 -17.073  43.655  0.00  0.00    -0.047 SA
ATOM      4  C   UNL d   1      46.287 -17.882  43.756  0.00  0.00     0.051 A 
ATOM      5  C   UNL d   1      46.313 -18.043  44.567  0.00  0.00     0.090 A 
ATOM      6  C   UNL d   1      46.283 -18.505  43.198  0.00  0.00     0.027 A 
ATOM      7  C   UNL d   1      46.305 -19.284  43.462  0.00  0.00     0.085 A 
ATOM      8  C   UNL d   1      46.335 -18.827  44.822  0.00  0.00     0.021 A 
ATOM      9  C   UNL d   1      46.332 -19.448  44.288  0.00  0.00     0.021 A 
ENDROOT
BRANCH   1  10
ATOM     10  N   UNL d   1      46.273 -15.916  44.541  0.00  0.00    -0.182 NA
ATOM     11  C   UNL d   1      45.551 -15.525  44.512  0.00  0.00     0.287 C 
ATOM     12  O   UNL d   1      44.852 -15.968  44.334  0.00  0.00    -0.265 OA
BRANCH  11  13
ATOM     13  C   UNL d   1      45.507 -14.730  44.650  0.00  0.00     0.087 A 
ATOM     14  S   UNL d   1      44.864 -14.229  44.813  0.00  0.00    -0.082 SA
ATOM     15  C   UNL d   1      45.132 -13.474  44.906  0.00  0.00     0.036 A 
ATOM     16  C   UNL d   1      45.939 -13.471  44.808  0.00  0.00     0.008 A 
ATOM     17  C   UNL d   1      46.185 -14.265  44.645  0.00  0.00     0.012 A 
ENDBRANCH  11  13
ENDBRANCH   1  10
BRANCH   7  18
ATOM     18  N   UNL d   1      46.300 -19.900  42.887  0.00  0.00    -0.208 NA
ATOM     19  C   UNL d   1      46.473 -19.720  42.086  0.00  0.00     0.279 C 
ATOM     20  O   UNL d   1      46.469 -20.328  41.516  0.00  0.00    -0.265 OA
ATOM     21  C   UNL d   1      46.647 -18.941  41.866  0.00  0.00     0.068 C 
ENDBRANCH   7  18
TORSDOF 3
ENDMDL
