MODEL 1
REMARK VINA RESULT:      65.5      0.000      0.000
REMARK  4 active torsions:
REMARK  status: ('A' for Active; 'I' for Inactive)
REMARK    1  A    between atoms: C_4  and  C_1 
REMARK       I    between atoms: N_6  and  C_4 
REMARK    2  A    between atoms: C_9  and  N_6 
REMARK    3  A    between atoms: C_12  and  N_6 
REMARK    4  A    between atoms: C_17  and  C_12 
ROOT
ATOM      1  C   UNL d   1     -57.119 -99.006 -44.923  0.00  0.00     0.272 C 
ATOM      2  N   UNL d   1     -57.085 -99.046 -44.101  0.00  0.00    -0.258 N 
ATOM      3  O   UNL d   1     -56.433 -99.030 -45.366  0.00  0.00    -0.266 OA
ENDROOT
BRANCH   2   4
ATOM      4  C   UNL d   1     -57.785 -99.022 -43.640  0.00  0.00     0.150 A 
ATOM      5  N   UNL d   1     -57.730 -98.796 -42.840  0.00  0.00    -0.227 NA
ATOM      6  C   UNL d   1     -58.427 -98.772 -42.382  0.00  0.00     0.101 A 
ATOM      7  C   UNL d   1     -59.153 -98.970 -42.720  0.00  0.00     0.021 A 
ATOM      8  C   UNL d   1     -59.199 -99.195 -43.518  0.00  0.00     0.005 A 
ATOM      9  C   UNL d   1     -58.515 -99.221 -43.978  0.00  0.00     0.037 A 
ENDBRANCH   2   4
BRANCH   2  10
ATOM     10  C   UNL d   1     -56.350 -99.112 -43.713  0.00  0.00     0.084 C 
BRANCH  10  11
ATOM     11  C   UNL d   1     -55.864 -99.761 -43.850  0.00  0.00     0.018 A 
ATOM     12  C   UNL d   1     -55.206 -99.688 -44.342  0.00  0.00     0.002 A 
ATOM     13  C   UNL d   1     -54.722-100.338 -44.478  0.00  0.00     0.000 A 
ATOM     14  C   UNL d   1     -54.891-101.061 -44.126  0.00  0.00     0.000 A 
ATOM     15  C   UNL d   1     -55.559-101.135 -43.627  0.00  0.00     0.000 A 
ATOM     16  C   UNL d   1     -56.036-100.481 -43.497  0.00  0.00     0.002 A 
ENDBRANCH  10  11
ENDBRANCH   2  10
BRANCH   1  17
ATOM     17  C   UNL d   1     -57.858 -98.941 -45.294  0.00  0.00     0.132 A 
ATOM     18  C   UNL d   1     -57.898 -98.945 -46.120  0.00  0.00     0.272 A 
ATOM     19  N   UNL d   1     -58.631 -98.880 -46.505  0.00  0.00    -0.265 N 
ATOM     20  O   UNL d   1     -57.210 -99.013 -46.572  0.00  0.00    -0.266 OA
ATOM     21  C   UNL d   1     -58.841 -98.869 -47.296  0.00  0.00     0.123 A 
ATOM     22  C   UNL d   1     -59.318 -98.812 -46.052  0.00  0.00     0.181 A 
ATOM     23  C   UNL d   1     -59.655 -98.793 -47.345  0.00  0.00     0.043 A 
ATOM     24  S   UNL d   1     -59.959 -98.758 -46.571  0.00  0.00    -0.049 SA
ATOM     25  N   UNL d   1     -59.281 -98.808 -45.231  0.00  0.00    -0.220 NA
ATOM     26  C   UNL d   1     -58.550 -98.872 -44.849  0.00  0.00     0.111 A 
ENDBRANCH   1  17
TORSDOF 4
ENDMDL
MODEL 2
REMARK VINA RESULT:      66.4      1.961      3.986
REMARK  4 active torsions:
REMARK  status: ('A' for Active; 'I' for Inactive)
REMARK    1  A    between atoms: C_4  and  C_1 
REMARK       I    between atoms: N_6  and  C_4 
REMARK    2  A    between atoms: C_9  and  N_6 
REMARK    3  A    between atoms: C_12  and  N_6 
REMARK    4  A    between atoms: C_17  and  C_12 
ROOT
ATOM      1  C   UNL d   1     -56.907-100.090 -43.443  0.00  0.00     0.272 C 
ATOM      2  N   UNL d   1     -56.855 -99.339 -43.777  0.00  0.00    -0.258 N 
ATOM      3  O   UNL d   1     -57.521-100.274 -42.937  0.00  0.00    -0.266 OA
ENDROOT
BRANCH   2   4
ATOM      4  C   UNL d   1     -56.227 -99.142 -44.297  0.00  0.00     0.150 A 
ATOM      5  N   UNL d   1     -55.447 -99.146 -44.003  0.00  0.00    -0.227 NA
ATOM      6  C   UNL d   1     -54.823 -98.950 -44.522  0.00  0.00     0.101 A 
ATOM      7  C   UNL d   1     -54.982 -98.757 -45.308  0.00  0.00     0.021 A 
ATOM      8  C   UNL d   1     -55.761 -98.755 -45.592  0.00  0.00     0.005 A 
ATOM      9  C   UNL d   1     -56.384 -98.948 -45.087  0.00  0.00     0.037 A 
ENDBRANCH   2   4
BRANCH   2  10
ATOM     10  C   UNL d   1     -57.428 -98.759 -43.602  0.00  0.00     0.084 C 
BRANCH  10  11
ATOM     11  C   UNL d   1     -58.151 -98.758 -43.996  0.00  0.00     0.018 A 
ATOM     12  C   UNL d   1     -58.172 -98.758 -44.821  0.00  0.00     0.002 A 
ATOM     13  C   UNL d   1     -58.896 -98.757 -45.211  0.00  0.00     0.000 A 
ATOM     14  C   UNL d   1     -59.597 -98.756 -44.784  0.00  0.00     0.000 A 
ATOM     15  C   UNL d   1     -59.575 -98.756 -43.947  0.00  0.00     0.000 A 
ATOM     16  C   UNL d   1     -58.849 -98.757 -43.566  0.00  0.00     0.002 A 
ENDBRANCH  10  11
ENDBRANCH   2  10
BRANCH   1  17
ATOM     17  C   UNL d   1     -56.328-100.654 -43.627  0.00  0.00     0.132 A 
ATOM     18  C   UNL d   1     -56.409-101.107 -44.315  0.00  0.00     0.272 A 
ATOM     19  N   UNL d   1     -55.837-101.676 -44.511  0.00  0.00    -0.265 N 
ATOM     20  O   UNL d   1     -57.058-100.999 -44.813  0.00  0.00    -0.266 OA
ATOM     21  C   UNL d   1     -55.768-102.196 -45.140  0.00  0.00     0.123 A 
ATOM     22  C   UNL d   1     -55.188-101.783 -44.013  0.00  0.00     0.181 A 
ATOM     23  C   UNL d   1     -55.080-102.630 -45.041  0.00  0.00     0.043 A 
ATOM     24  S   UNL d   1     -54.714-102.377 -44.338  0.00  0.00    -0.049 SA
ATOM     25  N   UNL d   1     -55.106-101.334 -43.329  0.00  0.00    -0.220 NA
ATOM     26  C   UNL d   1     -55.676-100.768 -43.134  0.00  0.00     0.111 A 
ENDBRANCH   1  17
TORSDOF 4
ENDMDL
MODEL 3
REMARK VINA RESULT:      67.6      1.493      2.902
REMARK  4 active torsions:
REMARK  status: ('A' for Active; 'I' for Inactive)
REMARK    1  A    between atoms: C_4  and  C_1 
REMARK       I    between atoms: N_6  and  C_4 
REMARK    2  A    between atoms: C_9  and  N_6 
REMARK    3  A    between atoms: C_12  and  N_6 
REMARK    4  A    between atoms: C_17  and  C_12 
ROOT
ATOM      1  C   UNL d   1     -55.932 -99.332 -43.526  0.00  0.00     0.272 C 
ATOM      2  N   UNL d   1     -55.343 -99.881 -43.698  0.00  0.00    -0.258 N 
ATOM      3  O   UNL d   1     -55.938 -98.947 -42.805  0.00  0.00    -0.266 OA
ENDROOT
BRANCH   2   4
ATOM      4  C   UNL d   1     -55.330-100.280 -44.435  0.00  0.00     0.150 A 
ATOM      5  N   UNL d   1     -55.943-100.817 -44.611  0.00  0.00    -0.227 NA
ATOM      6  C   UNL d   1     -55.929-101.214 -45.345  0.00  0.00     0.101 A 
ATOM      7  C   UNL d   1     -55.318-101.073 -45.882  0.00  0.00     0.021 A 
ATOM      8  C   UNL d   1     -54.712-100.537 -45.699  0.00  0.00     0.005 A 
ATOM      9  C   UNL d   1     -54.718-100.140 -44.976  0.00  0.00     0.037 A 
ENDBRANCH   2   4
BRANCH   2  10
ATOM     10  C   UNL d   1     -54.746-100.048 -43.140  0.00  0.00     0.084 C 
BRANCH  10  11
ATOM     11  C   UNL d   1     -54.741-100.768 -42.742  0.00  0.00     0.018 A 
ATOM     12  C   UNL d   1     -54.752-100.784 -41.917  0.00  0.00     0.002 A 
ATOM     13  C   UNL d   1     -54.746-101.505 -41.522  0.00  0.00     0.000 A 
ATOM     14  C   UNL d   1     -54.730-102.208 -41.944  0.00  0.00     0.000 A 
ATOM     15  C   UNL d   1     -54.719-102.192 -42.781  0.00  0.00     0.000 A 
ATOM     16  C   UNL d   1     -54.725-101.469 -43.167  0.00  0.00     0.002 A 
ENDBRANCH  10  11
ENDBRANCH   2  10
BRANCH   1  17
ATOM     17  C   UNL d   1     -56.518 -99.177 -44.092  0.00  0.00     0.132 A 
ATOM     18  C   UNL d   1     -57.314 -99.260 -43.882  0.00  0.00     0.272 A 
ATOM     19  N   UNL d   1     -57.911 -99.108 -44.440  0.00  0.00    -0.265 N 
ATOM     20  O   UNL d   1     -57.524 -99.495 -43.120  0.00  0.00    -0.266 OA
ATOM     21  C   UNL d   1     -58.728 -99.141 -44.396  0.00  0.00     0.123 A 
ATOM     22  C   UNL d   1     -57.700 -98.873 -45.202  0.00  0.00     0.181 A 
ATOM     23  C   UNL d   1     -59.033 -98.929 -45.127  0.00  0.00     0.043 A 
ATOM     24  S   UNL d   1     -58.396 -98.760 -45.634  0.00  0.00    -0.049 SA
ATOM     25  N   UNL d   1     -56.909 -98.789 -45.411  0.00  0.00    -0.220 NA
ATOM     26  C   UNL d   1     -56.315 -98.941 -44.856  0.00  0.00     0.111 A 
ENDBRANCH   1  17
TORSDOF 4
ENDMDL
