MODEL 1
REMARK VINA RESULT:      80.9      0.000      0.000
REMARK  5 active torsions:
REMARK  status: ('A' for Active; 'I' for Inactive)
REMARK    1  A    between atoms: C_9  and  C_1 
REMARK    2  A    between atoms: S_2  and  N_8 
REMARK    3  A    between atoms: C_10  and  S_2 
REMARK    4  A    between atoms: C_14  and  C_3 
REMARK    5  A    between atoms: N_8  and  C_9 
ROOT
ATOM      1  C   UNL d   1      13.820  13.713  -3.293  0.00  0.00     0.078 A 
ATOM      2  C   UNL d   1      14.163  13.809  -2.541  0.00  0.00     0.008 A 
ATOM      3  C   UNL d   1      13.535  12.979  -3.526  0.00  0.00     0.281 A 
ATOM      4  C   UNL d   1      14.213  13.162  -2.037  0.00  0.00     0.019 A 
ATOM      5  N   UNL d   1      13.588  12.327  -3.011  0.00  0.00    -0.208 NA
ATOM      6  C   UNL d   1      13.928  12.428  -2.270  0.00  0.00     0.085 A 
ATOM      7  C   UNL d   1      14.554  13.262  -1.293  0.00  0.00     0.013 A 
ATOM      8  O   UNL d   1      13.189  12.887  -4.289  0.00  0.00    -0.265 OA
ATOM      9  C   UNL d   1      13.979  11.779  -1.763  0.00  0.00     0.020 A 
ATOM     10  C   UNL d   1      14.608  12.610  -0.776  0.00  0.00     0.058 A 
ATOM     11  C   UNL d   1      14.323  11.876  -1.009  0.00  0.00     0.013 A 
ATOM     12 CL   UNL d   1      14.954  12.702  -0.015  0.00  0.00    -0.082 Cl
ENDROOT
BRANCH   1  13
ATOM     13  C   UNL d   1      13.766  14.365  -3.810  0.00  0.00     0.117 C 
BRANCH  13  14
ATOM     14  N   UNL d   1      13.454  14.261  -4.571  0.00  0.00    -0.157 NA
BRANCH  14  15
ATOM     15  S   UNL d   1      13.465  15.012  -4.938  0.00  0.00     0.285 S 
ATOM     16  O   UNL d   1      14.015  14.734  -5.493  0.00  0.00    -0.198 OA
ATOM     17  O   UNL d   1      12.911  15.283  -4.376  0.00  0.00    -0.198 OA
BRANCH  15  18
ATOM     18  C   UNL d   1      13.475  15.758  -5.302  0.00  0.00     0.105 A 
ATOM     19  C   UNL d   1      12.859  15.987  -5.804  0.00  0.00     0.013 A 
ATOM     20  C   UNL d   1      12.859  16.720  -6.168  0.00  0.00     0.001 A 
ATOM     21  C   UNL d   1      13.495  17.249  -6.029  0.00  0.00     0.000 A 
ATOM     22  C   UNL d   1      14.111  17.021  -5.526  0.00  0.00     0.001 A 
ATOM     23  C   UNL d   1      13.505  17.988  -6.389  0.00  0.00     0.000 C 
ATOM     24  C   UNL d   1      14.102  16.275  -5.163  0.00  0.00     0.013 A 
ENDBRANCH  15  18
ENDBRANCH  14  15
ENDBRANCH  13  14
ENDBRANCH   1  13
BRANCH   2  25
ATOM     25  C   UNL d   1      14.449  14.544  -2.308  0.00  0.00     0.000 A 
ATOM     26  C   UNL d   1      15.122  14.860  -2.655  0.00  0.00     0.000 A 
ATOM     27  C   UNL d   1      15.407  15.595  -2.422  0.00  0.00     0.000 A 
ATOM     28  C   UNL d   1      15.024  16.026  -1.838  0.00  0.00     0.000 A 
ATOM     29  C   UNL d   1      14.336  15.712  -1.479  0.00  0.00     0.000 A 
ATOM     30  C   UNL d   1      14.054  14.977  -1.715  0.00  0.00     0.000 A 
ENDBRANCH   2  25
TORSDOF 5
ENDMDL
MODEL 2
REMARK VINA RESULT:      81.3      1.618      2.449
REMARK  5 active torsions:
REMARK  status: ('A' for Active; 'I' for Inactive)
REMARK    1  A    between atoms: C_9  and  C_1 
REMARK    2  A    between atoms: S_2  and  N_8 
REMARK    3  A    between atoms: C_10  and  S_2 
REMARK    4  A    between atoms: C_14  and  C_3 
REMARK    5  A    between atoms: N_8  and  C_9 
ROOT
ATOM      1  C   UNL d   1      14.697  15.071  -2.041  0.00  0.00     0.078 A 
ATOM      2  C   UNL d   1      14.423  14.285  -2.055  0.00  0.00     0.008 A 
ATOM      3  C   UNL d   1      15.031  15.380  -1.358  0.00  0.00     0.281 A 
ATOM      4  C   UNL d   1      14.489  13.825  -1.378  0.00  0.00     0.019 A 
ATOM      5  N   UNL d   1      15.096  14.909  -0.674  0.00  0.00    -0.208 NA
ATOM      6  C   UNL d   1      14.823  14.134  -0.694  0.00  0.00     0.085 A 
ATOM      7  C   UNL d   1      14.216  13.047  -1.395  0.00  0.00     0.013 A 
ATOM      8  O   UNL d   1      15.307  16.176  -1.349  0.00  0.00    -0.265 OA
ATOM      9  C   UNL d   1      14.889  13.671  -0.014  0.00  0.00     0.020 A 
ATOM     10  C   UNL d   1      14.281  12.575  -0.712  0.00  0.00     0.058 A 
ATOM     11  C   UNL d   1      14.614  12.884  -0.028  0.00  0.00     0.013 A 
ATOM     12 CL   UNL d   1      14.005  11.780  -0.720  0.00  0.00    -0.082 Cl
ENDROOT
BRANCH   1  13
ATOM     13  C   UNL d   1      14.633  15.543  -2.725  0.00  0.00     0.117 C 
BRANCH  13  14
ATOM     14  N   UNL d   1      15.200  16.129  -2.873  0.00  0.00    -0.157 NA
BRANCH  14  15
ATOM     15  S   UNL d   1      14.971  16.510  -3.582  0.00  0.00     0.285 S 
ATOM     16  O   UNL d   1      14.233  16.690  -3.247  0.00  0.00    -0.198 OA
ATOM     17  O   UNL d   1      15.714  16.324  -3.911  0.00  0.00    -0.198 OA
BRANCH  15  18
ATOM     18  C   UNL d   1      14.744  16.887  -4.285  0.00  0.00     0.105 A 
ATOM     19  C   UNL d   1      14.911  17.688  -4.403  0.00  0.00     0.013 A 
ATOM     20  C   UNL d   1      14.691  18.069  -5.094  0.00  0.00     0.001 A 
ATOM     21  C   UNL d   1      14.290  17.641  -5.692  0.00  0.00     0.000 A 
ATOM     22  C   UNL d   1      14.122  16.839  -5.575  0.00  0.00     0.001 A 
ATOM     23  C   UNL d   1      14.065  18.014  -6.389  0.00  0.00     0.000 C 
ATOM     24  C   UNL d   1      14.349  16.462  -4.871  0.00  0.00     0.013 A 
ENDBRANCH  15  18
ENDBRANCH  14  15
ENDBRANCH  13  14
ENDBRANCH   1  13
BRANCH   2  25
ATOM     25  C   UNL d   1      14.089  13.976  -2.739  0.00  0.00     0.000 A 
ATOM     26  C   UNL d   1      13.320  14.165  -2.952  0.00  0.00     0.000 A 
ATOM     27  C   UNL d   1      12.986  13.856  -3.637  0.00  0.00     0.000 A 
ATOM     28  C   UNL d   1      13.417  13.353  -4.121  0.00  0.00     0.000 A 
ATOM     29  C   UNL d   1      14.203  13.154  -3.912  0.00  0.00     0.000 A 
ATOM     30  C   UNL d   1      14.532  13.465  -3.226  0.00  0.00     0.000 A 
ENDBRANCH   2  25
TORSDOF 5
ENDMDL
MODEL 3
REMARK VINA RESULT:      81.7      2.472      4.262
REMARK  5 active torsions:
REMARK  status: ('A' for Active; 'I' for Inactive)
REMARK    1  A    between atoms: C_9  and  C_1 
REMARK    2  A    between atoms: S_2  and  N_8 
REMARK    3  A    between atoms: C_10  and  S_2 
REMARK    4  A    between atoms: C_14  and  C_3 
REMARK    5  A    between atoms: N_8  and  C_9 
ROOT
ATOM      1  C   UNL d   1      13.285  12.982  -2.807  0.00  0.00     0.078 A 
ATOM      2  C   UNL d   1      13.435  13.387  -3.518  0.00  0.00     0.008 A 
ATOM      3  C   UNL d   1      13.085  12.186  -2.820  0.00  0.00     0.281 A 
ATOM      4  C   UNL d   1      13.379  12.982  -4.230  0.00  0.00     0.019 A 
ATOM      5  N   UNL d   1      13.030  11.780  -3.545  0.00  0.00    -0.208 NA
ATOM      6  C   UNL d   1      13.179  12.186  -4.243  0.00  0.00     0.085 A 
ATOM      7  C   UNL d   1      13.528  13.387  -4.933  0.00  0.00     0.013 A 
ATOM      8  O   UNL d   1      12.934  11.780  -2.097  0.00  0.00    -0.265 OA
ATOM      9  C   UNL d   1      13.124  11.779  -4.959  0.00  0.00     0.020 A 
ATOM     10  C   UNL d   1      13.474  12.981  -5.659  0.00  0.00     0.058 A 
ATOM     11  C   UNL d   1      13.274  12.185  -5.672  0.00  0.00     0.013 A 
ATOM     12 CL   UNL d   1      13.625  13.386  -6.381  0.00  0.00    -0.082 Cl
ENDROOT
BRANCH   1  13
ATOM     13  C   UNL d   1      13.339  13.388  -2.081  0.00  0.00     0.117 C 
BRANCH  13  14
ATOM     14  N   UNL d   1      13.465  12.961  -1.381  0.00  0.00    -0.157 NA
BRANCH  14  15
ATOM     15  S   UNL d   1      14.226  13.173  -1.106  0.00  0.00     0.285 S 
ATOM     16  O   UNL d   1      14.526  12.448  -1.376  0.00  0.00    -0.198 OA
ATOM     17  O   UNL d   1      13.916  13.899  -0.839  0.00  0.00    -0.198 OA
BRANCH  15  18
ATOM     18  C   UNL d   1      14.980  13.384  -0.833  0.00  0.00     0.105 A 
ATOM     19  C   UNL d   1      15.073  14.012  -0.302  0.00  0.00     0.013 A 
ATOM     20  C   UNL d   1      15.814  14.228  -0.027  0.00  0.00     0.001 A 
ATOM     21  C   UNL d   1      16.489  13.806  -0.287  0.00  0.00     0.000 A 
ATOM     22  C   UNL d   1      16.398  13.178  -0.819  0.00  0.00     0.001 A 
ATOM     23  C   UNL d   1      17.237  14.015  -0.017  0.00  0.00     0.000 C 
ATOM     24  C   UNL d   1      15.643  12.967  -1.092  0.00  0.00     0.013 A 
ENDBRANCH  15  18
ENDBRANCH  14  15
ENDBRANCH  13  14
ENDBRANCH   1  13
BRANCH   2  25
ATOM     25  C   UNL d   1      13.635  14.185  -3.506  0.00  0.00     0.000 A 
ATOM     26  C   UNL d   1      14.412  14.418  -3.381  0.00  0.00     0.000 A 
ATOM     27  C   UNL d   1      14.612  15.215  -3.369  0.00  0.00     0.000 A 
ATOM     28  C   UNL d   1      14.039  15.792  -3.479  0.00  0.00     0.000 A 
ATOM     29  C   UNL d   1      13.244  15.563  -3.607  0.00  0.00     0.000 A 
ATOM     30  C   UNL d   1      13.048  14.765  -3.619  0.00  0.00     0.000 A 
ENDBRANCH   2  25
TORSDOF 5
ENDMDL
MODEL 4
REMARK VINA RESULT:      81.8      1.782      4.622
REMARK  5 active torsions:
REMARK  status: ('A' for Active; 'I' for Inactive)
REMARK    1  A    between atoms: C_9  and  C_1 
REMARK    2  A    between atoms: S_2  and  N_8 
REMARK    3  A    between atoms: C_10  and  S_2 
REMARK    4  A    between atoms: C_14  and  C_3 
REMARK    5  A    between atoms: N_8  and  C_9 
ROOT
ATOM      1  C   UNL d   1      13.709  14.576  -4.308  0.00  0.00     0.078 A 
ATOM      2  C   UNL d   1      13.938  15.376  -4.326  0.00  0.00     0.008 A 
ATOM      3  C   UNL d   1      13.368  14.230  -4.970  0.00  0.00     0.281 A 
ATOM      4  C   UNL d   1      13.821  15.812  -5.011  0.00  0.00     0.019 A 
ATOM      5  N   UNL d   1      13.251  14.677  -5.663  0.00  0.00    -0.208 NA
ATOM      6  C   UNL d   1      13.480  15.467  -5.673  0.00  0.00     0.085 A 
ATOM      7  C   UNL d   1      14.050  16.605  -5.024  0.00  0.00     0.013 A 
ATOM      8  O   UNL d   1      13.137  13.420  -4.948  0.00  0.00    -0.265 OA
ATOM      9  C   UNL d   1      13.362  15.906  -6.362  0.00  0.00     0.020 A 
ATOM     10  C   UNL d   1      13.933  17.053  -5.717  0.00  0.00     0.058 A 
ATOM     11  C   UNL d   1      13.593  16.708  -6.379  0.00  0.00     0.013 A 
ATOM     12 CL   UNL d   1      14.164  17.862  -5.739  0.00  0.00    -0.082 Cl
ENDROOT
BRANCH   1  13
ATOM     13  C   UNL d   1      13.825  14.127  -3.616  0.00  0.00     0.117 C 
BRANCH  13  14
ATOM     14  N   UNL d   1      13.616  13.325  -3.607  0.00  0.00    -0.157 NA
BRANCH  14  15
ATOM     15  S   UNL d   1      13.896  13.013  -2.883  0.00  0.00     0.285 S 
ATOM     16  O   UNL d   1      13.212  12.547  -2.819  0.00  0.00    -0.198 OA
ATOM     17  O   UNL d   1      14.580  13.484  -2.956  0.00  0.00    -0.198 OA
BRANCH  15  18
ATOM     18  C   UNL d   1      14.174  12.704  -2.165  0.00  0.00     0.105 A 
ATOM     19  C   UNL d   1      14.930  12.899  -1.891  0.00  0.00     0.013 A 
ATOM     20  C   UNL d   1      15.213  12.599  -1.183  0.00  0.00     0.001 A 
ATOM     21  C   UNL d   1      14.731  12.086  -0.730  0.00  0.00     0.000 A 
ATOM     22  C   UNL d   1      13.975  11.890  -1.004  0.00  0.00     0.001 A 
ATOM     23  C   UNL d   1      15.006  11.780  -0.018  0.00  0.00     0.000 C 
ATOM     24  C   UNL d   1      13.696  12.199  -1.722  0.00  0.00     0.013 A 
ENDBRANCH  15  18
ENDBRANCH  14  15
ENDBRANCH  13  14
ENDBRANCH   1  13
BRANCH   2  25
ATOM     25  C   UNL d   1      14.279  15.722  -3.662  0.00  0.00     0.000 A 
ATOM     26  C   UNL d   1      13.859  15.782  -2.960  0.00  0.00     0.000 A 
ATOM     27  C   UNL d   1      14.200  16.128  -2.297  0.00  0.00     0.000 A 
ATOM     28  C   UNL d   1      14.967  16.420  -2.325  0.00  0.00     0.000 A 
ATOM     29  C   UNL d   1      15.403  16.362  -3.038  0.00  0.00     0.000 A 
ATOM     30  C   UNL d   1      15.058  16.015  -3.698  0.00  0.00     0.000 A 
ENDBRANCH   2  25
TORSDOF 5
ENDMDL
