MODEL 1
REMARK VINA RESULT:      -9.4      0.000      0.000
REMARK  3 active torsions:
REMARK  status: ('A' for Active; 'I' for Inactive)
REMARK    1  A    between atoms: C_2  and  C_1 
REMARK    2  A    between atoms: C_4  and  C_1 
REMARK       I    between atoms: N_3  and  C_2 
REMARK    3  A    between atoms: C_6  and  N_5 
ROOT
ATOM      1  C   UNL d   1      53.728  33.588  53.554  0.00  0.00     0.253 C 
ATOM      2  N   UNL d   1      53.590  32.781  53.641  0.00  0.00    -0.272 N 
ATOM      3  N   UNL d   1      53.401  31.169  53.779  0.00  0.00    -0.299 N 
ATOM      4  O   UNL d   1      54.445  33.853  53.253  0.00  0.00    -0.271 OA
ATOM      5  C   UNL d   1      54.188  32.267  53.418  0.00  0.00     0.102 A 
ATOM      6  C   UNL d   1      52.901  32.484  53.932  0.00  0.00     0.102 A 
ATOM      7  C   UNL d   1      54.103  31.466  53.483  0.00  0.00     0.100 A 
ATOM      8  C   UNL d   1      52.797  31.673  54.004  0.00  0.00     0.100 A 
ENDROOT
BRANCH   1   9
ATOM      9  C   UNL d   1      53.149  34.137  53.768  0.00  0.00     0.137 A 
ATOM     10  C   UNL d   1      52.577  34.678  53.978  0.00  0.00     0.018 A 
ATOM     11  C   UNL d   1      52.638  35.089  54.699  0.00  0.00     0.119 A 
ATOM     12  O   UNL d   1      53.267  34.952  55.197  0.00  0.00    -0.304 OA
ATOM     13  C   UNL d   1      53.846  34.405  54.987  0.00  0.00     0.119 A 
ATOM     14  C   UNL d   1      53.789  33.996  54.271  0.00  0.00     0.018 A 
BRANCH   9  15
ATOM     15  C   UNL d   1      52.510  34.275  53.261  0.00  0.00     0.023 A 
ATOM     16  S   UNL d   1      51.705  34.260  53.461  0.00  0.00    -0.090 SA
ATOM     17  C   UNL d   1      51.258  34.428  52.790  0.00  0.00     0.035 A 
ATOM     18  C   UNL d   1      51.769  34.551  52.162  0.00  0.00     0.007 A 
ATOM     19  C   UNL d   1      52.547  34.457  52.450  0.00  0.00     0.004 A 
ENDBRANCH   9  15
ENDBRANCH   1   9
BRANCH   3  20
ATOM     20  C   UNL d   1      53.298  30.370  53.851  0.00  0.00     0.092 A 
ATOM     21  C   UNL d   1      52.990  29.936  53.225  0.00  0.00     0.156 A 
ATOM     22  F   UNL d   1      52.788  30.303  52.531  0.00  0.00    -0.203 F 
ATOM     23  C   UNL d   1      52.886  29.133  53.299  0.00  0.00     0.031 A 
ATOM     24  C   UNL d   1      53.089  28.752  54.001  0.00  0.00     0.002 A 
ATOM     25  C   UNL d   1      53.398  29.191  54.629  0.00  0.00     0.002 A 
ATOM     26  C   UNL d   1      53.503  30.005  54.552  0.00  0.00     0.020 A 
ENDBRANCH   3  20
TORSDOF 3
ENDMDL
MODEL 2
REMARK VINA RESULT:      -9.4      1.651      3.894
REMARK  3 active torsions:
REMARK  status: ('A' for Active; 'I' for Inactive)
REMARK    1  A    between atoms: C_2  and  C_1 
REMARK    2  A    between atoms: C_4  and  C_1 
REMARK       I    between atoms: N_3  and  C_2 
REMARK    3  A    between atoms: C_6  and  N_5 
ROOT
ATOM      1  C   UNL d   1      53.582  33.329  53.476  0.00  0.00     0.253 C 
ATOM      2  N   UNL d   1      52.814  33.570  53.301  0.00  0.00    -0.272 N 
ATOM      3  N   UNL d   1      51.332  34.113  52.900  0.00  0.00    -0.299 N 
ATOM      4  O   UNL d   1      54.222  33.715  53.137  0.00  0.00    -0.271 OA
ATOM      5  C   UNL d   1      52.722  34.200  52.784  0.00  0.00     0.102 A 
ATOM      6  C   UNL d   1      52.163  33.215  53.613  0.00  0.00     0.102 A 
ATOM      7  C   UNL d   1      51.991  34.476  52.580  0.00  0.00     0.100 A 
ATOM      8  C   UNL d   1      51.412  33.483  53.417  0.00  0.00     0.100 A 
ENDROOT
BRANCH   1   9
ATOM      9  C   UNL d   1      53.715  32.698  53.992  0.00  0.00     0.137 A 
ATOM     10  C   UNL d   1      53.846  32.074  54.500  0.00  0.00     0.018 A 
ATOM     11  C   UNL d   1      54.051  32.220  55.293  0.00  0.00     0.119 A 
ATOM     12  O   UNL d   1      54.121  32.984  55.564  0.00  0.00    -0.304 OA
ATOM     13  C   UNL d   1      53.989  33.615  55.052  0.00  0.00     0.119 A 
ATOM     14  C   UNL d   1      53.785  33.475  54.264  0.00  0.00     0.018 A 
BRANCH   9  15
ATOM     15  C   UNL d   1      53.643  31.921  53.715  0.00  0.00     0.023 A 
ATOM     16  S   UNL d   1      53.229  31.301  54.079  0.00  0.00    -0.090 SA
ATOM     17  C   UNL d   1      53.300  30.623  53.617  0.00  0.00     0.035 A 
ATOM     18  C   UNL d   1      53.756  30.804  52.960  0.00  0.00     0.007 A 
ATOM     19  C   UNL d   1      53.970  31.609  53.018  0.00  0.00     0.004 A 
ENDBRANCH   9  15
ENDBRANCH   1   9
BRANCH   3  20
ATOM     20  C   UNL d   1      50.591  34.374  52.707  0.00  0.00     0.092 A 
ATOM     21  C   UNL d   1      50.292  34.246  51.952  0.00  0.00     0.156 A 
ATOM     22  F   UNL d   1      50.735  33.858  51.396  0.00  0.00    -0.203 F 
ATOM     23  C   UNL d   1      49.548  34.510  51.760  0.00  0.00     0.031 A 
ATOM     24  C   UNL d   1      49.091  34.906  52.320  0.00  0.00     0.002 A 
ATOM     25  C   UNL d   1      49.393  35.033  53.078  0.00  0.00     0.002 A 
ATOM     26  C   UNL d   1      50.149  34.765  53.271  0.00  0.00     0.020 A 
ENDBRANCH   3  20
TORSDOF 3
ENDMDL
MODEL 3
REMARK VINA RESULT:      -9.0      1.870      4.169
REMARK  3 active torsions:
REMARK  status: ('A' for Active; 'I' for Inactive)
REMARK    1  A    between atoms: C_2  and  C_1 
REMARK    2  A    between atoms: C_4  and  C_1 
REMARK       I    between atoms: N_3  and  C_2 
REMARK    3  A    between atoms: C_6  and  N_5 
ROOT
ATOM      1  C   UNL d   1      53.309  32.967  52.992  0.00  0.00     0.253 C 
ATOM      2  N   UNL d   1      52.566  33.322  52.984  0.00  0.00    -0.272 N 
ATOM      3  N   UNL d   1      51.120  34.065  52.887  0.00  0.00    -0.299 N 
ATOM      4  O   UNL d   1      53.834  33.095  52.373  0.00  0.00    -0.271 OA
ATOM      5  C   UNL d   1      52.380  33.800  52.344  0.00  0.00     0.102 A 
ATOM      6  C   UNL d   1      52.026  33.220  53.572  0.00  0.00     0.102 A 
ATOM      7  C   UNL d   1      51.666  34.172  52.288  0.00  0.00     0.100 A 
ATOM      8  C   UNL d   1      51.295  33.590  53.531  0.00  0.00     0.100 A 
ENDROOT
BRANCH   1   9
ATOM      9  C   UNL d   1      53.532  32.479  53.619  0.00  0.00     0.137 A 
ATOM     10  C   UNL d   1      53.754  31.998  54.239  0.00  0.00     0.018 A 
ATOM     11  C   UNL d   1      53.595  31.182  54.210  0.00  0.00     0.119 A 
ATOM     12  O   UNL d   1      53.220  30.860  53.564  0.00  0.00    -0.304 OA
ATOM     13  C   UNL d   1      52.995  31.344  52.936  0.00  0.00     0.119 A 
ATOM     14  C   UNL d   1      53.151  32.155  52.962  0.00  0.00     0.018 A 
BRANCH   9  15
ATOM     15  C   UNL d   1      53.914  32.807  54.276  0.00  0.00     0.023 A 
ATOM     16  S   UNL d   1      54.625  33.234  54.274  0.00  0.00    -0.090 SA
ATOM     17  C   UNL d   1      54.806  33.459  55.046  0.00  0.00     0.035 A 
ATOM     18  C   UNL d   1      54.217  33.178  55.542  0.00  0.00     0.007 A 
ATOM     19  C   UNL d   1      53.662  32.773  55.067  0.00  0.00     0.004 A 
ENDBRANCH   9  15
ENDBRANCH   1   9
BRANCH   3  20
ATOM     20  C   UNL d   1      50.399  34.429  52.849  0.00  0.00     0.092 A 
ATOM     21  C   UNL d   1      49.934  34.354  52.175  0.00  0.00     0.156 A 
ATOM     22  F   UNL d   1      50.194  33.915  51.545  0.00  0.00    -0.203 F 
ATOM     23  C   UNL d   1      49.210  34.720  52.137  0.00  0.00     0.031 A 
ATOM     24  C   UNL d   1      48.939  35.168  52.774  0.00  0.00     0.002 A 
ATOM     25  C   UNL d   1      49.407  35.242  53.450  0.00  0.00     0.002 A 
ATOM     26  C   UNL d   1      50.142  34.870  53.486  0.00  0.00     0.020 A 
ENDBRANCH   3  20
TORSDOF 3
ENDMDL
