MODEL 1
REMARK VINA RESULT:      -3.9      0.000      0.000
REMARK  2 active torsions:
REMARK  status: ('A' for Active; 'I' for Inactive)
REMARK    1  A    between atoms: C_5  and  N_2 
REMARK    2  A    between atoms: C_4  and  C_5 
ROOT
ATOM      1  C   UNL d   1     -41.135-122.448 -51.807  0.00  0.00     0.206 A 
ATOM      2  N   UNL d   1     -41.141-122.595 -52.623  0.00  0.00    -0.279 N 
ATOM      3  N   UNL d   1     -41.123-123.185 -51.415  0.00  0.00    -0.215 NA
ATOM      4  C   UNL d   1     -41.123-123.773 -51.992  0.00  0.00     0.120 A 
ATOM      5  C   UNL d   1     -41.133-123.412 -52.736  0.00  0.00     0.103 A 
ATOM      6  S   UNL d   1     -41.139-121.704 -51.445  0.00  0.00    -0.038 SA
ENDROOT
BRANCH   2   7
ATOM      7  C   UNL d   1     -41.152-122.020 -53.223  0.00  0.00     0.089 C 
BRANCH   7   8
ATOM      8  C   UNL d   1     -41.477-122.197 -53.954  0.00  0.00     0.047 A 
ATOM      9  S   UNL d   1     -42.209-121.949 -54.230  0.00  0.00    -0.085 SA
ATOM     10  C   UNL d   1     -42.318-122.252 -54.990  0.00  0.00     0.035 A 
ATOM     11  C   UNL d   1     -41.642-122.692 -55.180  0.00  0.00     0.007 A 
ATOM     12  C   UNL d   1     -41.125-122.657 -54.541  0.00  0.00     0.009 A 
ENDBRANCH   7   8
ENDBRANCH   2   7
TORSDOF 2
ENDMDL
MODEL 2
REMARK VINA RESULT:      -3.7      1.221      2.950
REMARK  2 active torsions:
REMARK  status: ('A' for Active; 'I' for Inactive)
REMARK    1  A    between atoms: C_5  and  N_2 
REMARK    2  A    between atoms: C_4  and  C_5 
ROOT
ATOM      1  C   UNL d   1     -41.747-123.074 -54.322  0.00  0.00     0.206 A 
ATOM      2  N   UNL d   1     -41.593-122.692 -53.603  0.00  0.00    -0.279 N 
ATOM      3  N   UNL d   1     -42.242-122.577 -54.774  0.00  0.00    -0.215 NA
ATOM      4  C   UNL d   1     -42.386-121.899 -54.329  0.00  0.00     0.120 A 
ATOM      5  C   UNL d   1     -41.987-121.967 -53.608  0.00  0.00     0.103 A 
ATOM      6  S   UNL d   1     -41.461-123.816 -54.552  0.00  0.00    -0.038 SA
ENDROOT
BRANCH   2   7
ATOM      7  C   UNL d   1     -41.123-122.987 -52.984  0.00  0.00     0.089 C 
BRANCH   7   8
ATOM      8  C   UNL d   1     -41.241-122.722 -52.218  0.00  0.00     0.047 A 
ATOM      9  S   UNL d   1     -41.500-123.176 -51.585  0.00  0.00    -0.085 SA
ATOM     10  C   UNL d   1     -41.544-122.692 -50.917  0.00  0.00     0.035 A 
ATOM     11  C   UNL d   1     -41.308-121.931 -51.147  0.00  0.00     0.007 A 
ATOM     12  C   UNL d   1     -41.123-121.952 -51.948  0.00  0.00     0.009 A 
ENDBRANCH   7   8
ENDBRANCH   2   7
TORSDOF 2
ENDMDL
MODEL 3
REMARK VINA RESULT:      -3.6      2.157      3.952
REMARK  2 active torsions:
REMARK  status: ('A' for Active; 'I' for Inactive)
REMARK    1  A    between atoms: C_5  and  N_2 
REMARK    2  A    between atoms: C_4  and  C_5 
ROOT
ATOM      1  C   UNL d   1     -41.264-123.051 -51.880  0.00  0.00     0.206 A 
ATOM      2  N   UNL d   1     -41.482-122.954 -51.087  0.00  0.00    -0.279 N 
ATOM      3  N   UNL d   1     -41.123-122.293 -52.200  0.00  0.00    -0.215 NA
ATOM      4  C   UNL d   1     -41.256-121.743 -51.603  0.00  0.00     0.120 A 
ATOM      5  C   UNL d   1     -41.477-122.146 -50.917  0.00  0.00     0.103 A 
ATOM      6  S   UNL d   1     -41.197-123.770 -52.283  0.00  0.00    -0.038 SA
ENDROOT
BRANCH   2   7
ATOM      7  C   UNL d   1     -41.674-123.563 -50.554  0.00  0.00     0.089 C 
BRANCH   7   8
ATOM      8  C   UNL d   1     -41.974-123.380 -49.814  0.00  0.00     0.047 A 
ATOM      9  S   UNL d   1     -41.539-123.310 -49.121  0.00  0.00    -0.085 SA
ATOM     10  C   UNL d   1     -42.057-123.121 -48.507  0.00  0.00     0.035 A 
ATOM     11  C   UNL d   1     -42.819-123.074 -48.830  0.00  0.00     0.007 A 
ATOM     12  C   UNL d   1     -42.766-123.235 -49.635  0.00  0.00     0.009 A 
ENDBRANCH   7   8
ENDBRANCH   2   7
TORSDOF 2
ENDMDL
MODEL 4
REMARK VINA RESULT:      -3.6      2.241      3.243
REMARK  2 active torsions:
REMARK  status: ('A' for Active; 'I' for Inactive)
REMARK    1  A    between atoms: C_5  and  N_2 
REMARK    2  A    between atoms: C_4  and  C_5 
ROOT
ATOM      1  C   UNL d   1     -41.959-123.265 -48.897  0.00  0.00     0.206 A 
ATOM      2  N   UNL d   1     -41.846-123.048 -49.689  0.00  0.00    -0.279 N 
ATOM      3  N   UNL d   1     -42.752-123.098 -48.697  0.00  0.00    -0.215 NA
ATOM      4  C   UNL d   1     -43.115-122.782 -49.366  0.00  0.00     0.120 A 
ATOM      5  C   UNL d   1     -42.560-122.750 -49.977  0.00  0.00     0.103 A 
ATOM      6  S   UNL d   1     -41.389-123.590 -48.394  0.00  0.00    -0.038 SA
ENDROOT
BRANCH   2   7
ATOM      7  C   UNL d   1     -41.138-123.118 -50.119  0.00  0.00     0.089 C 
BRANCH   7   8
ATOM      8  C   UNL d   1     -41.135-122.983 -50.927  0.00  0.00     0.047 A 
ATOM      9  S   UNL d   1     -41.142-123.559 -51.512  0.00  0.00    -0.085 SA
ATOM     10  C   UNL d   1     -41.136-123.183 -52.248  0.00  0.00     0.035 A 
ATOM     11  C   UNL d   1     -41.124-122.366 -52.108  0.00  0.00     0.007 A 
ATOM     12  C   UNL d   1     -41.124-122.245 -51.294  0.00  0.00     0.009 A 
ENDBRANCH   7   8
ENDBRANCH   2   7
TORSDOF 2
ENDMDL
MODEL 5
REMARK VINA RESULT:      -2.9      2.539      3.597
REMARK  2 active torsions:
REMARK  status: ('A' for Active; 'I' for Inactive)
REMARK    1  A    between atoms: C_5  and  N_2 
REMARK    2  A    between atoms: C_4  and  C_5 
ROOT
ATOM      1  C   UNL d   1     -42.334-123.517 -48.663  0.00  0.00     0.206 A 
ATOM      2  N   UNL d   1     -41.895-123.348 -49.346  0.00  0.00    -0.279 N 
ATOM      3  N   UNL d   1     -41.855-123.340 -48.003  0.00  0.00    -0.215 NA
ATOM      4  C   UNL d   1     -41.132-123.066 -48.286  0.00  0.00     0.120 A 
ATOM      5  C   UNL d   1     -41.154-123.070 -49.112  0.00  0.00     0.103 A 
ATOM      6  S   UNL d   1     -43.107-123.808 -48.641  0.00  0.00    -0.038 SA
ENDROOT
BRANCH   2   7
ATOM      7  C   UNL d   1     -42.155-123.441 -50.130  0.00  0.00     0.089 C 
BRANCH   7   8
ATOM      8  C   UNL d   1     -41.818-122.996 -50.729  0.00  0.00     0.047 A 
ATOM      9  S   UNL d   1     -41.343-123.282 -51.334  0.00  0.00    -0.085 SA
ATOM     10  C   UNL d   1     -41.123-122.648 -51.816  0.00  0.00     0.035 A 
ATOM     11  C   UNL d   1     -41.470-121.965 -51.499  0.00  0.00     0.007 A 
ATOM     12  C   UNL d   1     -41.897-122.181 -50.830  0.00  0.00     0.009 A 
ENDBRANCH   7   8
ENDBRANCH   2   7
TORSDOF 2
ENDMDL
