MODEL 1
REMARK VINA RESULT:      -2.2      0.000      0.000
REMARK  7 active torsions:
REMARK  status: ('A' for Active; 'I' for Inactive)
REMARK    1  A    between atoms: C_3  and  C_1 
REMARK    2  A    between atoms: C_6  and  C_1 
REMARK    3  A    between atoms: C_2  and  C_3 
REMARK       I    between atoms: N_4  and  C_2 
REMARK    4  A    between atoms: C_12  and  N_4 
REMARK    5  A    between atoms: N_7  and  C_5 
REMARK    6  A    between atoms: C_16  and  N_7 
REMARK    7  A    between atoms: C_17  and  N_7 
ROOT
ATOM      1  C   UNL d   1      32.459  15.999 -24.190  0.00  0.00     0.279 C 
ATOM      2  N   UNL d   1      31.852  15.453 -24.281  0.00  0.00    -0.208 NA
ATOM      3  O   UNL d   1      33.239  15.763 -24.341  0.00  0.00    -0.265 OA
ENDROOT
BRANCH   2   4
ATOM      4  C   UNL d   1      31.080  15.686 -24.132  0.00  0.00     0.085 A 
ATOM      5  C   UNL d   1      30.772  15.618 -23.368  0.00  0.00     0.021 A 
ATOM      6  C   UNL d   1      29.990  15.854 -23.218  0.00  0.00     0.019 A 
ATOM      7  C   UNL d   1      29.523  16.154 -23.818  0.00  0.00     0.064 A 
ATOM      8  C   UNL d   1      29.837  16.221 -24.589  0.00  0.00     0.019 A 
ATOM      9  C   UNL d   1      30.619  15.985 -24.740  0.00  0.00     0.021 A 
BRANCH   7  10
ATOM     10  N   UNL d   1      28.755  16.386 -23.670  0.00  0.00    -0.304 N 
BRANCH  10  11
ATOM     11  C   UNL d   1      28.611  17.075 -23.224  0.00  0.00     0.080 C 
ATOM     12  C   UNL d   1      28.073  17.643 -23.505  0.00  0.00     0.021 C 
ENDBRANCH  10  11
BRANCH  10  13
ATOM     13  C   UNL d   1      28.129  15.948 -23.957  0.00  0.00     0.080 C 
ATOM     14  C   UNL d   1      27.598  15.609 -23.429  0.00  0.00     0.021 C 
ENDBRANCH  10  13
ENDBRANCH   7  10
ENDBRANCH   2   4
BRANCH   1  15
ATOM     15  C   UNL d   1      32.312  16.768 -23.956  0.00  0.00     0.063 C 
BRANCH  15  16
ATOM     16  C   UNL d   1      32.846  17.368 -24.144  0.00  0.00     0.006 C 
BRANCH  16  17
ATOM     17  C   UNL d   1      32.885  18.051 -23.686  0.00  0.00     0.011 A 
ATOM     18  C   UNL d   1      32.780  18.789 -24.018  0.00  0.00     0.058 A 
ATOM     19 CL   UNL d   1      32.635  18.849 -24.810  0.00  0.00    -0.082 Cl
ATOM     20  C   UNL d   1      32.819  19.480 -23.555  0.00  0.00     0.011 A 
ATOM     21  C   UNL d   1      32.963  19.433 -22.761  0.00  0.00     0.001 A 
ATOM     22  C   UNL d   1      33.071  18.684 -22.417  0.00  0.00     0.000 A 
ATOM     23  C   UNL d   1      33.032  18.006 -22.871  0.00  0.00     0.001 A 
ENDBRANCH  16  17
ENDBRANCH  15  16
ENDBRANCH   1  15
TORSDOF 7
ENDMDL
MODEL 2
REMARK VINA RESULT:      -1.8      1.675      4.221
REMARK  7 active torsions:
REMARK  status: ('A' for Active; 'I' for Inactive)
REMARK    1  A    between atoms: C_3  and  C_1 
REMARK    2  A    between atoms: C_6  and  C_1 
REMARK    3  A    between atoms: C_2  and  C_3 
REMARK       I    between atoms: N_4  and  C_2 
REMARK    4  A    between atoms: C_12  and  N_4 
REMARK    5  A    between atoms: N_7  and  C_5 
REMARK    6  A    between atoms: C_16  and  N_7 
REMARK    7  A    between atoms: C_17  and  N_7 
ROOT
ATOM      1  C   UNL d   1      32.561  16.615 -24.515  0.00  0.00     0.279 C 
ATOM      2  N   UNL d   1      33.240  16.952 -24.197  0.00  0.00    -0.208 NA
ATOM      3  O   UNL d   1      32.624  15.906 -24.941  0.00  0.00    -0.265 OA
ENDROOT
BRANCH   2   4
ATOM      4  C   UNL d   1      33.178  17.653 -23.776  0.00  0.00     0.085 A 
ATOM      5  C   UNL d   1      33.085  17.629 -22.955  0.00  0.00     0.021 A 
ATOM      6  C   UNL d   1      33.022  18.339 -22.528  0.00  0.00     0.019 A 
ATOM      7  C   UNL d   1      33.051  19.059 -22.913  0.00  0.00     0.064 A 
ATOM      8  C   UNL d   1      33.145  19.080 -23.743  0.00  0.00     0.019 A 
ATOM      9  C   UNL d   1      33.208  18.371 -24.169  0.00  0.00     0.021 A 
BRANCH   7  10
ATOM     10  N   UNL d   1      32.989  19.757 -22.494  0.00  0.00    -0.304 N 
BRANCH  10  11
ATOM     11  C   UNL d   1      32.718  20.446 -22.876  0.00  0.00     0.080 C 
ATOM     12  C   UNL d   1      33.230  21.095 -22.967  0.00  0.00     0.021 C 
ENDBRANCH  10  11
BRANCH  10  13
ATOM     13  C   UNL d   1      33.191  19.783 -21.703  0.00  0.00     0.080 C 
ATOM     14  C   UNL d   1      32.881  20.376 -21.227  0.00  0.00     0.021 C 
ENDBRANCH  10  13
ENDBRANCH   7  10
ENDBRANCH   2   4
BRANCH   1  15
ATOM     15  C   UNL d   1      31.827  16.961 -24.421  0.00  0.00     0.063 C 
BRANCH  15  16
ATOM     16  C   UNL d   1      31.147  16.570 -24.680  0.00  0.00     0.006 C 
BRANCH  16  17
ATOM     17  C   UNL d   1      30.408  16.926 -24.609  0.00  0.00     0.011 A 
ATOM     18  C   UNL d   1      29.865  16.664 -24.060  0.00  0.00     0.058 A 
ATOM     19 CL   UNL d   1      30.056  16.046 -23.578  0.00  0.00    -0.082 Cl
ATOM     20  C   UNL d   1      29.117  17.024 -23.988  0.00  0.00     0.011 A 
ATOM     21  C   UNL d   1      28.913  17.644 -24.465  0.00  0.00     0.001 A 
ATOM     22  C   UNL d   1      29.464  17.915 -25.026  0.00  0.00     0.000 A 
ATOM     23  C   UNL d   1      30.196  17.562 -25.097  0.00  0.00     0.001 A 
ENDBRANCH  16  17
ENDBRANCH  15  16
ENDBRANCH   1  15
TORSDOF 7
ENDMDL
MODEL 3
REMARK VINA RESULT:      -0.3      2.348      3.525
REMARK  7 active torsions:
REMARK  status: ('A' for Active; 'I' for Inactive)
REMARK    1  A    between atoms: C_3  and  C_1 
REMARK    2  A    between atoms: C_6  and  C_1 
REMARK    3  A    between atoms: C_2  and  C_3 
REMARK       I    between atoms: N_4  and  C_2 
REMARK    4  A    between atoms: C_12  and  N_4 
REMARK    5  A    between atoms: N_7  and  C_5 
REMARK    6  A    between atoms: C_16  and  N_7 
REMARK    7  A    between atoms: C_17  and  N_7 
ROOT
ATOM      1  C   UNL d   1      32.893  20.110 -24.591  0.00  0.00     0.279 C 
ATOM      2  N   UNL d   1      32.669  19.502 -25.096  0.00  0.00    -0.208 NA
ATOM      3  O   UNL d   1      33.007  20.871 -24.901  0.00  0.00    -0.265 OA
ENDROOT
BRANCH   2   4
ATOM      4  C   UNL d   1      32.557  18.749 -24.790  0.00  0.00     0.085 A 
ATOM      5  C   UNL d   1      31.801  18.512 -24.555  0.00  0.00     0.021 A 
ATOM      6  C   UNL d   1      31.688  17.750 -24.245  0.00  0.00     0.019 A 
ATOM      7  C   UNL d   1      32.317  17.234 -24.171  0.00  0.00     0.064 A 
ATOM      8  C   UNL d   1      33.080  17.476 -24.409  0.00  0.00     0.019 A 
ATOM      9  C   UNL d   1      33.193  18.238 -24.719  0.00  0.00     0.021 A 
BRANCH   7  10
ATOM     10  N   UNL d   1      32.206  16.485 -23.866  0.00  0.00    -0.304 N 
BRANCH  10  11
ATOM     11  C   UNL d   1      32.103  15.839 -24.383  0.00  0.00     0.080 C 
ATOM     12  C   UNL d   1      31.367  15.453 -24.419  0.00  0.00     0.021 C 
ENDBRANCH  10  11
BRANCH  10  13
ATOM     13  C   UNL d   1      32.194  16.365 -23.059  0.00  0.00     0.080 C 
ATOM     14  C   UNL d   1      32.569  15.706 -22.743  0.00  0.00     0.021 C 
ENDBRANCH  10  13
ENDBRANCH   7  10
ENDBRANCH   2   4
BRANCH   1  15
ATOM     15  C   UNL d   1      33.007  19.982 -23.792  0.00  0.00     0.063 C 
BRANCH  15  16
ATOM     16  C   UNL d   1      33.241  20.604 -23.301  0.00  0.00     0.006 C 
BRANCH  16  17
ATOM     17  C   UNL d   1      33.193  20.531 -22.483  0.00  0.00     0.011 A 
ATOM     18  C   UNL d   1      33.188  21.188 -22.000  0.00  0.00     0.058 A 
ATOM     19 CL   UNL d   1      33.232  21.923 -22.331  0.00  0.00    -0.082 Cl
ATOM     20  C   UNL d   1      33.139  21.115 -21.171  0.00  0.00     0.011 A 
ATOM     21  C   UNL d   1      33.095  20.385 -20.827  0.00  0.00     0.001 A 
ATOM     22  C   UNL d   1      33.099  19.711 -21.315  0.00  0.00     0.000 A 
ATOM     23  C   UNL d   1      33.147  19.783 -22.126  0.00  0.00     0.001 A 
ENDBRANCH  16  17
ENDBRANCH  15  16
ENDBRANCH   1  15
TORSDOF 7
ENDMDL
