MODEL 1
REMARK VINA RESULT:      48.1      0.000      0.000
REMARK  5 active torsions:
REMARK  status: ('A' for Active; 'I' for Inactive)
REMARK    1  A    between atoms: O_8  and  S_1 
REMARK    2  A    between atoms: C_9  and  S_1 
REMARK    3  A    between atoms: C_7  and  C_2 
REMARK    4  A    between atoms: C_20  and  C_7 
REMARK    5  A    between atoms: C_14  and  O_8 
ROOT
ATOM      1  C   UNL d   1      14.743  13.459  -0.662  0.00  0.00     0.139 A 
ATOM      2  C   UNL d   1      14.340  12.487  -1.476  0.00  0.00     0.064 A 
ATOM      3  C   UNL d   1      14.689  12.639  -0.747  0.00  0.00     0.220 A 
ATOM      4  C   UNL d   1      14.176  13.207  -1.844  0.00  0.00     0.105 A 
ATOM      5  O   UNL d   1      14.426  13.810  -1.338  0.00  0.00    -0.304 OA
ATOM      6  C   UNL d   1      13.825  13.213  -2.580  0.00  0.00     0.050 A 
ATOM      7  C   UNL d   1      14.150  11.779  -1.851  0.00  0.00     0.007 A 
ATOM      8  C   UNL d   1      13.635  12.505  -2.956  0.00  0.00     0.116 A 
ATOM      9  O   UNL d   1      14.943  12.083  -0.195  0.00  0.00    -0.284 OA
ATOM     10  C   UNL d   1      13.798  11.793  -2.591  0.00  0.00     0.026 A 
ENDROOT
BRANCH   8  11
ATOM     11  O   UNL d   1      13.282  12.517  -3.698  0.00  0.00    -0.227 OA
BRANCH  11  12
ATOM     12  S   UNL d   1      13.309  13.201  -4.158  0.00  0.00     0.304 S 
ATOM     13  O   UNL d   1      12.769  13.554  -3.665  0.00  0.00    -0.193 OA
ATOM     14  O   UNL d   1      13.855  12.855  -4.664  0.00  0.00    -0.193 OA
BRANCH  12  15
ATOM     15  C   UNL d   1      13.333  13.895  -4.620  0.00  0.00     0.111 A 
ATOM     16  C   UNL d   1      13.889  13.960  -5.229  0.00  0.00     0.016 A 
ATOM     17  C   UNL d   1      13.914  14.646  -5.687  0.00  0.00     0.030 A 
ATOM     18  C   UNL d   1      13.383  15.267  -5.536  0.00  0.00     0.140 A 
ATOM     19  C   UNL d   1      12.830  15.189  -4.922  0.00  0.00     0.030 A 
ATOM     20  F   UNL d   1      13.407  15.942  -5.986  0.00  0.00    -0.204 F 
ATOM     21  C   UNL d   1      12.808  14.501  -4.467  0.00  0.00     0.016 A 
ENDBRANCH  12  15
ENDBRANCH  11  12
ENDBRANCH   8  11
BRANCH   1  22
ATOM     22  C   UNL d   1      15.057  13.862  -0.015  0.00  0.00     0.029 C 
BRANCH  22  23
ATOM     23  C   UNL d   1      15.296  14.652  -0.086  0.00  0.00     0.021 A 
ATOM     24  C   UNL d   1      16.095  14.823  -0.153  0.00  0.00     0.099 A 
ATOM     25  N   UNL d   1      16.345  15.600  -0.224  0.00  0.00    -0.242 NA
ATOM     26  C   UNL d   1      15.784  16.218  -0.229  0.00  0.00     0.099 A 
ATOM     27  C   UNL d   1      14.980  16.039  -0.161  0.00  0.00     0.021 A 
ATOM     28  C   UNL d   1      14.742  15.251  -0.089  0.00  0.00     0.003 A 
ENDBRANCH  22  23
ENDBRANCH   1  22
TORSDOF 5
ENDMDL
