MODEL 1
REMARK VINA RESULT:       8.4      0.000      0.000
REMARK  3 active torsions:
REMARK  status: ('A' for Active; 'I' for Inactive)
REMARK    1  A    between atoms: C_13  and  C_4 
REMARK    2  A    between atoms: O_15  and  C_13 
REMARK    3  A    between atoms: C_16  and  O_15 
ROOT
ATOM      1  C   UNL d   1      45.776 -16.862  44.408  0.00  0.00     0.144 C 
ENDROOT
BRANCH   1   2
ATOM      2  C   UNL d   1      45.702 -16.057  44.507  0.00  0.00     0.142 A 
ATOM      3  N   UNL d   1      46.287 -15.486  44.409  0.00  0.00    -0.057 NA
ATOM      4  C   UNL d   1      45.974 -14.740  44.565  0.00  0.00     0.735 A 
ATOM      5  N   UNL d   1      45.169 -14.831  44.768  0.00  0.00    -0.136 N 
ATOM      6  N   UNL d   1      46.303 -13.989  44.552  0.00  0.00    -0.059 NA
ATOM      7  C   UNL d   1      45.020 -15.648  44.727  0.00  0.00     0.120 A 
ATOM      8  C   UNL d   1      44.705 -14.177  44.955  0.00  0.00     0.100 A 
ATOM      9  C   UNL d   1      45.012 -13.434  44.947  0.00  0.00     0.041 A 
ATOM     10  C   UNL d   1      45.833 -13.316  44.743  0.00  0.00     0.119 A 
ENDBRANCH   1   2
BRANCH   1  11
ATOM     11  O   UNL d   1      46.403 -17.170  43.983  0.00  0.00    -0.303 OA
BRANCH  11  12
ATOM     12  C   UNL d   1      46.400 -17.957  43.737  0.00  0.00     0.100 A 
ATOM     13  C   UNL d   1      46.467 -18.126  42.941  0.00  0.00     0.025 A 
ATOM     14  C   UNL d   1      46.464 -18.911  42.692  0.00  0.00     0.013 A 
ATOM     15  C   UNL d   1      46.534 -19.085  41.866  0.00  0.00     0.001 C 
ATOM     16  C   UNL d   1      46.393 -19.529  43.239  0.00  0.00     0.058 A 
ATOM     17  C   UNL d   1      46.325 -19.360  44.034  0.00  0.00     0.013 A 
ATOM     18 CL   UNL d   1      46.387 -20.330  43.004  0.00  0.00    -0.082 Cl
ATOM     19  C   UNL d   1      46.329 -18.572  44.281  0.00  0.00     0.026 A 
ENDBRANCH  11  12
ENDBRANCH   1  11
TORSDOF 3
ENDMDL
MODEL 2
REMARK VINA RESULT:       9.5      2.268      4.815
REMARK  3 active torsions:
REMARK  status: ('A' for Active; 'I' for Inactive)
REMARK    1  A    between atoms: C_13  and  C_4 
REMARK    2  A    between atoms: O_15  and  C_13 
REMARK    3  A    between atoms: C_16  and  O_15 
ROOT
ATOM      1  C   UNL d   1      45.931 -16.835  43.878  0.00  0.00     0.144 C 
ENDROOT
BRANCH   1   2
ATOM      2  C   UNL d   1      46.096 -17.633  43.858  0.00  0.00     0.142 A 
ATOM      3  N   UNL d   1      46.191 -18.140  44.499  0.00  0.00    -0.057 NA
ATOM      4  C   UNL d   1      46.352 -18.901  44.228  0.00  0.00     0.735 A 
ATOM      5  N   UNL d   1      46.360 -18.886  43.393  0.00  0.00    -0.136 N 
ATOM      6  N   UNL d   1      46.492 -19.608  44.619  0.00  0.00    -0.059 NA
ATOM      7  C   UNL d   1      46.201 -18.097  43.183  0.00  0.00     0.120 A 
ATOM      8  C   UNL d   1      46.507 -19.571  42.961  0.00  0.00     0.100 A 
ATOM      9  C   UNL d   1      46.647 -20.271  43.327  0.00  0.00     0.041 A 
ATOM     10  C   UNL d   1      46.643 -20.312  44.181  0.00  0.00     0.119 A 
ENDBRANCH   1   2
BRANCH   1  11
ATOM     11  O   UNL d   1      45.802 -16.459  44.593  0.00  0.00    -0.303 OA
BRANCH  11  12
ATOM     12  C   UNL d   1      45.742 -15.637  44.631  0.00  0.00     0.100 A 
ATOM     13  C   UNL d   1      45.013 -15.297  44.770  0.00  0.00     0.025 A 
ATOM     14  C   UNL d   1      44.950 -14.477  44.809  0.00  0.00     0.013 A 
ATOM     15  C   UNL d   1      44.193 -14.125  44.954  0.00  0.00     0.001 C 
ATOM     16  C   UNL d   1      45.617 -13.994  44.709  0.00  0.00     0.058 A 
ATOM     17  C   UNL d   1      46.345 -14.335  44.570  0.00  0.00     0.013 A 
ATOM     18 CL   UNL d   1      45.570 -13.162  44.745  0.00  0.00    -0.082 Cl
ATOM     19  C   UNL d   1      46.405 -15.157  44.531  0.00  0.00     0.026 A 
ENDBRANCH  11  12
ENDBRANCH   1  11
TORSDOF 3
ENDMDL
