MODEL 1
REMARK VINA RESULT:      -2.7      0.000      0.000
REMARK  10 active torsions:
REMARK  status: ('A' for Active; 'I' for Inactive)
REMARK    1  A    between atoms: N_3  and  C_1 
REMARK    2  A    between atoms: C_16  and  N_2 
REMARK       I    between atoms: C_7  and  N_3 
REMARK    3  A    between atoms: C_18  and  C_7 
REMARK    4  A    between atoms: C_10  and  C_20 
REMARK       I    between atoms: N_11  and  C_10 
REMARK    5  A    between atoms: C_19  and  N_11 
REMARK    6  A    between atoms: S_14  and  C_18 
REMARK    7  A    between atoms: C_20  and  S_14 
REMARK    8  A    between atoms: O_21  and  C_15 
REMARK    9  A    between atoms: C_23  and  C_16 
REMARK   10  A    between atoms: O_22  and  C_23 
ROOT
ATOM      1  C   UNL d   1      33.098  21.052 -22.202  0.00  0.00     0.182 A 
ATOM      2  N   UNL d   1      33.095  21.860 -22.392  0.00  0.00    -0.283 N 
ATOM      3  S   UNL d   1      32.930  20.982 -21.389  0.00  0.00    -0.048 SA
ATOM      4  C   UNL d   1      32.825  21.749 -21.083  0.00  0.00     0.050 A 
ATOM      5  C   UNL d   1      32.927  22.291 -21.702  0.00  0.00     0.072 A 
ATOM      6  C   UNL d   1      32.649  22.012 -20.315  0.00  0.00     0.032 A 
ATOM      7  C   UNL d   1      32.854  23.096 -21.553  0.00  0.00     0.020 A 
ATOM      8  C   UNL d   1      32.579  22.823 -20.183  0.00  0.00     0.095 A 
ATOM      9  C   UNL d   1      32.681  23.365 -20.802  0.00  0.00     0.026 A 
ENDROOT
BRANCH   1  10
ATOM     10  N   UNL d   1      33.241  20.426 -22.726  0.00  0.00    -0.183 NA
ATOM     11  C   UNL d   1      33.046  19.741 -22.298  0.00  0.00     0.287 C 
ATOM     12  O   UNL d   1      32.775  19.804 -21.514  0.00  0.00    -0.265 OA
BRANCH  11  13
ATOM     13  C   UNL d   1      33.119  18.999 -22.643  0.00  0.00     0.098 C 
BRANCH  13  14
ATOM     14  S   UNL d   1      32.555  18.730 -23.192  0.00  0.00    -0.076 SA
BRANCH  14  15
ATOM     15  C   UNL d   1      32.688  18.031 -23.616  0.00  0.00     0.098 C 
BRANCH  15  16
ATOM     16  C   UNL d   1      32.056  17.614 -23.944  0.00  0.00     0.286 C 
ATOM     17  N   UNL d   1      31.800  16.911 -23.596  0.00  0.00    -0.208 NA
ATOM     18  O   UNL d   1      31.681  17.908 -24.625  0.00  0.00    -0.265 OA
BRANCH  17  19
ATOM     19  C   UNL d   1      31.162  16.496 -23.931  0.00  0.00     0.085 A 
ATOM     20  C   UNL d   1      30.437  16.487 -23.550  0.00  0.00     0.019 A 
ATOM     21  C   UNL d   1      29.808  16.075 -23.884  0.00  0.00     0.002 A 
ATOM     22  C   UNL d   1      29.911  15.671 -24.605  0.00  0.00     0.000 A 
ATOM     23  C   UNL d   1      30.649  15.688 -24.980  0.00  0.00     0.002 A 
ATOM     24  C   UNL d   1      31.279  16.100 -24.646  0.00  0.00     0.019 A 
ENDBRANCH  17  19
ENDBRANCH  15  16
ENDBRANCH  14  15
ENDBRANCH  13  14
ENDBRANCH  11  13
ENDBRANCH   1  10
BRANCH   2  25
ATOM     25  C   UNL d   1      33.236  22.172 -23.138  0.00  0.00     0.108 C 
BRANCH  25  26
ATOM     26  C   UNL d   1      32.639  22.553 -23.555  0.00  0.00     0.135 C 
BRANCH  26  27
ATOM     27  O   UNL d   1      32.732  22.694 -24.364  0.00  0.00    -0.325 OA
ATOM     28  C   UNL d   1      32.362  23.337 -24.723  0.00  0.00     0.182 C 
ENDBRANCH  26  27
ENDBRANCH  25  26
ENDBRANCH   2  25
BRANCH   8  29
ATOM     29  O   UNL d   1      32.403  23.102 -19.419  0.00  0.00    -0.328 OA
ATOM     30  C   UNL d   1      32.935  23.586 -19.025  0.00  0.00     0.181 C 
ENDBRANCH   8  29
TORSDOF 10
ENDMDL
