MODEL 1
REMARK VINA RESULT:       7.2      0.000      0.000
REMARK  6 active torsions:
REMARK  status: ('A' for Active; 'I' for Inactive)
REMARK    1  A    between atoms: C_9  and  S_1 
REMARK    2  A    between atoms: N_10  and  S_1 
REMARK    3  A    between atoms: C_2  and  N_6 
REMARK       I    between atoms: N_6  and  C_8 
REMARK    4  A    between atoms: C_8  and  C_15 
REMARK    5  A    between atoms: O_24  and  C_13 
REMARK    6  A    between atoms: O_23  and  C_14 
ROOT
ATOM      1  N   UNL d   1     -41.643-120.505 -50.585  0.00  0.00    -0.183 NA
ATOM      2  C   UNL d   1     -41.427-120.315 -51.364  0.00  0.00     0.281 C 
ATOM      3  O   UNL d   1     -41.139-119.562 -51.529  0.00  0.00    -0.265 OA
ENDROOT
BRANCH   1   4
ATOM      4  C   UNL d   1     -41.937-121.266 -50.406  0.00  0.00     0.197 A 
ATOM      5  N   UNL d   1     -42.691-121.548 -50.577  0.00  0.00    -0.218 NA
ATOM      6  C   UNL d   1     -42.739-122.321 -50.303  0.00  0.00     0.114 A 
ATOM      7  C   UNL d   1     -43.344-122.878 -50.315  0.00  0.00     0.112 A 
ATOM      8  C   UNL d   1     -42.014-122.514 -49.965  0.00  0.00     0.074 A 
ATOM      9  C   UNL d   1     -43.230-123.628 -49.991  0.00  0.00     0.028 A 
ATOM     10  C   UNL d   1     -42.495-123.816 -49.651  0.00  0.00     0.027 A 
ATOM     11  C   UNL d   1     -41.892-123.263 -49.638  0.00  0.00     0.102 A 
ATOM     12  S   UNL d   1     -41.519-121.852 -50.033  0.00  0.00    -0.045 SA
BRANCH   7  13
ATOM     13  O   UNL d   1     -44.083-122.690 -50.657  0.00  0.00    -0.327 OA
ATOM     14  C   UNL d   1     -44.777-122.996 -50.333  0.00  0.00     0.181 C 
ENDBRANCH   7  13
BRANCH  11  15
ATOM     15  O   UNL d   1     -41.153-123.452 -49.296  0.00  0.00    -0.328 OA
ATOM     16  C   UNL d   1     -41.123-123.803 -48.553  0.00  0.00     0.181 C 
ENDBRANCH  11  15
ENDBRANCH   1   4
BRANCH   2  17
ATOM     17  C   UNL d   1     -41.505-120.874 -51.944  0.00  0.00     0.058 A 
ATOM     18  C   UNL d   1     -41.941-120.721 -52.621  0.00  0.00     0.005 A 
ATOM     19  C   UNL d   1     -42.019-121.290 -53.210  0.00  0.00     0.013 A 
ATOM     20  C   UNL d   1     -41.653-122.028 -53.119  0.00  0.00     0.104 A 
ATOM     21  C   UNL d   1     -41.212-122.188 -52.438  0.00  0.00     0.013 A 
ATOM     22  C   UNL d   1     -41.139-121.612 -51.853  0.00  0.00     0.005 A 
BRANCH  20  23
ATOM     23  S   UNL d   1     -41.730-122.601 -53.708  0.00  0.00     0.271 S 
ATOM     24  O   UNL d   1     -42.317-122.144 -54.072  0.00  0.00    -0.200 OA
ATOM     25  O   UNL d   1     -41.145-123.050 -53.342  0.00  0.00    -0.200 OA
BRANCH  23  26
ATOM     26  N   UNL d   1     -41.803-123.173 -54.294  0.00  0.00    -0.226 N 
ATOM     27  C   UNL d   1     -41.288-123.809 -54.316  0.00  0.00     0.111 C 
ATOM     28  C   UNL d   1     -42.399-123.104 -54.858  0.00  0.00     0.111 C 
ENDBRANCH  23  26
ENDBRANCH  20  23
ENDBRANCH   2  17
TORSDOF 6
ENDMDL
