MODEL 1
REMARK VINA RESULT:      57.0      0.000      0.000
REMARK  8 active torsions:
REMARK  status: ('A' for Active; 'I' for Inactive)
REMARK    1  A    between atoms: N_7  and  N_1 
REMARK    2  A    between atoms: S_9  and  C_2 
REMARK       I    between atoms: C_8  and  N_7 
REMARK    3  A    between atoms: C_21  and  C_8 
REMARK    4  A    between atoms: C_20  and  S_9 
REMARK    5  A    between atoms: C_10  and  C_20 
REMARK       I    between atoms: N_14  and  C_10 
REMARK    6  A    between atoms: C_12  and  C_22 
REMARK    7  A    between atoms: C_22  and  N_14 
REMARK    8  A    between atoms: C_24  and  C_21 
ROOT
ATOM      1  N   UNL d   1      13.637  13.158  -3.003  0.00  0.00    -0.168 N 
ATOM      2  C   UNL d   1      13.846  13.805  -3.458  0.00  0.00     0.199 A 
ATOM      3  C   UNL d   1      13.316  12.476  -3.368  0.00  0.00     0.283 A 
ATOM      4  N   UNL d   1      13.741  13.791  -4.292  0.00  0.00    -0.221 NA
ATOM      5  C   UNL d   1      13.213  12.468  -4.204  0.00  0.00     0.076 A 
ATOM      6  C   UNL d   1      13.427  13.126  -4.655  0.00  0.00     0.088 A 
ATOM      7  O   UNL d   1      13.104  11.823  -2.909  0.00  0.00    -0.265 OA
ATOM      8  C   UNL d   1      12.896  11.791  -4.559  0.00  0.00     0.006 A 
ATOM      9  C   UNL d   1      13.318  13.096  -5.476  0.00  0.00     0.019 A 
ATOM     10  C   UNL d   1      12.794  11.779  -5.377  0.00  0.00     0.000 A 
ATOM     11  C   UNL d   1      13.005  12.433  -5.836  0.00  0.00     0.002 A 
ENDROOT
BRANCH   2  12
ATOM     12  S   UNL d   1      14.156  14.466  -3.110  0.00  0.00    -0.043 SA
BRANCH  12  13
ATOM     13  C   UNL d   1      13.891  15.214  -3.328  0.00  0.00     0.101 C 
BRANCH  13  14
ATOM     14  C   UNL d   1      14.399  15.862  -3.281  0.00  0.00     0.286 C 
ATOM     15  N   UNL d   1      14.553  16.314  -3.950  0.00  0.00    -0.204 NA
ATOM     16  O   UNL d   1      14.756  16.059  -2.559  0.00  0.00    -0.265 OA
BRANCH  15  17
ATOM     17  C   UNL d   1      15.063  16.962  -3.895  0.00  0.00     0.127 C 
BRANCH  17  18
ATOM     18  C   UNL d   1      15.028  17.553  -4.479  0.00  0.00     0.119 A 
ATOM     19  O   UNL d   1      15.650  18.024  -4.729  0.00  0.00    -0.304 OA
ATOM     20  C   UNL d   1      15.368  18.533  -5.314  0.00  0.00     0.123 A 
ATOM     21  C   UNL d   1      14.563  18.374  -5.427  0.00  0.00     0.029 A 
ATOM     22  C   UNL d   1      14.352  17.764  -4.907  0.00  0.00     0.028 A 
ENDBRANCH  17  18
ENDBRANCH  15  17
ENDBRANCH  13  14
ENDBRANCH  12  13
ENDBRANCH   2  12
BRANCH   1  23
ATOM     23  N   UNL d   1      13.736  13.168  -2.199  0.00  0.00    -0.119 NA
ATOM     24  C   UNL d   1      13.961  12.477  -1.800  0.00  0.00     0.296 C 
ATOM     25  O   UNL d   1      14.082  11.782  -2.226  0.00  0.00    -0.264 OA
BRANCH  24  26
ATOM     26  C   UNL d   1      14.063  12.487  -0.982  0.00  0.00     0.064 C 
BRANCH  26  27
ATOM     27  C   UNL d   1      14.769  12.753  -0.664  0.00  0.00     0.005 A 
ATOM     28  C   UNL d   1      14.812  13.517  -0.376  0.00  0.00     0.000 A 
ATOM     29  C   UNL d   1      15.525  13.786  -0.055  0.00  0.00     0.000 A 
ATOM     30  C   UNL d   1      16.176  13.291  -0.028  0.00  0.00     0.000 A 
ATOM     31  C   UNL d   1      16.116  12.525  -0.321  0.00  0.00     0.000 A 
ATOM     32  C   UNL d   1      15.419  12.262  -0.635  0.00  0.00     0.000 A 
ENDBRANCH  26  27
ENDBRANCH  24  26
ENDBRANCH   1  23
TORSDOF 8
ENDMDL
MODEL 2
REMARK VINA RESULT:      60.0      1.370      4.791
REMARK  8 active torsions:
REMARK  status: ('A' for Active; 'I' for Inactive)
REMARK    1  A    between atoms: N_7  and  N_1 
REMARK    2  A    between atoms: S_9  and  C_2 
REMARK       I    between atoms: C_8  and  N_7 
REMARK    3  A    between atoms: C_21  and  C_8 
REMARK    4  A    between atoms: C_20  and  S_9 
REMARK    5  A    between atoms: C_10  and  C_20 
REMARK       I    between atoms: N_14  and  C_10 
REMARK    6  A    between atoms: C_12  and  C_22 
REMARK    7  A    between atoms: C_22  and  N_14 
REMARK    8  A    between atoms: C_24  and  C_21 
ROOT
ATOM      1  N   UNL d   1      14.290  15.343  -3.325  0.00  0.00    -0.168 N 
ATOM      2  C   UNL d   1      14.533  15.787  -2.683  0.00  0.00     0.199 A 
ATOM      3  C   UNL d   1      14.394  15.637  -4.102  0.00  0.00     0.283 A 
ATOM      4  N   UNL d   1      14.889  16.541  -2.797  0.00  0.00    -0.221 NA
ATOM      5  C   UNL d   1      14.750  16.393  -4.210  0.00  0.00     0.076 A 
ATOM      6  C   UNL d   1      14.993  16.835  -3.556  0.00  0.00     0.088 A 
ATOM      7  O   UNL d   1      14.148  15.189  -4.750  0.00  0.00    -0.265 OA
ATOM      8  C   UNL d   1      14.851  16.679  -4.980  0.00  0.00     0.006 A 
ATOM      9  C   UNL d   1      15.342  17.576  -3.685  0.00  0.00     0.019 A 
ATOM     10  C   UNL d   1      15.199  17.418  -5.090  0.00  0.00     0.000 A 
ATOM     11  C   UNL d   1      15.445  17.867  -4.442  0.00  0.00     0.002 A 
ENDROOT
BRANCH   2  12
ATOM     12  S   UNL d   1      14.435  15.508  -1.931  0.00  0.00    -0.043 SA
BRANCH  12  13
ATOM     13  C   UNL d   1      15.008  15.648  -1.357  0.00  0.00     0.101 C 
BRANCH  13  14
ATOM     14  C   UNL d   1      15.280  15.028  -0.886  0.00  0.00     0.286 C 
ATOM     15  N   UNL d   1      14.932  14.286  -0.940  0.00  0.00    -0.204 NA
ATOM     16  O   UNL d   1      15.906  15.153  -0.356  0.00  0.00    -0.265 OA
BRANCH  15  17
ATOM     17  C   UNL d   1      15.211  13.670  -0.465  0.00  0.00     0.127 C 
BRANCH  17  18
ATOM     18  C   UNL d   1      14.709  13.026  -0.303  0.00  0.00     0.119 A 
ATOM     19  O   UNL d   1      14.929  12.238  -0.273  0.00  0.00    -0.304 OA
ATOM     20  C   UNL d   1      14.257  11.791  -0.096  0.00  0.00     0.123 A 
ATOM     21  C   UNL d   1      13.617  12.310  -0.016  0.00  0.00     0.029 A 
ATOM     22  C   UNL d   1      13.899  13.079  -0.145  0.00  0.00     0.028 A 
ENDBRANCH  17  18
ENDBRANCH  15  17
ENDBRANCH  13  14
ENDBRANCH  12  13
ENDBRANCH   2  12
BRANCH   1  23
ATOM     23  N   UNL d   1      13.947  14.617  -3.219  0.00  0.00    -0.119 NA
ATOM     24  C   UNL d   1      13.207  14.454  -3.556  0.00  0.00     0.296 C 
ATOM     25  O   UNL d   1      12.825  15.034  -3.999  0.00  0.00    -0.264 OA
BRANCH  24  26
ATOM     26  C   UNL d   1      12.858  13.715  -3.448  0.00  0.00     0.064 C 
BRANCH  26  27
ATOM     27  C   UNL d   1      12.976  13.125  -4.004  0.00  0.00     0.005 A 
ATOM     28  C   UNL d   1      12.930  13.311  -4.798  0.00  0.00     0.000 A 
ATOM     29  C   UNL d   1      13.050  12.716  -5.359  0.00  0.00     0.000 A 
ATOM     30  C   UNL d   1      13.212  11.950  -5.117  0.00  0.00     0.000 A 
ATOM     31  C   UNL d   1      13.255  11.779  -4.314  0.00  0.00     0.000 A 
ATOM     32  C   UNL d   1      13.138  12.362  -3.765  0.00  0.00     0.000 A 
ENDBRANCH  26  27
ENDBRANCH  24  26
ENDBRANCH   1  23
TORSDOF 8
ENDMDL
MODEL 3
REMARK VINA RESULT:      60.0      1.006      3.576
REMARK  8 active torsions:
REMARK  status: ('A' for Active; 'I' for Inactive)
REMARK    1  A    between atoms: N_7  and  N_1 
REMARK    2  A    between atoms: S_9  and  C_2 
REMARK       I    between atoms: C_8  and  N_7 
REMARK    3  A    between atoms: C_21  and  C_8 
REMARK    4  A    between atoms: C_20  and  S_9 
REMARK    5  A    between atoms: C_10  and  C_20 
REMARK       I    between atoms: N_14  and  C_10 
REMARK    6  A    between atoms: C_12  and  C_22 
REMARK    7  A    between atoms: C_22  and  N_14 
REMARK    8  A    between atoms: C_24  and  C_21 
ROOT
ATOM      1  N   UNL d   1      14.099  13.643  -2.079  0.00  0.00    -0.168 N 
ATOM      2  C   UNL d   1      14.499  14.266  -1.730  0.00  0.00     0.199 A 
ATOM      3  C   UNL d   1      14.244  12.858  -1.826  0.00  0.00     0.283 A 
ATOM      4  N   UNL d   1      15.057  14.124  -1.118  0.00  0.00    -0.221 NA
ATOM      5  C   UNL d   1      14.805  12.722  -1.213  0.00  0.00     0.076 A 
ATOM      6  C   UNL d   1      15.204  13.356  -0.866  0.00  0.00     0.088 A 
ATOM      7  O   UNL d   1      13.840  12.229  -2.178  0.00  0.00    -0.265 OA
ATOM      8  C   UNL d   1      14.945  11.944  -0.967  0.00  0.00     0.006 A 
ATOM      9  C   UNL d   1      15.752  13.200  -0.264  0.00  0.00     0.019 A 
ATOM     10  C   UNL d   1      15.493  11.806  -0.366  0.00  0.00     0.000 A 
ATOM     11  C   UNL d   1      15.897  12.435  -0.014  0.00  0.00     0.002 A 
ENDROOT
BRANCH   2  12
ATOM     12  S   UNL d   1      14.362  15.025  -1.970  0.00  0.00    -0.043 SA
BRANCH  12  13
ATOM     13  C   UNL d   1      14.722  15.656  -1.583  0.00  0.00     0.101 C 
BRANCH  13  14
ATOM     14  C   UNL d   1      15.016  16.293  -2.016  0.00  0.00     0.286 C 
ATOM     15  N   UNL d   1      14.918  16.316  -2.832  0.00  0.00    -0.204 NA
ATOM     16  O   UNL d   1      15.410  16.912  -1.630  0.00  0.00    -0.265 OA
BRANCH  15  17
ATOM     17  C   UNL d   1      15.215  16.957  -3.260  0.00  0.00     0.127 C 
BRANCH  17  18
ATOM     18  C   UNL d   1      15.430  16.847  -4.056  0.00  0.00     0.119 A 
ATOM     19  O   UNL d   1      16.184  16.917  -4.368  0.00  0.00    -0.304 OA
ATOM     20  C   UNL d   1      16.142  16.761  -5.178  0.00  0.00     0.123 A 
ATOM     21  C   UNL d   1      15.353  16.593  -5.367  0.00  0.00     0.029 A 
ATOM     22  C   UNL d   1      14.910  16.647  -4.668  0.00  0.00     0.028 A 
ENDBRANCH  17  18
ENDBRANCH  15  17
ENDBRANCH  13  14
ENDBRANCH  12  13
ENDBRANCH   2  12
BRANCH   1  23
ATOM     23  N   UNL d   1      13.560  13.777  -2.669  0.00  0.00    -0.119 NA
ATOM     24  C   UNL d   1      13.446  13.208  -3.262  0.00  0.00     0.296 C 
ATOM     25  O   UNL d   1      13.883  12.510  -3.247  0.00  0.00    -0.264 OA
BRANCH  24  26
ATOM     26  C   UNL d   1      12.897  13.344  -3.863  0.00  0.00     0.064 C 
BRANCH  26  27
ATOM     27  C   UNL d   1      12.983  12.964  -4.584  0.00  0.00     0.005 A 
ATOM     28  C   UNL d   1      12.823  12.163  -4.633  0.00  0.00     0.000 A 
ATOM     29  C   UNL d   1      12.909  11.780  -5.359  0.00  0.00     0.000 A 
ATOM     30  C   UNL d   1      13.151  12.200  -6.020  0.00  0.00     0.000 A 
ATOM     31  C   UNL d   1      13.308  13.004  -5.954  0.00  0.00     0.000 A 
ATOM     32  C   UNL d   1      13.224  13.379  -5.242  0.00  0.00     0.000 A 
ENDBRANCH  26  27
ENDBRANCH  24  26
ENDBRANCH   1  23
TORSDOF 8
ENDMDL
