MODEL 1
REMARK VINA RESULT:      59.9      0.000      0.000
REMARK  5 active torsions:
REMARK  status: ('A' for Active; 'I' for Inactive)
REMARK    1  A    between atoms: C_4  and  S_1 
REMARK    2  A    between atoms: N_5  and  S_1 
REMARK    3  A    between atoms: C_2  and  C_9 
REMARK       I    between atoms: N_3  and  C_2 
REMARK    4  A    between atoms: C_14  and  N_5 
REMARK    5  A    between atoms: C_15  and  C_14 
ROOT
ATOM      1  C   UNL d   1     -55.408-101.879 -38.711  0.00  0.00     0.057 A 
ATOM      2  C   UNL d   1     -54.884-101.302 -38.989  0.00  0.00     0.005 A 
ATOM      3  C   UNL d   1     -55.921-102.258 -39.233  0.00  0.00     0.005 A 
ATOM      4  C   UNL d   1     -55.386-101.487 -40.314  0.00  0.00     0.020 A 
ATOM      5  C   UNL d   1     -54.874-101.107 -39.793  0.00  0.00     0.002 A 
ATOM      6  C   UNL d   1     -55.909-102.060 -40.041  0.00  0.00     0.002 A 
ENDROOT
BRANCH   4   7
ATOM      7  C   UNL d   1     -55.380-101.294 -41.121  0.00  0.00     0.112 C 
BRANCH   7   8
ATOM      8  N   UNL d   1     -54.749-101.547 -41.592  0.00  0.00    -0.157 NA
BRANCH   8   9
ATOM      9  S   UNL d   1     -54.758-101.393 -42.414  0.00  0.00     0.285 S 
ATOM     10  O   UNL d   1     -54.774-100.576 -42.259  0.00  0.00    -0.198 OA
ATOM     11  O   UNL d   1     -54.741-102.210 -42.564  0.00  0.00    -0.198 OA
BRANCH   9  12
ATOM     12  C   UNL d   1     -54.766-101.239 -43.231  0.00  0.00     0.106 A 
ATOM     13  C   UNL d   1     -54.817-100.459 -43.498  0.00  0.00     0.024 A 
ATOM     14  C   UNL d   1     -54.826-100.299 -44.309  0.00  0.00     0.059 A 
ATOM     15 CL   UNL d   1     -54.877 -99.521 -44.583  0.00  0.00    -0.082 Cl
ATOM     16  C   UNL d   1     -54.784-100.922 -44.847  0.00  0.00     0.011 A 
ATOM     17  C   UNL d   1     -54.734-101.699 -44.578  0.00  0.00     0.002 A 
ATOM     18  C   UNL d   1     -54.725-101.853 -43.770  0.00  0.00     0.013 A 
ENDBRANCH   9  12
ENDBRANCH   8   9
ENDBRANCH   7   8
ENDBRANCH   4   7
BRANCH   1  19
ATOM     19  C   UNL d   1     -55.422-102.080 -37.895  0.00  0.00     0.265 C 
ATOM     20  N   UNL d   1     -55.188-101.520 -37.329  0.00  0.00    -0.272 N 
ATOM     21  C   UNL d   1     -54.944-100.770 -37.565  0.00  0.00     0.083 A 
ATOM     22  C   UNL d   1     -55.201-101.717 -36.526  0.00  0.00     0.083 A 
ATOM     23  C   UNL d   1     -54.715-100.221 -37.003  0.00  0.00     0.019 A 
ATOM     24  C   UNL d   1     -54.728-100.418 -36.209  0.00  0.00     0.003 A 
ATOM     25  C   UNL d   1     -54.968-101.160 -35.961  0.00  0.00     0.019 A 
ATOM     26  O   UNL d   1     -55.670-102.842 -37.657  0.00  0.00    -0.267 OA
ENDBRANCH   1  19
TORSDOF 5
ENDMDL
