MODEL 1
REMARK VINA RESULT:      -8.2      0.000      0.000
REMARK  6 active torsions:
REMARK  status: ('A' for Active; 'I' for Inactive)
REMARK    1  A    between atoms: C_7  and  C_1 
REMARK    2  A    between atoms: C_10  and  C_2 
REMARK    3  A    between atoms: C_9  and  C_5 
REMARK    4  A    between atoms: O_15  and  C_7 
REMARK    5  A    between atoms: N_14  and  C_9 
REMARK    6  A    between atoms: C_21  and  O_15 
ROOT
ATOM      1  C   UNL d   1      53.229  32.567  53.840  0.00  0.00     0.088 A 
ATOM      2  C   UNL d   1      53.544  31.814  53.954  0.00  0.00     0.105 A 
ATOM      3  C   UNL d   1      53.623  33.075  54.337  0.00  0.00     0.034 A 
ATOM      4  O   UNL d   1      54.127  31.887  54.524  0.00  0.00    -0.307 OA
ATOM      5  C   UNL d   1      53.549  33.892  54.467  0.00  0.00     0.059 A 
ATOM      6  C   UNL d   1      54.181  32.671  54.767  0.00  0.00     0.100 A 
ATOM      7  C   UNL d   1      54.015  34.279  55.003  0.00  0.00     0.197 A 
ATOM      8  C   UNL d   1      54.660  33.040  55.310  0.00  0.00     0.028 A 
ATOM      9  C   UNL d   1      54.585  33.853  55.438  0.00  0.00     0.044 A 
ATOM     10  O   UNL d   1      53.939  35.097  55.131  0.00  0.00    -0.286 OA
ENDROOT
BRANCH   2  11
ATOM     11  C   UNL d   1      53.310  31.129  53.566  0.00  0.00     0.023 A 
ATOM     12  C   UNL d   1      52.814  30.585  53.956  0.00  0.00     0.002 A 
ATOM     13  C   UNL d   1      52.570  29.886  53.572  0.00  0.00     0.000 A 
ATOM     14  C   UNL d   1      52.831  29.749  52.799  0.00  0.00     0.000 A 
ATOM     15  C   UNL d   1      53.320  30.286  52.416  0.00  0.00     0.000 A 
ATOM     16  C   UNL d   1      53.558  30.973  52.798  0.00  0.00     0.002 A 
ENDBRANCH   2  11
BRANCH   1  17
ATOM     17  C   UNL d   1      52.665  32.386  53.263  0.00  0.00     0.302 C 
ATOM     18  O   UNL d   1      52.907  32.214  52.493  0.00  0.00    -0.259 OA
BRANCH  17  19
ATOM     19  O   UNL d   1      51.866  32.374  53.443  0.00  0.00    -0.271 OA
BRANCH  19  20
ATOM     20  C   UNL d   1      51.309  32.703  52.937  0.00  0.00     0.126 C 
ATOM     21  C   UNL d   1      50.530  32.842  53.186  0.00  0.00     0.029 C 
ENDBRANCH  19  20
ENDBRANCH  17  19
ENDBRANCH   1  17
BRANCH   5  22
ATOM     22  C   UNL d   1      52.986  34.326  54.041  0.00  0.00     0.084 C 
BRANCH  22  23
ATOM     23  N   UNL d   1      53.058  35.144  53.955  0.00  0.00    -0.300 N 
ATOM     24  C   UNL d   1      52.640  35.636  54.460  0.00  0.00     0.100 C 
ATOM     25  C   UNL d   1      53.537  35.462  53.381  0.00  0.00     0.100 C 
ENDBRANCH  22  23
ENDBRANCH   5  22
TORSDOF 6
ENDMDL
MODEL 2
REMARK VINA RESULT:      -7.9      1.046      2.380
REMARK  6 active torsions:
REMARK  status: ('A' for Active; 'I' for Inactive)
REMARK    1  A    between atoms: C_7  and  C_1 
REMARK    2  A    between atoms: C_10  and  C_2 
REMARK    3  A    between atoms: C_9  and  C_5 
REMARK    4  A    between atoms: O_15  and  C_7 
REMARK    5  A    between atoms: N_14  and  C_9 
REMARK    6  A    between atoms: C_21  and  O_15 
ROOT
ATOM      1  C   UNL d   1      52.847  32.697  53.538  0.00  0.00     0.088 A 
ATOM      2  C   UNL d   1      52.480  31.995  53.306  0.00  0.00     0.105 A 
ATOM      3  C   UNL d   1      52.315  33.301  53.425  0.00  0.00     0.034 A 
ATOM      4  O   UNL d   1      51.727  32.196  53.056  0.00  0.00    -0.307 OA
ATOM      5  C   UNL d   1      52.368  34.118  53.558  0.00  0.00     0.059 A 
ATOM      6  C   UNL d   1      51.618  33.008  53.128  0.00  0.00     0.100 A 
ATOM      7  C   UNL d   1      51.749  34.614  53.398  0.00  0.00     0.197 A 
ATOM      8  C   UNL d   1      50.984  33.489  52.960  0.00  0.00     0.028 A 
ATOM      9  C   UNL d   1      51.039  34.303  53.093  0.00  0.00     0.044 A 
ATOM     10  O   UNL d   1      51.806  35.433  53.532  0.00  0.00    -0.286 OA
ENDROOT
BRANCH   2  11
ATOM     11  C   UNL d   1      52.815  31.246  53.326  0.00  0.00     0.023 A 
ATOM     12  C   UNL d   1      53.086  30.899  52.619  0.00  0.00     0.002 A 
ATOM     13  C   UNL d   1      53.428  30.138  52.627  0.00  0.00     0.000 A 
ATOM     14  C   UNL d   1      53.491  29.741  53.350  0.00  0.00     0.000 A 
ATOM     15  C   UNL d   1      53.224  30.085  54.045  0.00  0.00     0.000 A 
ATOM     16  C   UNL d   1      52.887  30.834  54.034  0.00  0.00     0.002 A 
ENDBRANCH   2  11
BRANCH   1  17
ATOM     17  C   UNL d   1      53.580  32.390  53.766  0.00  0.00     0.302 C 
ATOM     18  O   UNL d   1      53.648  31.972  54.474  0.00  0.00    -0.259 OA
BRANCH  17  19
ATOM     19  O   UNL d   1      54.245  32.495  53.299  0.00  0.00    -0.271 OA
BRANCH  19  20
ATOM     20  C   UNL d   1      54.966  32.714  53.624  0.00  0.00     0.126 C 
ATOM     21  C   UNL d   1      55.602  32.946  53.144  0.00  0.00     0.029 C 
ENDBRANCH  19  20
ENDBRANCH  17  19
ENDBRANCH   1  17
BRANCH   5  22
ATOM     22  C   UNL d   1      53.069  34.440  53.861  0.00  0.00     0.084 C 
BRANCH  22  23
ATOM     23  N   UNL d   1      53.052  35.095  54.363  0.00  0.00    -0.300 N 
ATOM     24  C   UNL d   1      53.299  35.822  54.077  0.00  0.00     0.100 C 
ATOM     25  C   UNL d   1      52.794  35.025  55.130  0.00  0.00     0.100 C 
ENDBRANCH  22  23
ENDBRANCH   5  22
TORSDOF 6
ENDMDL
MODEL 3
REMARK VINA RESULT:      -7.7      1.369      3.340
REMARK  6 active torsions:
REMARK  status: ('A' for Active; 'I' for Inactive)
REMARK    1  A    between atoms: C_7  and  C_1 
REMARK    2  A    between atoms: C_10  and  C_2 
REMARK    3  A    between atoms: C_9  and  C_5 
REMARK    4  A    between atoms: O_15  and  C_7 
REMARK    5  A    between atoms: N_14  and  C_9 
REMARK    6  A    between atoms: C_21  and  O_15 
ROOT
ATOM      1  C   UNL d   1      52.406  33.407  53.160  0.00  0.00     0.088 A 
ATOM      2  C   UNL d   1      51.674  33.187  52.852  0.00  0.00     0.105 A 
ATOM      3  C   UNL d   1      52.827  32.726  53.300  0.00  0.00     0.034 A 
ATOM      4  O   UNL d   1      51.671  32.369  52.813  0.00  0.00    -0.307 OA
ATOM      5  C   UNL d   1      53.589  32.598  53.605  0.00  0.00     0.059 A 
ATOM      6  C   UNL d   1      52.387  32.076  53.091  0.00  0.00     0.100 A 
ATOM      7  C   UNL d   1      53.890  31.852  53.692  0.00  0.00     0.197 A 
ATOM      8  C   UNL d   1      52.670  31.318  53.171  0.00  0.00     0.028 A 
ATOM      9  C   UNL d   1      53.429  31.193  53.474  0.00  0.00     0.044 A 
ATOM     10  O   UNL d   1      54.653  31.727  53.998  0.00  0.00    -0.286 OA
ENDROOT
BRANCH   2  11
ATOM     11  C   UNL d   1      51.071  33.699  52.630  0.00  0.00     0.023 A 
ATOM     12  C   UNL d   1      50.469  33.884  53.175  0.00  0.00     0.002 A 
ATOM     13  C   UNL d   1      49.851  34.402  52.962  0.00  0.00     0.000 A 
ATOM     14  C   UNL d   1      49.852  34.724  52.199  0.00  0.00     0.000 A 
ATOM     15  C   UNL d   1      50.445  34.540  51.664  0.00  0.00     0.000 A 
ATOM     16  C   UNL d   1      51.052  34.029  51.877  0.00  0.00     0.002 A 
ENDBRANCH   2  11
BRANCH   1  17
ATOM     17  C   UNL d   1      52.307  34.228  53.158  0.00  0.00     0.302 C 
ATOM     18  O   UNL d   1      52.316  34.640  52.443  0.00  0.00    -0.259 OA
BRANCH  17  19
ATOM     19  O   UNL d   1      52.199  34.642  53.857  0.00  0.00    -0.271 OA
BRANCH  19  20
ATOM     20  C   UNL d   1      52.593  35.347  54.002  0.00  0.00     0.126 C 
ATOM     21  C   UNL d   1      52.561  35.713  54.745  0.00  0.00     0.029 C 
ENDBRANCH  19  20
ENDBRANCH  17  19
ENDBRANCH   1  17
BRANCH   5  22
ATOM     22  C   UNL d   1      54.057  33.246  53.825  0.00  0.00     0.084 C 
BRANCH  22  23
ATOM     23  N   UNL d   1      54.868  33.158  53.952  0.00  0.00    -0.300 N 
ATOM     24  C   UNL d   1      55.154  33.159  54.720  0.00  0.00     0.100 C 
ATOM     25  C   UNL d   1      55.380  33.072  53.327  0.00  0.00     0.100 C 
ENDBRANCH  22  23
ENDBRANCH   5  22
TORSDOF 6
ENDMDL
MODEL 4
REMARK VINA RESULT:      -7.2      1.407      3.024
REMARK  6 active torsions:
REMARK  status: ('A' for Active; 'I' for Inactive)
REMARK    1  A    between atoms: C_7  and  C_1 
REMARK    2  A    between atoms: C_10  and  C_2 
REMARK    3  A    between atoms: C_9  and  C_5 
REMARK    4  A    between atoms: O_15  and  C_7 
REMARK    5  A    between atoms: N_14  and  C_9 
REMARK    6  A    between atoms: C_21  and  O_15 
ROOT
ATOM      1  C   UNL d   1      52.334  33.981  53.402  0.00  0.00     0.088 A 
ATOM      2  C   UNL d   1      51.750  34.516  53.175  0.00  0.00     0.105 A 
ATOM      3  C   UNL d   1      52.796  34.345  53.964  0.00  0.00     0.034 A 
ATOM      4  O   UNL d   1      51.875  35.198  53.610  0.00  0.00    -0.307 OA
ATOM      5  C   UNL d   1      53.458  34.084  54.390  0.00  0.00     0.059 A 
ATOM      6  C   UNL d   1      52.525  35.098  54.104  0.00  0.00     0.100 A 
ATOM      7  C   UNL d   1      53.828  34.560  54.930  0.00  0.00     0.197 A 
ATOM      8  C   UNL d   1      52.881  35.592  54.641  0.00  0.00     0.028 A 
ATOM      9  C   UNL d   1      53.541  35.331  55.065  0.00  0.00     0.044 A 
ATOM     10  O   UNL d   1      54.492  34.296  55.355  0.00  0.00    -0.286 OA
ENDROOT
BRANCH   2  11
ATOM     11  C   UNL d   1      51.161  34.381  52.618  0.00  0.00     0.023 A 
ATOM     12  C   UNL d   1      50.382  34.236  52.873  0.00  0.00     0.002 A 
ATOM     13  C   UNL d   1      49.775  34.098  52.317  0.00  0.00     0.000 A 
ATOM     14  C   UNL d   1      49.967  34.108  51.512  0.00  0.00     0.000 A 
ATOM     15  C   UNL d   1      50.736  34.251  51.264  0.00  0.00     0.000 A 
ATOM     16  C   UNL d   1      51.331  34.387  51.814  0.00  0.00     0.002 A 
ENDBRANCH   2  11
BRANCH   1  17
ATOM     17  C   UNL d   1      52.123  33.345  52.917  0.00  0.00     0.302 C 
ATOM     18  O   UNL d   1      52.266  33.383  52.105  0.00  0.00    -0.259 OA
BRANCH  17  19
ATOM     19  O   UNL d   1      51.772  32.674  53.230  0.00  0.00    -0.271 OA
BRANCH  19  20
ATOM     20  C   UNL d   1      51.984  31.922  52.978  0.00  0.00     0.126 C 
ATOM     21  C   UNL d   1      51.683  31.243  53.346  0.00  0.00     0.029 C 
ENDBRANCH  19  20
ENDBRANCH  17  19
ENDBRANCH   1  17
BRANCH   5  22
ATOM     22  C   UNL d   1      53.753  33.319  54.264  0.00  0.00     0.084 C 
BRANCH  22  23
ATOM     23  N   UNL d   1      54.476  33.086  54.587  0.00  0.00    -0.300 N 
ATOM     24  C   UNL d   1      54.488  32.739  55.329  0.00  0.00     0.100 C 
ATOM     25  C   UNL d   1      55.169  33.197  54.178  0.00  0.00     0.100 C 
ENDBRANCH  22  23
ENDBRANCH   5  22
TORSDOF 6
ENDMDL
MODEL 5
REMARK VINA RESULT:      -6.5      1.319      3.310
REMARK  6 active torsions:
REMARK  status: ('A' for Active; 'I' for Inactive)
REMARK    1  A    between atoms: C_7  and  C_1 
REMARK    2  A    between atoms: C_10  and  C_2 
REMARK    3  A    between atoms: C_9  and  C_5 
REMARK    4  A    between atoms: O_15  and  C_7 
REMARK    5  A    between atoms: N_14  and  C_9 
REMARK    6  A    between atoms: C_21  and  O_15 
ROOT
ATOM      1  C   UNL d   1      52.910  33.562  53.790  0.00  0.00     0.088 A 
ATOM      2  C   UNL d   1      53.496  33.056  54.073  0.00  0.00     0.105 A 
ATOM      3  C   UNL d   1      52.293  33.102  53.529  0.00  0.00     0.034 A 
ATOM      4  O   UNL d   1      53.213  32.293  53.976  0.00  0.00    -0.307 OA
ATOM      5  C   UNL d   1      51.560  33.297  53.191  0.00  0.00     0.059 A 
ATOM      6  C   UNL d   1      52.464  32.316  53.637  0.00  0.00     0.100 A 
ATOM      7  C   UNL d   1      51.029  32.727  52.974  0.00  0.00     0.197 A 
ATOM      8  C   UNL d   1      51.945  31.727  53.426  0.00  0.00     0.028 A 
ATOM      9  C   UNL d   1      51.216  31.923  53.090  0.00  0.00     0.044 A 
ATOM     10  O   UNL d   1      50.296  32.926  52.636  0.00  0.00    -0.286 OA
ENDROOT
BRANCH   2  11
ATOM     11  C   UNL d   1      54.218  33.283  54.390  0.00  0.00     0.023 A 
ATOM     12  C   UNL d   1      54.299  33.356  55.216  0.00  0.00     0.002 A 
ATOM     13  C   UNL d   1      55.028  33.586  55.550  0.00  0.00     0.000 A 
ATOM     14  C   UNL d   1      55.664  33.739  55.043  0.00  0.00     0.000 A 
ATOM     15  C   UNL d   1      55.582  33.666  54.230  0.00  0.00     0.000 A 
ATOM     16  C   UNL d   1      54.863  33.439  53.905  0.00  0.00     0.002 A 
ENDBRANCH   2  11
BRANCH   1  17
ATOM     17  C   UNL d   1      53.285  34.286  53.931  0.00  0.00     0.302 C 
ATOM     18  O   UNL d   1      53.912  34.523  53.450  0.00  0.00    -0.259 OA
BRANCH  17  19
ATOM     19  O   UNL d   1      53.043  34.774  54.543  0.00  0.00    -0.271 OA
BRANCH  19  20
ATOM     20  C   UNL d   1      53.003  35.589  54.450  0.00  0.00     0.126 C 
ATOM     21  C   UNL d   1      52.733  36.079  55.062  0.00  0.00     0.029 C 
ENDBRANCH  19  20
ENDBRANCH  17  19
ENDBRANCH   1  17
BRANCH   5  22
ATOM     22  C   UNL d   1      51.363  34.094  53.071  0.00  0.00     0.084 C 
BRANCH  22  23
ATOM     23  N   UNL d   1      50.821  34.312  52.487  0.00  0.00    -0.300 N 
ATOM     24  C   UNL d   1      50.068  34.545  52.710  0.00  0.00     0.100 C 
ATOM     25  C   UNL d   1      51.027  34.296  51.702  0.00  0.00     0.100 C 
ENDBRANCH  22  23
ENDBRANCH   5  22
TORSDOF 6
ENDMDL
MODEL 6
REMARK VINA RESULT:      -5.6      1.375      4.201
REMARK  6 active torsions:
REMARK  status: ('A' for Active; 'I' for Inactive)
REMARK    1  A    between atoms: C_7  and  C_1 
REMARK    2  A    between atoms: C_10  and  C_2 
REMARK    3  A    between atoms: C_9  and  C_5 
REMARK    4  A    between atoms: O_15  and  C_7 
REMARK    5  A    between atoms: N_14  and  C_9 
REMARK    6  A    between atoms: C_21  and  O_15 
ROOT
ATOM      1  C   UNL d   1      53.159  33.141  53.928  0.00  0.00     0.088 A 
ATOM      2  C   UNL d   1      52.726  33.828  53.783  0.00  0.00     0.105 A 
ATOM      3  C   UNL d   1      52.820  32.541  53.497  0.00  0.00     0.034 A 
ATOM      4  O   UNL d   1      52.129  33.622  53.262  0.00  0.00    -0.307 OA
ATOM      5  C   UNL d   1      53.011  31.737  53.421  0.00  0.00     0.059 A 
ATOM      6  C   UNL d   1      52.183  32.822  53.079  0.00  0.00     0.100 A 
ATOM      7  C   UNL d   1      52.580  31.243  52.947  0.00  0.00     0.197 A 
ATOM      8  C   UNL d   1      51.736  32.343  52.598  0.00  0.00     0.028 A 
ATOM      9  C   UNL d   1      51.928  31.542  52.524  0.00  0.00     0.044 A 
ATOM     10  O   UNL d   1      52.774  30.438  52.873  0.00  0.00    -0.286 OA
ENDROOT
BRANCH   2  11
ATOM     11  C   UNL d   1      52.873  34.568  54.105  0.00  0.00     0.023 A 
ATOM     12  C   UNL d   1      53.256  35.147  53.644  0.00  0.00     0.002 A 
ATOM     13  C   UNL d   1      53.411  35.903  53.960  0.00  0.00     0.000 A 
ATOM     14  C   UNL d   1      53.177  36.062  54.737  0.00  0.00     0.000 A 
ATOM     15  C   UNL d   1      52.801  35.490  55.190  0.00  0.00     0.000 A 
ATOM     16  C   UNL d   1      52.649  34.747  54.876  0.00  0.00     0.002 A 
ENDBRANCH   2  11
BRANCH   1  17
ATOM     17  C   UNL d   1      53.721  33.450  54.451  0.00  0.00     0.302 C 
ATOM     18  O   UNL d   1      53.508  33.612  55.232  0.00  0.00    -0.259 OA
BRANCH  17  19
ATOM     19  O   UNL d   1      54.488  33.600  54.206  0.00  0.00    -0.271 OA
BRANCH  19  20
ATOM     20  C   UNL d   1      55.130  33.452  54.696  0.00  0.00     0.126 C 
ATOM     21  C   UNL d   1      55.900  33.665  54.473  0.00  0.00     0.029 C 
ENDBRANCH  19  20
ENDBRANCH  17  19
ENDBRANCH   1  17
BRANCH   5  22
ATOM     22  C   UNL d   1      53.658  31.428  53.837  0.00  0.00     0.084 C 
BRANCH  22  23
ATOM     23  N   UNL d   1      53.719  30.617  53.983  0.00  0.00    -0.300 N 
ATOM     24  C   UNL d   1      54.201  30.161  53.502  0.00  0.00     0.100 C 
ATOM     25  C   UNL d   1      53.308  30.273  54.593  0.00  0.00     0.100 C 
ENDBRANCH  22  23
ENDBRANCH   5  22
TORSDOF 6
ENDMDL
