MODEL 1
REMARK VINA RESULT:      -8.3      0.000      0.000
REMARK  4 active torsions:
REMARK  status: ('A' for Active; 'I' for Inactive)
REMARK    1  A    between atoms: S_18  and  C_6 
REMARK    2  A    between atoms: C_8  and  N_12 
REMARK       I    between atoms: N_12  and  C_16 
REMARK    3  A    between atoms: C_16  and  C_21 
REMARK    4  A    between atoms: C_21  and  S_18 
ROOT
ATOM      1  N   UNL d   1     -49.369  13.969  22.218  0.00  0.00    -0.242 N 
ATOM      2  C   UNL d   1     -48.921  14.265  22.840  0.00  0.00     0.153 A 
ATOM      3  C   UNL d   1     -49.079  13.342  21.766  0.00  0.00     0.357 A 
ATOM      4  N   UNL d   1     -48.184  13.938  23.013  0.00  0.00    -0.203 NA
ATOM      5  N   UNL d   1     -48.342  13.014  21.940  0.00  0.00    -0.167 NA
ATOM      6  C   UNL d   1     -47.895  13.314  22.565  0.00  0.00     0.200 A 
ATOM      7  C   UNL d   1     -50.105  14.297  22.045  0.00  0.00     0.086 A 
ATOM      8  C   UNL d   1     -49.211  14.893  23.292  0.00  0.00     0.038 A 
ATOM      9  C   UNL d   1     -50.395  14.921  22.493  0.00  0.00     0.019 A 
ATOM     10  C   UNL d   1     -49.947  15.220  23.119  0.00  0.00     0.004 A 
ATOM     11  O   UNL d   1     -49.529  13.034  21.131  0.00  0.00    -0.244 OA
ATOM     12  C   UNL d   1     -50.236  15.850  23.573  0.00  0.00     0.000 C 
ENDROOT
BRANCH   6  13
ATOM     13  S   UNL d   1     -47.158  12.986  22.739  0.00  0.00    -0.043 SA
BRANCH  13  14
ATOM     14  C   UNL d   1     -46.472  13.434  22.632  0.00  0.00     0.101 C 
BRANCH  14  15
ATOM     15  C   UNL d   1     -45.744  13.058  22.598  0.00  0.00     0.287 C 
ATOM     16  N   UNL d   1     -45.224  13.231  21.981  0.00  0.00    -0.186 NA
ATOM     17  O   UNL d   1     -45.530  12.511  23.173  0.00  0.00    -0.265 OA
BRANCH  16  18
ATOM     18  C   UNL d   1     -44.490  12.855  21.943  0.00  0.00     0.194 A 
ATOM     19  N   UNL d   1     -44.195  12.170  22.299  0.00  0.00    -0.107 NA
ATOM     20  O   UNL d   1     -43.420  12.067  22.055  0.00  0.00    -0.210 OA
ATOM     21  C   UNL d   1     -43.226  12.677  21.550  0.00  0.00     0.128 A 
ATOM     22  C   UNL d   1     -43.890  13.169  21.479  0.00  0.00     0.068 A 
ATOM     23  C   UNL d   1     -42.485  12.775  21.180  0.00  0.00     0.029 C 
ENDBRANCH  16  18
ENDBRANCH  14  15
ENDBRANCH  13  14
ENDBRANCH   6  13
TORSDOF 4
ENDMDL
MODEL 2
REMARK VINA RESULT:      -5.7      1.778      1.918
REMARK  4 active torsions:
REMARK  status: ('A' for Active; 'I' for Inactive)
REMARK    1  A    between atoms: S_18  and  C_6 
REMARK    2  A    between atoms: C_8  and  N_12 
REMARK       I    between atoms: N_12  and  C_16 
REMARK    3  A    between atoms: C_16  and  C_21 
REMARK    4  A    between atoms: C_21  and  S_18 
ROOT
ATOM      1  N   UNL d   1     -49.853  13.432  23.325  0.00  0.00    -0.242 N 
ATOM      2  C   UNL d   1     -49.222  13.951  23.241  0.00  0.00     0.153 A 
ATOM      3  C   UNL d   1     -49.726  12.619  23.261  0.00  0.00     0.357 A 
ATOM      4  N   UNL d   1     -48.463  13.662  23.094  0.00  0.00    -0.203 NA
ATOM      5  N   UNL d   1     -48.968  12.330  23.114  0.00  0.00    -0.167 NA
ATOM      6  C   UNL d   1     -48.336  12.854  23.031  0.00  0.00     0.200 A 
ATOM      7  C   UNL d   1     -50.611  13.721  23.472  0.00  0.00     0.086 A 
ATOM      8  C   UNL d   1     -49.349  14.765  23.304  0.00  0.00     0.038 A 
ATOM      9  C   UNL d   1     -50.739  14.530  23.535  0.00  0.00     0.019 A 
ATOM     10  C   UNL d   1     -50.106  15.054  23.451  0.00  0.00     0.004 A 
ATOM     11  O   UNL d   1     -50.364  12.083  23.345  0.00  0.00    -0.244 OA
ATOM     12  C   UNL d   1     -50.232  15.871  23.515  0.00  0.00     0.000 C 
ENDROOT
BRANCH   6  13
ATOM     13  S   UNL d   1     -47.577  12.565  22.884  0.00  0.00    -0.043 SA
BRANCH  13  14
ATOM     14  C   UNL d   1     -47.033  12.502  23.501  0.00  0.00     0.101 C 
BRANCH  14  15
ATOM     15  C   UNL d   1     -46.287  12.196  23.354  0.00  0.00     0.287 C 
ATOM     16  N   UNL d   1     -46.064  11.480  23.698  0.00  0.00    -0.186 NA
ATOM     17  O   UNL d   1     -45.760  12.597  22.868  0.00  0.00    -0.265 OA
BRANCH  16  18
ATOM     18  C   UNL d   1     -45.314  11.168  23.553  0.00  0.00     0.194 A 
ATOM     19  N   UNL d   1     -44.615  11.506  23.268  0.00  0.00    -0.107 NA
ATOM     20  O   UNL d   1     -44.041  10.923  23.239  0.00  0.00    -0.210 OA
ATOM     21  C   UNL d   1     -44.370  10.225  23.502  0.00  0.00     0.128 A 
ATOM     22  C   UNL d   1     -45.162  10.375  23.698  0.00  0.00     0.068 A 
ATOM     23  C   UNL d   1     -43.967   9.496  23.558  0.00  0.00     0.029 C 
ENDBRANCH  16  18
ENDBRANCH  14  15
ENDBRANCH  13  14
ENDBRANCH   6  13
TORSDOF 4
ENDMDL
MODEL 3
REMARK VINA RESULT:      -5.5      3.048      7.069
REMARK  4 active torsions:
REMARK  status: ('A' for Active; 'I' for Inactive)
REMARK    1  A    between atoms: S_18  and  C_6 
REMARK    2  A    between atoms: C_8  and  N_12 
REMARK       I    between atoms: N_12  and  C_16 
REMARK    3  A    between atoms: C_16  and  C_21 
REMARK    4  A    between atoms: C_21  and  S_18 
ROOT
ATOM      1  N   UNL d   1     -40.637  14.948  19.950  0.00  0.00    -0.242 N 
ATOM      2  C   UNL d   1     -40.881  14.252  19.588  0.00  0.00     0.153 A 
ATOM      3  C   UNL d   1     -40.880  15.116  20.721  0.00  0.00     0.357 A 
ATOM      4  N   UNL d   1     -41.367  13.722  19.993  0.00  0.00    -0.203 NA
ATOM      5  N   UNL d   1     -41.366  14.587  21.126  0.00  0.00    -0.167 NA
ATOM      6  C   UNL d   1     -41.610  13.888  20.759  0.00  0.00     0.200 A 
ATOM      7  C   UNL d   1     -40.151  15.477  19.547  0.00  0.00     0.086 A 
ATOM      8  C   UNL d   1     -40.638  14.083  18.817  0.00  0.00     0.038 A 
ATOM      9  C   UNL d   1     -39.908  15.311  18.780  0.00  0.00     0.019 A 
ATOM     10  C   UNL d   1     -40.152  14.612  18.414  0.00  0.00     0.004 A 
ATOM     11  O   UNL d   1     -40.636  15.823  21.098  0.00  0.00    -0.244 OA
ATOM     12  C   UNL d   1     -39.909  14.441  17.639  0.00  0.00     0.000 C 
ENDROOT
BRANCH   6  13
ATOM     13  S   UNL d   1     -42.096  13.359  21.164  0.00  0.00    -0.043 SA
BRANCH  13  14
ATOM     14  C   UNL d   1     -42.895  13.300  20.966  0.00  0.00     0.101 C 
BRANCH  14  15
ATOM     15  C   UNL d   1     -43.414  12.929  21.481  0.00  0.00     0.287 C 
ATOM     16  N   UNL d   1     -44.161  13.254  21.614  0.00  0.00    -0.186 NA
ATOM     17  O   UNL d   1     -43.196  12.237  21.867  0.00  0.00    -0.265 OA
BRANCH  16  18
ATOM     18  C   UNL d   1     -44.686  12.885  22.131  0.00  0.00     0.194 A 
ATOM     19  N   UNL d   1     -44.633  12.194  22.581  0.00  0.00    -0.107 NA
ATOM     20  O   UNL d   1     -45.333  12.102  22.996  0.00  0.00    -0.210 OA
ATOM     21  C   UNL d   1     -45.824  12.726  22.812  0.00  0.00     0.128 A 
ATOM     22  C   UNL d   1     -45.424  13.215  22.274  0.00  0.00     0.068 A 
ATOM     23  C   UNL d   1     -46.592  12.837  23.120  0.00  0.00     0.029 C 
ENDBRANCH  16  18
ENDBRANCH  14  15
ENDBRANCH  13  14
ENDBRANCH   6  13
TORSDOF 4
ENDMDL
MODEL 4
REMARK VINA RESULT:      -5.3      2.348      3.889
REMARK  4 active torsions:
REMARK  status: ('A' for Active; 'I' for Inactive)
REMARK    1  A    between atoms: S_18  and  C_6 
REMARK    2  A    between atoms: C_8  and  N_12 
REMARK       I    between atoms: N_12  and  C_16 
REMARK    3  A    between atoms: C_16  and  C_21 
REMARK    4  A    between atoms: C_21  and  S_18 
ROOT
ATOM      1  N   UNL d   1     -45.663  12.565  22.899  0.00  0.00    -0.242 N 
ATOM      2  C   UNL d   1     -45.652  13.208  22.389  0.00  0.00     0.153 A 
ATOM      3  C   UNL d   1     -45.042  12.020  22.885  0.00  0.00     0.357 A 
ATOM      4  N   UNL d   1     -45.024  13.312  21.864  0.00  0.00    -0.203 NA
ATOM      5  N   UNL d   1     -44.414  12.124  22.361  0.00  0.00    -0.167 NA
ATOM      6  C   UNL d   1     -44.406  12.771  21.850  0.00  0.00     0.200 A 
ATOM      7  C   UNL d   1     -46.291  12.461  23.423  0.00  0.00     0.086 A 
ATOM      8  C   UNL d   1     -46.273  13.753  22.402  0.00  0.00     0.038 A 
ATOM      9  C   UNL d   1     -46.909  13.002  23.438  0.00  0.00     0.019 A 
ATOM     10  C   UNL d   1     -46.901  13.649  22.926  0.00  0.00     0.004 A 
ATOM     11  O   UNL d   1     -45.045  11.361  23.402  0.00  0.00    -0.244 OA
ATOM     12  C   UNL d   1     -47.523  14.197  22.938  0.00  0.00     0.000 C 
ENDROOT
BRANCH   6  13
ATOM     13  S   UNL d   1     -43.778  12.875  21.326  0.00  0.00    -0.043 SA
BRANCH  13  14
ATOM     14  C   UNL d   1     -43.021  13.029  21.615  0.00  0.00     0.101 C 
BRANCH  14  15
ATOM     15  C   UNL d   1     -42.428  13.259  21.097  0.00  0.00     0.287 C 
ATOM     16  N   UNL d   1     -41.875  13.824  21.334  0.00  0.00    -0.186 NA
ATOM     17  O   UNL d   1     -42.380  12.932  20.345  0.00  0.00    -0.265 OA
BRANCH  16  18
ATOM     18  C   UNL d   1     -41.277  14.059  20.817  0.00  0.00     0.194 A 
ATOM     19  N   UNL d   1     -41.235  14.094  19.992  0.00  0.00    -0.107 NA
ATOM     20  O   UNL d   1     -40.494  14.374  19.784  0.00  0.00    -0.210 OA
ATOM     21  C   UNL d   1     -40.072  14.516  20.467  0.00  0.00     0.128 A 
ATOM     22  C   UNL d   1     -40.556  14.320  21.111  0.00  0.00     0.068 A 
ATOM     23  C   UNL d   1     -39.290  14.806  20.494  0.00  0.00     0.029 C 
ENDBRANCH  16  18
ENDBRANCH  14  15
ENDBRANCH  13  14
ENDBRANCH   6  13
TORSDOF 4
ENDMDL
