MODEL 1
REMARK VINA RESULT:      75.1      0.000      0.000
REMARK  2 active torsions:
REMARK  status: ('A' for Active; 'I' for Inactive)
REMARK    1  A    between atoms: C_7  and  N_1 
REMARK    2  A    between atoms: C_9  and  C_2 
ROOT
ATOM      1  N   UNL d   1      45.398 -16.100  38.132  0.00  0.00    -0.273 N 
ATOM      2  C   UNL d   1      46.062 -15.618  38.016  0.00  0.00     0.174 A 
ATOM      3  N   UNL d   1      46.633 -15.843  38.563  0.00  0.00    -0.204 NA
ATOM      4  C   UNL d   1      45.566 -16.616  38.748  0.00  0.00     0.185 A 
ATOM      5  C   UNL d   1      46.327 -16.459  39.015  0.00  0.00     0.199 A 
ATOM      6  N   UNL d   1      45.120 -17.216  39.105  0.00  0.00    -0.224 NA
ATOM      7  N   UNL d   1      46.646 -16.896  39.636  0.00  0.00    -0.223 NA
ATOM      8  C   UNL d   1      45.439 -17.649  39.722  0.00  0.00     0.101 A 
ATOM      9  C   UNL d   1      46.198 -17.495  39.991  0.00  0.00     0.101 A 
ATOM     10  C   UNL d   1      44.995 -18.246  40.078  0.00  0.00     0.021 A 
ATOM     11  C   UNL d   1      46.520 -17.929  40.611  0.00  0.00     0.021 A 
ATOM     12  C   UNL d   1      46.079 -18.527  40.970  0.00  0.00     0.002 A 
ATOM     13  C   UNL d   1      45.310 -18.685  40.699  0.00  0.00     0.002 A 
ENDROOT
BRANCH   1  14
ATOM     14  C   UNL d   1      44.709 -16.036  37.681  0.00  0.00     0.069 A 
ATOM     15  C   UNL d   1      44.075 -15.586  37.965  0.00  0.00     0.044 A 
ATOM     16  C   UNL d   1      43.389 -15.522  37.518  0.00  0.00     0.124 A 
ATOM     17  O   UNL d   1      42.763 -15.076  37.800  0.00  0.00    -0.301 OA
ATOM     18  C   UNL d   1      43.337 -15.908  36.786  0.00  0.00     0.123 A 
ATOM     19  C   UNL d   1      42.064 -15.008  37.349  0.00  0.00     0.149 A 
ATOM     20  C   UNL d   1      42.005 -15.394  36.611  0.00  0.00     0.149 A 
ATOM     21  O   UNL d   1      42.642 -15.844  36.330  0.00  0.00    -0.301 OA
ATOM     22  C   UNL d   1      43.965 -16.355  36.502  0.00  0.00     0.028 A 
ATOM     23  C   UNL d   1      44.652 -16.420  36.950  0.00  0.00     0.020 A 
ENDBRANCH   1  14
BRANCH   2  24
ATOM     24  C   UNL d   1      46.133 -15.022  37.453  0.00  0.00     0.135 A 
ATOM     25  O   UNL d   1      45.844 -14.253  37.520  0.00  0.00    -0.302 OA
ATOM     26  C   UNL d   1      46.042 -13.846  36.823  0.00  0.00     0.123 A 
ATOM     27  C   UNL d   1      46.453 -14.371  36.331  0.00  0.00     0.029 A 
ATOM     28  C   UNL d   1      46.509 -15.097  36.720  0.00  0.00     0.030 A 
ENDBRANCH   2  24
TORSDOF 2
ENDMDL
MODEL 2
REMARK VINA RESULT:      77.5      0.826      2.656
REMARK  2 active torsions:
REMARK  status: ('A' for Active; 'I' for Inactive)
REMARK    1  A    between atoms: C_7  and  N_1 
REMARK    2  A    between atoms: C_9  and  C_2 
ROOT
ATOM      1  N   UNL d   1      44.720 -16.380  38.159  0.00  0.00    -0.273 N 
ATOM      2  C   UNL d   1      43.907 -16.505  38.053  0.00  0.00     0.174 A 
ATOM      3  N   UNL d   1      43.666 -17.064  38.605  0.00  0.00    -0.204 NA
ATOM      4  C   UNL d   1      44.970 -16.863  38.774  0.00  0.00     0.185 A 
ATOM      5  C   UNL d   1      44.321 -17.286  39.050  0.00  0.00     0.199 A 
ATOM      6  N   UNL d   1      45.713 -16.975  39.123  0.00  0.00    -0.224 NA
ATOM      7  N   UNL d   1      44.408 -17.819  39.672  0.00  0.00    -0.223 NA
ATOM      8  C   UNL d   1      45.797 -17.506  39.740  0.00  0.00     0.101 A 
ATOM      9  C   UNL d   1      45.152 -17.929  40.018  0.00  0.00     0.101 A 
ATOM     10  C   UNL d   1      46.537 -17.618  40.088  0.00  0.00     0.021 A 
ATOM     11  C   UNL d   1      45.235 -18.462  40.639  0.00  0.00     0.021 A 
ATOM     12  C   UNL d   1      45.974 -18.577  40.990  0.00  0.00     0.002 A 
ATOM     13  C   UNL d   1      46.629 -18.149  40.710  0.00  0.00     0.002 A 
ENDROOT
BRANCH   1  14
ATOM     14  C   UNL d   1      45.159 -15.852  37.702  0.00  0.00     0.069 A 
ATOM     15  C   UNL d   1      45.322 -15.095  37.995  0.00  0.00     0.044 A 
ATOM     16  C   UNL d   1      45.759 -14.568  37.541  0.00  0.00     0.124 A 
ATOM     17  O   UNL d   1      45.919 -13.820  37.832  0.00  0.00    -0.301 OA
ATOM     18  C   UNL d   1      46.035 -14.799  36.793  0.00  0.00     0.123 A 
ATOM     19  C   UNL d   1      46.363 -13.281  37.373  0.00  0.00     0.149 A 
ATOM     20  C   UNL d   1      46.644 -13.507  36.621  0.00  0.00     0.149 A 
ATOM     21  O   UNL d   1      46.479 -14.266  36.331  0.00  0.00    -0.301 OA
ATOM     22  C   UNL d   1      45.875 -15.550  36.501  0.00  0.00     0.028 A 
ATOM     23  C   UNL d   1      45.437 -16.077  36.955  0.00  0.00     0.020 A 
ENDBRANCH   1  14
BRANCH   2  24
ATOM     24  C   UNL d   1      43.431 -16.133  37.494  0.00  0.00     0.135 A 
ATOM     25  O   UNL d   1      43.482 -16.222  36.675  0.00  0.00    -0.302 OA
ATOM     26  C   UNL d   1      42.896 -15.744  36.331  0.00  0.00     0.123 A 
ATOM     27  C   UNL d   1      42.488 -15.363  36.944  0.00  0.00     0.029 A 
ATOM     28  C   UNL d   1      42.819 -15.604  37.662  0.00  0.00     0.030 A 
ENDBRANCH   2  24
TORSDOF 2
ENDMDL
