MODEL 1
REMARK VINA RESULT:     115.6      0.000      0.000
REMARK  6 active torsions:
REMARK  status: ('A' for Active; 'I' for Inactive)
REMARK    1  A    between atoms: C_7  and  C_1 
REMARK    2  A    between atoms: C_6  and  O_13 
REMARK    3  A    between atoms: C_12  and  C_6 
REMARK    4  A    between atoms: O_13  and  C_10 
REMARK    5  A    between atoms: C_28  and  C_14 
REMARK    6  A    between atoms: C_31  and  C_28 
ROOT
ATOM      1  C   UNL d   1      60.872  46.082  50.558  0.00  0.00     0.064 A 
ATOM      2  C   UNL d   1      60.824  47.506  50.584  0.00  0.00     0.062 A 
ATOM      3  C   UNL d   1      61.251  46.808  50.479  0.00  0.00     0.199 A 
ATOM      4  C   UNL d   1      60.070  46.051  50.742  0.00  0.00     0.126 A 
ATOM      5  C   UNL d   1      60.022  47.475  50.768  0.00  0.00     0.105 A 
ATOM      6  O   UNL d   1      59.643  46.748  50.848  0.00  0.00    -0.305 OA
ATOM      7  C   UNL d   1      61.203  48.232  50.504  0.00  0.00     0.007 A 
ATOM      8  C   UNL d   1      59.974  48.903  50.794  0.00  0.00     0.105 A 
ATOM      9  C   UNL d   1      59.596  48.172  50.873  0.00  0.00     0.050 A 
ATOM     10  C   UNL d   1      60.776  48.934  50.610  0.00  0.00     0.023 A 
ATOM     11  O   UNL d   1      62.054  46.839  50.294  0.00  0.00    -0.286 OA
ENDROOT
BRANCH   1  12
ATOM     12  C   UNL d   1      61.298  45.384  50.453  0.00  0.00     0.007 A 
ATOM     13  C   UNL d   1      61.337  44.819  51.065  0.00  0.00     0.027 A 
ATOM     14  C   UNL d   1      61.758  44.127  50.964  0.00  0.00     0.123 A 
ATOM     15  O   UNL d   1      61.792  43.573  51.572  0.00  0.00    -0.301 OA
ATOM     16  C   UNL d   1      62.156  43.980  50.243  0.00  0.00     0.123 A 
ATOM     17  C   UNL d   1      62.219  42.872  51.468  0.00  0.00     0.149 A 
ATOM     18  C   UNL d   1      62.613  42.723  50.758  0.00  0.00     0.149 A 
ATOM     19  O   UNL d   1      62.580  43.283  50.141  0.00  0.00    -0.301 OA
ATOM     20  C   UNL d   1      62.117  44.546  49.631  0.00  0.00     0.027 A 
ATOM     21  C   UNL d   1      61.692  45.242  49.737  0.00  0.00     0.002 A 
ENDBRANCH   1  12
BRANCH  10  22
ATOM     22  C   UNL d   1      61.154  49.669  50.531  0.00  0.00     0.002 C 
BRANCH  22  23
ATOM     23  C   UNL d   1      61.965  49.704  50.391  0.00  0.00     0.000 C 
ATOM     24  C   UNL d   1      62.262  49.555  49.641  0.00  0.00     0.000 C 
ENDBRANCH  22  23
ENDBRANCH  10  22
BRANCH   8  25
ATOM     25  O   UNL d   1      59.547  49.609  50.900  0.00  0.00    -0.271 OA
BRANCH  25  26
ATOM     26  C   UNL d   1      58.916  49.635  51.430  0.00  0.00     0.323 C 
ATOM     27  O   UNL d   1      59.049  49.640  52.239  0.00  0.00    -0.257 OA
BRANCH  26  28
ATOM     28  C   UNL d   1      58.139  49.656  51.143  0.00  0.00     0.163 A 
ATOM     29  O   UNL d   1      57.452  49.645  51.596  0.00  0.00    -0.300 OA
ATOM     30  C   UNL d   1      56.801  49.674  51.091  0.00  0.00     0.123 A 
ATOM     31  C   UNL d   1      57.092  49.702  50.313  0.00  0.00     0.029 A 
ATOM     32  C   UNL d   1      57.922  49.691  50.351  0.00  0.00     0.032 A 
ENDBRANCH  26  28
ENDBRANCH  25  26
ENDBRANCH   8  25
TORSDOF 6
ENDMDL
