MODEL 1
REMARK VINA RESULT:      -4.6      0.000      0.000
REMARK  3 active torsions:
REMARK  status: ('A' for Active; 'I' for Inactive)
REMARK    1  A    between atoms: C_6  and  C_1 
REMARK       I    between atoms: N_8  and  C_6 
REMARK    2  A    between atoms: C_16  and  N_8 
REMARK       I    between atoms: C_12  and  N_13 
REMARK    3  A    between atoms: N_13  and  C_17 
ROOT
ATOM      1  C   UNL d   1      57.236   0.263  31.951  0.00  0.00     0.302 C 
ATOM      2  N   UNL d   1      57.086  -0.232  31.308  0.00  0.00    -0.206 NA
ATOM      3  O   UNL d   1      57.940   0.680  31.993  0.00  0.00    -0.263 OA
ENDROOT
BRANCH   1   4
ATOM      4  C   UNL d   1      56.675   0.337  32.551  0.00  0.00     0.158 A 
ATOM      5  O   UNL d   1      55.851   0.352  32.452  0.00  0.00    -0.302 OA
ATOM      6  C   UNL d   1      55.509   0.434  33.207  0.00  0.00     0.100 A 
ATOM      7  C   UNL d   1      54.719   0.482  33.459  0.00  0.00     0.025 A 
ATOM      8  C   UNL d   1      56.116   0.471  33.770  0.00  0.00     0.025 A 
ATOM      9  C   UNL d   1      54.545   0.564  34.259  0.00  0.00     0.002 A 
ATOM     10  C   UNL d   1      53.758   0.611  34.508  0.00  0.00     0.000 C 
ATOM     11  C   UNL d   1      55.157   0.600  34.816  0.00  0.00     0.000 A 
ATOM     12  C   UNL d   1      55.942   0.553  34.571  0.00  0.00     0.002 A 
ATOM     13  C   UNL d   1      54.980   0.682  35.614  0.00  0.00     0.000 C 
ATOM     14  C   UNL d   1      56.838   0.413  33.383  0.00  0.00     0.029 A 
ATOM     15  C   UNL d   1      57.589   0.425  33.729  0.00  0.00     0.002 C 
ENDBRANCH   1   4
BRANCH   2  16
ATOM     16  C   UNL d   1      57.645  -0.309  30.706  0.00  0.00     0.085 A 
ATOM     17  C   UNL d   1      57.973  -1.050  30.552  0.00  0.00     0.021 A 
ATOM     18  C   UNL d   1      58.528  -1.126  29.953  0.00  0.00     0.021 A 
ATOM     19  C   UNL d   1      58.760  -0.467  29.505  0.00  0.00     0.085 A 
ATOM     20  C   UNL d   1      58.427   0.271  29.667  0.00  0.00     0.021 A 
ATOM     21  C   UNL d   1      57.867   0.352  30.268  0.00  0.00     0.021 A 
BRANCH  19  22
ATOM     22  N   UNL d   1      59.318  -0.547  28.905  0.00  0.00    -0.208 NA
ATOM     23  C   UNL d   1      60.113  -0.381  29.058  0.00  0.00     0.279 C 
ATOM     24  O   UNL d   1      60.354  -0.134  29.813  0.00  0.00    -0.265 OA
ATOM     25  C   UNL d   1      60.678  -0.459  28.462  0.00  0.00     0.068 C 
ENDBRANCH  19  22
ENDBRANCH   2  16
TORSDOF 3
ENDMDL
