MODEL 1
REMARK VINA RESULT:      -6.2      0.000      0.000
REMARK  3 active torsions:
REMARK  status: ('A' for Active; 'I' for Inactive)
REMARK    1  A    between atoms: C_11  and  C_3 
REMARK    2  A    between atoms: O_13  and  C_10 
REMARK    3  A    between atoms: C_21  and  O_13 
ROOT
ATOM      1  C   UNL d   1     -41.526-122.423 -50.883  0.00  0.00     0.203 A 
ATOM      2  C   UNL d   1     -41.426-122.416 -51.701  0.00  0.00     0.101 A 
ATOM      3  C   UNL d   1     -41.727-123.123 -50.501  0.00  0.00     0.064 A 
ATOM      4  C   UNL d   1     -41.527-123.109 -52.136  0.00  0.00     0.108 A 
ATOM      5  C   UNL d   1     -41.224-121.715 -52.082  0.00  0.00     0.203 A 
ATOM      6  C   UNL d   1     -41.829-123.817 -50.936  0.00  0.00     0.126 A 
ATOM      7  O   UNL d   1     -41.729-123.811 -51.753  0.00  0.00    -0.305 OA
ATOM      8  C   UNL d   1     -41.427-123.103 -52.953  0.00  0.00     0.050 A 
ATOM      9  C   UNL d   1     -41.123-121.706 -52.903  0.00  0.00     0.067 A 
ATOM     10  C   UNL d   1     -41.225-122.399 -53.338  0.00  0.00     0.105 A 
ATOM     11  O   UNL d   1     -41.424-121.730 -50.448  0.00  0.00    -0.286 OA
ATOM     12  O   UNL d   1     -41.123-121.022 -51.648  0.00  0.00    -0.286 OA
ENDROOT
BRANCH   3  13
ATOM     13  C   UNL d   1     -41.827-123.130 -49.683  0.00  0.00     0.005 A 
ATOM     14  C   UNL d   1     -41.175-123.267 -49.181  0.00  0.00     0.003 A 
ATOM     15  C   UNL d   1     -41.276-123.274 -48.364  0.00  0.00     0.042 A 
ATOM     16  C   UNL d   1     -42.026-123.145 -48.036  0.00  0.00     0.196 A 
ATOM     17  C   UNL d   1     -42.677-123.008 -48.539  0.00  0.00     0.042 A 
ATOM     18  O   UNL d   1     -42.126-123.152 -47.219  0.00  0.00    -0.287 OA
ATOM     19  C   UNL d   1     -42.578-123.001 -49.356  0.00  0.00     0.003 A 
ENDBRANCH   3  13
BRANCH  10  20
ATOM     20  O   UNL d   1     -41.123-122.388 -54.163  0.00  0.00    -0.307 OA
BRANCH  20  21
ATOM     21  C   UNL d   1     -41.755-122.542 -54.666  0.00  0.00     0.100 C 
ATOM     22  C   UNL d   1     -41.993-123.320 -54.808  0.00  0.00     0.027 C 
ATOM     23  C   UNL d   1     -42.154-121.919 -55.031  0.00  0.00     0.027 C 
ENDBRANCH  20  21
ENDBRANCH  10  20
TORSDOF 3
ENDMDL
MODEL 2
REMARK VINA RESULT:      -6.0      0.907      4.594
REMARK  3 active torsions:
REMARK  status: ('A' for Active; 'I' for Inactive)
REMARK    1  A    between atoms: C_11  and  C_3 
REMARK    2  A    between atoms: O_13  and  C_10 
REMARK    3  A    between atoms: C_21  and  O_13 
ROOT
ATOM      1  C   UNL d   1     -41.523-122.168 -52.602  0.00  0.00     0.203 A 
ATOM      2  C   UNL d   1     -41.424-122.434 -51.829  0.00  0.00     0.101 A 
ATOM      3  C   UNL d   1     -41.723-122.701 -53.196  0.00  0.00     0.064 A 
ATOM      4  C   UNL d   1     -41.525-123.233 -51.651  0.00  0.00     0.108 A 
ATOM      5  C   UNL d   1     -41.224-121.901 -51.234  0.00  0.00     0.203 A 
ATOM      6  C   UNL d   1     -41.824-123.500 -53.018  0.00  0.00     0.126 A 
ATOM      7  O   UNL d   1     -41.725-123.767 -52.246  0.00  0.00    -0.305 OA
ATOM      8  C   UNL d   1     -41.426-123.500 -50.878  0.00  0.00     0.050 A 
ATOM      9  C   UNL d   1     -41.124-122.166 -50.457  0.00  0.00     0.067 A 
ATOM     10  C   UNL d   1     -41.225-122.966 -50.279  0.00  0.00     0.105 A 
ATOM     11  O   UNL d   1     -41.422-121.369 -52.780  0.00  0.00    -0.286 OA
ATOM     12  O   UNL d   1     -41.123-121.102 -51.412  0.00  0.00    -0.286 OA
ENDROOT
BRANCH   3  13
ATOM     13  C   UNL d   1     -41.822-122.434 -53.969  0.00  0.00     0.005 A 
ATOM     14  C   UNL d   1     -41.256-122.620 -54.554  0.00  0.00     0.003 A 
ATOM     15  C   UNL d   1     -41.355-122.354 -55.326  0.00  0.00     0.042 A 
ATOM     16  C   UNL d   1     -42.019-121.899 -55.527  0.00  0.00     0.196 A 
ATOM     17  C   UNL d   1     -42.584-121.714 -54.943  0.00  0.00     0.042 A 
ATOM     18  O   UNL d   1     -42.117-121.633 -56.300  0.00  0.00    -0.287 OA
ATOM     19  C   UNL d   1     -42.485-121.980 -54.171  0.00  0.00     0.003 A 
ENDBRANCH   3  13
BRANCH  10  20
ATOM     20  O   UNL d   1     -41.124-123.231 -49.498  0.00  0.00    -0.307 OA
BRANCH  20  21
ATOM     21  C   UNL d   1     -41.763-123.266 -48.981  0.00  0.00     0.100 C 
ATOM     22  C   UNL d   1     -41.805-122.749 -48.338  0.00  0.00     0.027 C 
ATOM     23  C   UNL d   1     -42.364-123.817 -49.102  0.00  0.00     0.027 C 
ENDBRANCH  20  21
ENDBRANCH  10  20
TORSDOF 3
ENDMDL
MODEL 3
REMARK VINA RESULT:      -4.4      0.954      4.668
REMARK  3 active torsions:
REMARK  status: ('A' for Active; 'I' for Inactive)
REMARK    1  A    between atoms: C_11  and  C_3 
REMARK    2  A    between atoms: O_13  and  C_10 
REMARK    3  A    between atoms: C_21  and  O_13 
ROOT
ATOM      1  C   UNL d   1     -42.210-122.696 -50.850  0.00  0.00     0.203 A 
ATOM      2  C   UNL d   1     -42.286-122.897 -50.055  0.00  0.00     0.101 A 
ATOM      3  C   UNL d   1     -41.628-123.055 -51.309  0.00  0.00     0.064 A 
ATOM      4  C   UNL d   1     -41.781-123.456 -49.719  0.00  0.00     0.108 A 
ATOM      5  C   UNL d   1     -42.868-122.537 -49.596  0.00  0.00     0.203 A 
ATOM      6  C   UNL d   1     -41.123-123.614 -50.973  0.00  0.00     0.126 A 
ATOM      7  O   UNL d   1     -41.199-123.816 -50.179  0.00  0.00    -0.305 OA
ATOM      8  C   UNL d   1     -41.858-123.657 -48.925  0.00  0.00     0.050 A 
ATOM      9  C   UNL d   1     -42.946-122.738 -48.797  0.00  0.00     0.067 A 
ATOM     10  C   UNL d   1     -42.442-123.298 -48.462  0.00  0.00     0.105 A 
ATOM     11  O   UNL d   1     -42.714-122.137 -51.185  0.00  0.00    -0.286 OA
ATOM     12  O   UNL d   1     -43.372-121.979 -49.931  0.00  0.00    -0.286 OA
ENDROOT
BRANCH   3  13
ATOM     13  C   UNL d   1     -41.551-122.854 -52.104  0.00  0.00     0.005 A 
ATOM     14  C   UNL d   1     -41.472-123.450 -52.683  0.00  0.00     0.003 A 
ATOM     15  C   UNL d   1     -41.396-123.248 -53.477  0.00  0.00     0.042 A 
ATOM     16  C   UNL d   1     -41.397-122.452 -53.706  0.00  0.00     0.196 A 
ATOM     17  C   UNL d   1     -41.476-121.857 -53.127  0.00  0.00     0.042 A 
ATOM     18  O   UNL d   1     -41.320-122.252 -54.501  0.00  0.00    -0.287 OA
ATOM     19  C   UNL d   1     -41.552-122.057 -52.333  0.00  0.00     0.003 A 
ENDBRANCH   3  13
BRANCH  10  20
ATOM     20  O   UNL d   1     -42.522-123.498 -47.659  0.00  0.00    -0.307 OA
BRANCH  20  21
ATOM     21  C   UNL d   1     -41.976-123.233 -47.104  0.00  0.00     0.100 C 
ATOM     22  C   UNL d   1     -41.301-123.679 -46.939  0.00  0.00     0.027 C 
ATOM     23  C   UNL d   1     -42.101-122.520 -46.708  0.00  0.00     0.027 C 
ENDBRANCH  20  21
ENDBRANCH  10  20
TORSDOF 3
ENDMDL
