MODEL 1
REMARK VINA RESULT:     122.8      0.000      0.000
REMARK  5 active torsions:
REMARK  status: ('A' for Active; 'I' for Inactive)
REMARK    1  A    between atoms: C_4  and  C_1 
REMARK    2  A    between atoms: S_2  and  C_4 
REMARK    3  A    between atoms: C_8  and  S_2 
REMARK    4  A    between atoms: N_5  and  C_3 
REMARK    5  A    between atoms: C_9  and  C_4 
ROOT
ATOM      1  C   UNL d   1      59.389  48.096  51.109  0.00  0.00     0.128 A 
ATOM      2  C   UNL d   1      60.184  47.899  51.143  0.00  0.00     0.166 A 
ATOM      3  N   UNL d   1      58.818  47.508  51.048  0.00  0.00    -0.240 NA
ATOM      4  N   UNL d   1      60.413  47.112  51.117  0.00  0.00    -0.225 NA
ATOM      5  C   UNL d   1      59.052  46.725  51.022  0.00  0.00     0.099 A 
ATOM      6  C   UNL d   1      59.845  46.520  51.056  0.00  0.00     0.101 A 
ATOM      7  C   UNL d   1      60.066  45.735  51.029  0.00  0.00     0.021 A 
ATOM      8  C   UNL d   1      58.480  46.133  50.961  0.00  0.00     0.021 A 
ATOM      9  C   UNL d   1      59.503  45.150  50.969  0.00  0.00     0.002 A 
ATOM     10  C   UNL d   1      58.710  45.351  50.935  0.00  0.00     0.002 A 
ENDROOT
BRANCH   1  11
ATOM     11  C   UNL d   1      59.155  48.880  51.135  0.00  0.00     0.129 C 
BRANCH  11  12
ATOM     12  S   UNL d   1      58.643  49.183  50.477  0.00  0.00     0.213 S 
ATOM     13  O   UNL d   1      59.049  49.527  49.769  0.00  0.00    -0.217 OA
ATOM     14  O   UNL d   1      59.425  49.312  50.234  0.00  0.00    -0.217 OA
BRANCH  12  15
ATOM     15  C   UNL d   1      57.820  49.221  50.369  0.00  0.00     0.088 A 
ATOM     16  C   UNL d   1      57.473  48.802  49.740  0.00  0.00     0.011 A 
ATOM     17  C   UNL d   1      56.656  48.843  49.638  0.00  0.00     0.001 A 
ATOM     18  C   UNL d   1      56.304  48.434  49.020  0.00  0.00     0.000 C 
ATOM     19  C   UNL d   1      56.188  49.290  50.150  0.00  0.00     0.000 A 
ATOM     20  C   UNL d   1      56.547  49.704  50.776  0.00  0.00     0.001 A 
ATOM     21  C   UNL d   1      57.362  49.662  50.876  0.00  0.00     0.011 A 
ENDBRANCH  12  15
ENDBRANCH  11  12
BRANCH  11  22
ATOM     22  C   UNL d   1      59.328  49.492  51.719  0.00  0.00     0.135 C 
ATOM     23  N   UNL d   1      58.896  49.670  52.468  0.00  0.00    -0.146 N 
ENDBRANCH  11  22
ENDBRANCH   1  11
BRANCH   2  24
ATOM     24  N   UNL d   1      60.753  48.495  51.204  0.00  0.00    -0.284 N 
ATOM     25  C   UNL d   1      61.113  48.793  50.514  0.00  0.00     0.106 A 
ATOM     26  C   UNL d   1      61.686  49.395  50.586  0.00  0.00     0.118 A 
ATOM     27  C   UNL d   1      62.046  49.693  49.896  0.00  0.00     0.028 C 
ATOM     28  O   UNL d   1      61.895  49.691  51.334  0.00  0.00    -0.304 OA
ATOM     29  C   UNL d   1      61.531  49.387  52.009  0.00  0.00     0.118 A 
ATOM     30  C   UNL d   1      60.962  48.792  51.952  0.00  0.00     0.106 A 
ATOM     31  C   UNL d   1      61.737  49.682  52.758  0.00  0.00     0.028 C 
ENDBRANCH   2  24
TORSDOF 5
ENDMDL
MODEL 2
REMARK VINA RESULT:     123.7      1.324      3.655
REMARK  5 active torsions:
REMARK  status: ('A' for Active; 'I' for Inactive)
REMARK    1  A    between atoms: C_4  and  C_1 
REMARK    2  A    between atoms: S_2  and  C_4 
REMARK    3  A    between atoms: C_8  and  S_2 
REMARK    4  A    between atoms: N_5  and  C_3 
REMARK    5  A    between atoms: C_9  and  C_4 
ROOT
ATOM      1  C   UNL d   1      59.917  48.373  50.563  0.00  0.00     0.128 A 
ATOM      2  C   UNL d   1      59.536  47.658  50.686  0.00  0.00     0.166 A 
ATOM      3  N   UNL d   1      59.482  49.059  50.436  0.00  0.00    -0.240 NA
ATOM      4  N   UNL d   1      58.716  47.624  50.683  0.00  0.00    -0.225 NA
ATOM      5  C   UNL d   1      58.664  49.019  50.434  0.00  0.00     0.099 A 
ATOM      6  C   UNL d   1      58.276  48.308  50.556  0.00  0.00     0.101 A 
ATOM      7  C   UNL d   1      57.460  48.280  50.552  0.00  0.00     0.021 A 
ATOM      8  C   UNL d   1      58.226  49.706  50.306  0.00  0.00     0.021 A 
ATOM      9  C   UNL d   1      57.026  48.958  50.427  0.00  0.00     0.002 A 
ATOM     10  C   UNL d   1      57.410  49.670  50.304  0.00  0.00     0.002 A 
ENDROOT
BRANCH   1  11
ATOM     11  C   UNL d   1      60.734  48.413  50.565  0.00  0.00     0.129 C 
BRANCH  11  12
ATOM     12  S   UNL d   1      61.117  49.094  50.984  0.00  0.00     0.213 S 
ATOM     13  O   UNL d   1      61.519  49.705  50.486  0.00  0.00    -0.217 OA
ATOM     14  O   UNL d   1      61.248  49.222  50.176  0.00  0.00    -0.217 OA
BRANCH  12  15
ATOM     15  C   UNL d   1      61.187  49.299  51.786  0.00  0.00     0.088 A 
ATOM     16  C   UNL d   1      60.499  49.398  52.242  0.00  0.00     0.011 A 
ATOM     17  C   UNL d   1      60.575  49.602  53.038  0.00  0.00     0.001 A 
ATOM     18  C   UNL d   1      59.902  49.701  53.497  0.00  0.00     0.000 C 
ATOM     19  C   UNL d   1      61.319  49.708  53.377  0.00  0.00     0.000 A 
ATOM     20  C   UNL d   1      62.000  49.606  52.910  0.00  0.00     0.001 A 
ATOM     21  C   UNL d   1      61.922  49.403  52.118  0.00  0.00     0.011 A 
ENDBRANCH  12  15
ENDBRANCH  11  12
BRANCH  11  22
ATOM     22  C   UNL d   1      61.316  47.882  50.212  0.00  0.00     0.135 C 
ATOM     23  N   UNL d   1      62.090  48.088  49.840  0.00  0.00    -0.146 N 
ENDBRANCH  11  22
ENDBRANCH   1  11
BRANCH   2  24
ATOM     24  N   UNL d   1      59.979  46.973  50.813  0.00  0.00    -0.284 N 
ATOM     25  C   UNL d   1      60.260  46.537  50.160  0.00  0.00     0.106 A 
ATOM     26  C   UNL d   1      60.706  45.846  50.299  0.00  0.00     0.118 A 
ATOM     27  C   UNL d   1      60.987  45.410  49.646  0.00  0.00     0.028 C 
ATOM     28  O   UNL d   1      60.869  45.597  51.075  0.00  0.00    -0.304 OA
ATOM     29  C   UNL d   1      60.584  46.038  51.712  0.00  0.00     0.118 A 
ATOM     30  C   UNL d   1      60.141  46.723  51.589  0.00  0.00     0.106 A 
ATOM     31  C   UNL d   1      60.745  45.792  52.489  0.00  0.00     0.028 C 
ENDBRANCH   2  24
TORSDOF 5
ENDMDL
