MODEL 1
REMARK VINA RESULT:       9.8      0.000      0.000
REMARK  0 active torsions:
REMARK  status: ('A' for Active; 'I' for Inactive)
ROOT
ATOM      1  C   UNL d   1     -51.478  25.467  33.307  0.00  0.00     0.094 A 
ATOM      2  C   UNL d   1     -50.658  25.382  33.307  0.00  0.00     0.143 A 
ATOM      3  S   UNL d   1     -50.321  24.629  33.307  0.00  0.00    -0.055 SA
ATOM      4  C   UNL d   1     -51.962  24.800  33.307  0.00  0.00     0.013 A 
ATOM      5  C   UNL d   1     -50.806  23.960  33.307  0.00  0.00     0.086 A 
ATOM      6  C   UNL d   1     -51.626  24.046  33.307  0.00  0.00     0.017 A 
ATOM      7  C   UNL d   1     -51.814  26.221  33.306  0.00  0.00     0.103 C 
ATOM      8  N   UNL d   1     -52.149  26.969  33.306  0.00  0.00    -0.191 NA
ATOM      9  S   UNL d   1     -50.470  23.202  33.307  0.00  0.00    -0.071 SA
ATOM     10  N   UNL d   1     -50.173  26.044  33.307  0.00  0.00    -0.140 N 
ATOM     11  C   UNL d   1     -52.782  24.886  33.307  0.00  0.00     0.001 A 
ATOM     12  C   UNL d   1     -52.110  23.378  33.307  0.00  0.00     0.001 A 
ATOM     13  C   UNL d   1     -53.267  24.217  33.307  0.00  0.00     0.000 A 
ATOM     14  C   UNL d   1     -52.930  23.463  33.307  0.00  0.00     0.000 A 
ENDROOT
TORSDOF 0
ENDMDL
MODEL 2
REMARK VINA RESULT:      12.0      1.254      1.938
REMARK  0 active torsions:
REMARK  status: ('A' for Active; 'I' for Inactive)
ROOT
ATOM      1  C   UNL d   1     -50.869  25.529  33.307  0.00  0.00     0.094 A 
ATOM      2  C   UNL d   1     -51.375  26.180  33.307  0.00  0.00     0.143 A 
ATOM      3  S   UNL d   1     -52.192  26.068  33.307  0.00  0.00    -0.055 SA
ATOM      4  C   UNL d   1     -51.180  24.765  33.307  0.00  0.00     0.013 A 
ATOM      5  C   UNL d   1     -52.504  25.304  33.307  0.00  0.00     0.086 A 
ATOM      6  C   UNL d   1     -51.998  24.652  33.307  0.00  0.00     0.017 A 
ATOM      7  C   UNL d   1     -50.052  25.642  33.307  0.00  0.00     0.103 C 
ATOM      8  N   UNL d   1     -49.240  25.752  33.307  0.00  0.00    -0.191 NA
ATOM      9  S   UNL d   1     -53.326  25.188  33.307  0.00  0.00    -0.071 SA
ATOM     10  N   UNL d   1     -51.069  26.941  33.307  0.00  0.00    -0.140 N 
ATOM     11  C   UNL d   1     -50.675  24.114  33.307  0.00  0.00     0.001 A 
ATOM     12  C   UNL d   1     -52.310  23.888  33.307  0.00  0.00     0.001 A 
ATOM     13  C   UNL d   1     -50.986  23.350  33.306  0.00  0.00     0.000 A 
ATOM     14  C   UNL d   1     -51.804  23.237  33.306  0.00  0.00     0.000 A 
ENDROOT
TORSDOF 0
ENDMDL
MODEL 3
REMARK VINA RESULT:      12.1      1.348      2.298
REMARK  0 active torsions:
REMARK  status: ('A' for Active; 'I' for Inactive)
ROOT
ATOM      1  C   UNL d   1     -51.730  24.570  33.309  0.00  0.00     0.094 A 
ATOM      2  C   UNL d   1     -51.010  24.166  33.311  0.00  0.00     0.143 A 
ATOM      3  S   UNL d   1     -50.301  24.588  33.313  0.00  0.00    -0.055 SA
ATOM      4  C   UNL d   1     -51.741  25.394  33.309  0.00  0.00     0.013 A 
ATOM      5  C   UNL d   1     -50.312  25.413  33.312  0.00  0.00     0.086 A 
ATOM      6  C   UNL d   1     -51.032  25.816  33.310  0.00  0.00     0.017 A 
ATOM      7  C   UNL d   1     -52.439  24.147  33.308  0.00  0.00     0.103 C 
ATOM      8  N   UNL d   1     -53.144  23.729  33.306  0.00  0.00    -0.191 NA
ATOM      9  S   UNL d   1     -49.600  25.840  33.314  0.00  0.00    -0.071 SA
ATOM     10  N   UNL d   1     -50.996  23.346  33.312  0.00  0.00    -0.140 N 
ATOM     11  C   UNL d   1     -52.460  25.796  33.306  0.00  0.00     0.001 A 
ATOM     12  C   UNL d   1     -51.042  26.642  33.309  0.00  0.00     0.001 A 
ATOM     13  C   UNL d   1     -52.471  26.622  33.306  0.00  0.00     0.000 A 
ATOM     14  C   UNL d   1     -51.761  27.044  33.307  0.00  0.00     0.000 A 
ENDROOT
TORSDOF 0
ENDMDL
MODEL 4
REMARK VINA RESULT:      12.2      1.406      2.369
REMARK  0 active torsions:
REMARK  status: ('A' for Active; 'I' for Inactive)
ROOT
ATOM      1  C   UNL d   1     -52.330  24.568  33.312  0.00  0.00     0.094 A 
ATOM      2  C   UNL d   1     -52.493  25.377  33.312  0.00  0.00     0.143 A 
ATOM      3  S   UNL d   1     -51.874  25.922  33.315  0.00  0.00    -0.055 SA
ATOM      4  C   UNL d   1     -51.549  24.305  33.314  0.00  0.00     0.013 A 
ATOM      5  C   UNL d   1     -51.091  25.658  33.316  0.00  0.00     0.086 A 
ATOM      6  C   UNL d   1     -50.929  24.849  33.316  0.00  0.00     0.017 A 
ATOM      7  C   UNL d   1     -52.950  24.024  33.309  0.00  0.00     0.103 C 
ATOM      8  N   UNL d   1     -53.565  23.481  33.307  0.00  0.00    -0.191 NA
ATOM      9  S   UNL d   1     -50.467  26.204  33.319  0.00  0.00    -0.071 SA
ATOM     10  N   UNL d   1     -53.269  25.643  33.310  0.00  0.00    -0.140 N 
ATOM     11  C   UNL d   1     -51.387  23.497  33.313  0.00  0.00     0.001 A 
ATOM     12  C   UNL d   1     -50.147  24.586  33.318  0.00  0.00     0.001 A 
ATOM     13  C   UNL d   1     -50.605  23.232  33.315  0.00  0.00     0.000 A 
ATOM     14  C   UNL d   1     -49.985  23.778  33.318  0.00  0.00     0.000 A 
ENDROOT
TORSDOF 0
ENDMDL
MODEL 5
REMARK VINA RESULT:      12.2      1.438      2.473
REMARK  0 active torsions:
REMARK  status: ('A' for Active; 'I' for Inactive)
ROOT
ATOM      1  C   UNL d   1     -50.698  24.634  33.306  0.00  0.00     0.094 A 
ATOM      2  C   UNL d   1     -51.088  23.907  33.306  0.00  0.00     0.143 A 
ATOM      3  S   UNL d   1     -51.912  23.880  33.306  0.00  0.00    -0.055 SA
ATOM      4  C   UNL d   1     -51.132  25.334  33.306  0.00  0.00     0.013 A 
ATOM      5  C   UNL d   1     -52.347  24.582  33.306  0.00  0.00     0.086 A 
ATOM      6  C   UNL d   1     -51.957  25.309  33.306  0.00  0.00     0.017 A 
ATOM      7  C   UNL d   1     -49.873  24.659  33.306  0.00  0.00     0.103 C 
ATOM      8  N   UNL d   1     -49.054  24.686  33.306  0.00  0.00    -0.191 NA
ATOM      9  S   UNL d   1     -53.177  24.559  33.306  0.00  0.00    -0.071 SA
ATOM     10  N   UNL d   1     -50.658  23.208  33.306  0.00  0.00    -0.140 N 
ATOM     11  C   UNL d   1     -50.742  26.060  33.306  0.00  0.00     0.001 A 
ATOM     12  C   UNL d   1     -52.392  26.010  33.306  0.00  0.00     0.001 A 
ATOM     13  C   UNL d   1     -51.177  26.762  33.306  0.00  0.00     0.000 A 
ATOM     14  C   UNL d   1     -52.002  26.737  33.306  0.00  0.00     0.000 A 
ENDROOT
TORSDOF 0
ENDMDL
MODEL 6
REMARK VINA RESULT:      12.6      1.393      2.255
REMARK  0 active torsions:
REMARK  status: ('A' for Active; 'I' for Inactive)
ROOT
ATOM      1  C   UNL d   1     -52.576  24.729  33.319  0.00  0.00     0.094 A 
ATOM      2  C   UNL d   1     -52.280  23.959  33.320  0.00  0.00     0.143 A 
ATOM      3  S   UNL d   1     -51.465  23.830  33.317  0.00  0.00    -0.055 SA
ATOM      4  C   UNL d   1     -52.058  25.370  33.315  0.00  0.00     0.013 A 
ATOM      5  C   UNL d   1     -50.946  24.473  33.313  0.00  0.00     0.086 A 
ATOM      6  C   UNL d   1     -51.243  25.243  33.312  0.00  0.00     0.017 A 
ATOM      7  C   UNL d   1     -53.392  24.857  33.322  0.00  0.00     0.103 C 
ATOM      8  N   UNL d   1     -54.201  24.986  33.324  0.00  0.00    -0.191 NA
ATOM      9  S   UNL d   1     -50.126  24.346  33.310  0.00  0.00    -0.071 SA
ATOM     10  N   UNL d   1     -52.793  23.319  33.324  0.00  0.00    -0.140 N 
ATOM     11  C   UNL d   1     -52.354  26.139  33.313  0.00  0.00     0.001 A 
ATOM     12  C   UNL d   1     -50.723  25.884  33.308  0.00  0.00     0.001 A 
ATOM     13  C   UNL d   1     -51.835  26.782  33.309  0.00  0.00     0.000 A 
ATOM     14  C   UNL d   1     -51.019  26.653  33.306  0.00  0.00     0.000 A 
ENDROOT
TORSDOF 0
ENDMDL
