MODEL 1
REMARK VINA RESULT:      96.6      0.000      0.000
REMARK  5 active torsions:
REMARK  status: ('A' for Active; 'I' for Inactive)
REMARK    1  A    between atoms: C_4  and  N_1 
REMARK    2  A    between atoms: C_9  and  C_2 
REMARK    3  A    between atoms: C_14  and  C_6 
REMARK    4  A    between atoms: C_7  and  C_9 
REMARK    5  A    between atoms: O_26  and  C_22 
ROOT
ATOM      1  N   UNL d   1     -50.956  25.260  33.602  0.00  0.00    -0.254 N 
ATOM      2  C   UNL d   1     -50.034  26.221  33.736  0.00  0.00     0.101 A 
ATOM      3  C   UNL d   1     -51.331  25.988  33.493  0.00  0.00     0.305 A 
ATOM      4  C   UNL d   1     -50.763  26.586  33.575  0.00  0.00     0.256 A 
ATOM      5  C   UNL d   1     -50.153  25.404  33.753  0.00  0.00     0.081 A 
ATOM      6  O   UNL d   1     -52.131  26.109  33.330  0.00  0.00    -0.263 OA
ATOM      7  O   UNL d   1     -50.901  27.402  33.507  0.00  0.00    -0.281 OA
ENDROOT
BRANCH   2   8
ATOM      8  C   UNL d   1     -49.315  26.614  33.857  0.00  0.00     0.223 C 
ATOM      9  O   UNL d   1     -48.691  26.497  33.339  0.00  0.00    -0.284 OA
BRANCH   8  10
ATOM     10  C   UNL d   1     -49.225  27.124  34.502  0.00  0.00     0.139 A 
ATOM     11  O   UNL d   1     -48.711  27.768  34.539  0.00  0.00    -0.302 OA
ATOM     12  C   UNL d   1     -48.802  28.121  35.283  0.00  0.00     0.122 A 
ATOM     13  C   UNL d   1     -48.440  28.773  35.628  0.00  0.00     0.117 A 
ATOM     14  C   UNL d   1     -49.370  27.695  35.699  0.00  0.00     0.027 A 
ATOM     15  C   UNL d   1     -48.646  29.000  36.391  0.00  0.00     0.026 A 
ATOM     16  C   UNL d   1     -49.220  28.570  36.812  0.00  0.00     0.002 A 
ATOM     17  C   UNL d   1     -49.578  27.920  36.464  0.00  0.00     0.002 A 
ATOM     18  C   UNL d   1     -49.631  27.079  35.218  0.00  0.00     0.030 A 
BRANCH  13  19
ATOM     19  O   UNL d   1     -47.872  29.200  35.211  0.00  0.00    -0.326 OA
ATOM     20  C   UNL d   1     -47.395  29.755  35.605  0.00  0.00     0.181 C 
ENDBRANCH  13  19
ENDBRANCH   8  10
ENDBRANCH   2   8
BRANCH   5  21
ATOM     21  C   UNL d   1     -49.574  24.838  33.894  0.00  0.00     0.046 A 
ATOM     22  S   UNL d   1     -49.107  24.470  33.319  0.00  0.00    -0.085 SA
ATOM     23  C   UNL d   1     -48.599  23.941  33.697  0.00  0.00     0.035 A 
ATOM     24  C   UNL d   1     -48.753  23.980  34.513  0.00  0.00     0.007 A 
ATOM     25  C   UNL d   1     -49.353  24.534  34.627  0.00  0.00     0.009 A 
ENDBRANCH   5  21
BRANCH   1  26
ATOM     26  C   UNL d   1     -51.612  24.763  33.498  0.00  0.00     0.179 A 
ATOM     27  N   UNL d   1     -51.598  23.944  33.388  0.00  0.00    -0.108 NA
ATOM     28  O   UNL d   1     -52.380  23.676  33.308  0.00  0.00    -0.210 OA
ATOM     29  C   UNL d   1     -52.885  24.339  33.369  0.00  0.00     0.128 A 
ATOM     30  C   UNL d   1     -52.414  25.006  33.486  0.00  0.00     0.067 A 
ATOM     31  C   UNL d   1     -53.707  24.322  33.321  0.00  0.00     0.029 C 
ENDBRANCH   1  26
TORSDOF 5
ENDMDL
MODEL 2
REMARK VINA RESULT:      96.9      1.666      4.717
REMARK  5 active torsions:
REMARK  status: ('A' for Active; 'I' for Inactive)
REMARK    1  A    between atoms: C_4  and  N_1 
REMARK    2  A    between atoms: C_9  and  C_2 
REMARK    3  A    between atoms: C_14  and  C_6 
REMARK    4  A    between atoms: C_7  and  C_9 
REMARK    5  A    between atoms: O_26  and  C_22 
ROOT
ATOM      1  N   UNL d   1     -50.351  26.808  33.708  0.00  0.00    -0.254 N 
ATOM      2  C   UNL d   1     -51.025  25.666  33.526  0.00  0.00     0.101 A 
ATOM      3  C   UNL d   1     -51.152  26.994  33.638  0.00  0.00     0.305 A 
ATOM      4  C   UNL d   1     -51.573  26.290  33.525  0.00  0.00     0.256 A 
ATOM      5  C   UNL d   1     -50.272  25.985  33.638  0.00  0.00     0.081 A 
ATOM      6  O   UNL d   1     -51.486  27.749  33.673  0.00  0.00    -0.263 OA
ATOM      7  O   UNL d   1     -52.395  26.222  33.429  0.00  0.00    -0.281 OA
ENDROOT
BRANCH   2   8
ATOM      8  C   UNL d   1     -51.207  24.864  33.430  0.00  0.00     0.223 C 
ATOM      9  O   UNL d   1     -50.607  24.317  33.314  0.00  0.00    -0.284 OA
BRANCH   8  10
ATOM     10  C   UNL d   1     -51.994  24.612  33.451  0.00  0.00     0.139 A 
ATOM     11  O   UNL d   1     -52.658  25.099  33.395  0.00  0.00    -0.302 OA
ATOM     12  C   UNL d   1     -53.330  24.616  33.441  0.00  0.00     0.122 A 
ATOM     13  C   UNL d   1     -54.133  24.789  33.418  0.00  0.00     0.117 A 
ATOM     14  C   UNL d   1     -53.078  23.837  33.525  0.00  0.00     0.027 A 
ATOM     15  C   UNL d   1     -54.685  24.184  33.477  0.00  0.00     0.026 A 
ATOM     16  C   UNL d   1     -54.431  23.396  33.561  0.00  0.00     0.002 A 
ATOM     17  C   UNL d   1     -53.629  23.228  33.585  0.00  0.00     0.002 A 
ATOM     18  C   UNL d   1     -52.254  23.833  33.531  0.00  0.00     0.030 A 
BRANCH  13  19
ATOM     19  O   UNL d   1     -54.385  25.569  33.334  0.00  0.00    -0.326 OA
ATOM     20  C   UNL d   1     -55.160  25.781  33.544  0.00  0.00     0.181 C 
ENDBRANCH  13  19
ENDBRANCH   8  10
ENDBRANCH   2   8
BRANCH   5  21
ATOM     21  C   UNL d   1     -49.570  25.558  33.674  0.00  0.00     0.046 A 
ATOM     22  S   UNL d   1     -49.476  24.812  34.018  0.00  0.00    -0.085 SA
ATOM     23  C   UNL d   1     -48.687  24.585  33.934  0.00  0.00     0.035 A 
ATOM     24  C   UNL d   1     -48.289  25.195  33.535  0.00  0.00     0.007 A 
ATOM     25  C   UNL d   1     -48.838  25.790  33.379  0.00  0.00     0.009 A 
ENDBRANCH   5  21
BRANCH   1  26
ATOM     26  C   UNL d   1     -50.051  27.574  33.813  0.00  0.00     0.179 A 
ATOM     27  N   UNL d   1     -49.369  27.784  34.232  0.00  0.00    -0.108 NA
ATOM     28  O   UNL d   1     -49.281  28.609  34.193  0.00  0.00    -0.210 OA
ATOM     29  C   UNL d   1     -49.917  28.914  33.744  0.00  0.00     0.128 A 
ATOM     30  C   UNL d   1     -50.389  28.279  33.511  0.00  0.00     0.067 A 
ATOM     31  C   UNL d   1     -50.043  29.708  33.569  0.00  0.00     0.029 C 
ENDBRANCH   1  26
TORSDOF 5
ENDMDL
MODEL 3
REMARK VINA RESULT:      99.1      2.801      5.894
REMARK  5 active torsions:
REMARK  status: ('A' for Active; 'I' for Inactive)
REMARK    1  A    between atoms: C_4  and  N_1 
REMARK    2  A    between atoms: C_9  and  C_2 
REMARK    3  A    between atoms: C_14  and  C_6 
REMARK    4  A    between atoms: C_7  and  C_9 
REMARK    5  A    between atoms: O_26  and  C_22 
ROOT
ATOM      1  N   UNL d   1     -47.958  30.883  34.727  0.00  0.00    -0.254 N 
ATOM      2  C   UNL d   1     -48.474  29.660  34.894  0.00  0.00     0.101 A 
ATOM      3  C   UNL d   1     -48.647  30.835  34.274  0.00  0.00     0.305 A 
ATOM      4  C   UNL d   1     -48.970  30.078  34.375  0.00  0.00     0.256 A 
ATOM      5  C   UNL d   1     -47.851  30.156  35.111  0.00  0.00     0.081 A 
ATOM      6  O   UNL d   1     -48.967  31.431  33.801  0.00  0.00    -0.263 OA
ATOM      7  O   UNL d   1     -49.664  29.793  34.020  0.00  0.00    -0.281 OA
ENDROOT
BRANCH   2   8
ATOM      8  C   UNL d   1     -48.590  28.880  35.147  0.00  0.00     0.223 C 
ATOM      9  O   UNL d   1     -48.220  28.610  35.828  0.00  0.00    -0.284 OA
BRANCH   8  10
ATOM     10  C   UNL d   1     -49.078  28.372  34.715  0.00  0.00     0.139 A 
ATOM     11  O   UNL d   1     -48.879  27.612  34.462  0.00  0.00    -0.302 OA
ATOM     12  C   UNL d   1     -49.530  27.305  34.050  0.00  0.00     0.122 A 
ATOM     13  C   UNL d   1     -49.652  26.583  33.678  0.00  0.00     0.117 A 
ATOM     14  C   UNL d   1     -50.123  27.875  34.050  0.00  0.00     0.027 A 
ATOM     15  C   UNL d   1     -50.368  26.429  33.306  0.00  0.00     0.026 A 
ATOM     16  C   UNL d   1     -50.969  27.004  33.306  0.00  0.00     0.002 A 
ATOM     17  C   UNL d   1     -50.842  27.724  33.678  0.00  0.00     0.002 A 
ATOM     18  C   UNL d   1     -49.845  28.534  34.460  0.00  0.00     0.030 A 
BRANCH  13  19
ATOM     19  O   UNL d   1     -49.058  26.012  33.677  0.00  0.00    -0.326 OA
ATOM     20  C   UNL d   1     -49.188  25.275  33.318  0.00  0.00     0.181 C 
ENDBRANCH  13  19
ENDBRANCH   8  10
ENDBRANCH   2   8
BRANCH   5  21
ATOM     21  C   UNL d   1     -47.234  29.958  35.618  0.00  0.00     0.046 A 
ATOM     22  S   UNL d   1     -47.186  30.157  36.419  0.00  0.00    -0.085 SA
ATOM     23  C   UNL d   1     -46.480  29.852  36.720  0.00  0.00     0.035 A 
ATOM     24  C   UNL d   1     -46.088  29.461  36.100  0.00  0.00     0.007 A 
ATOM     25  C   UNL d   1     -46.558  29.531  35.426  0.00  0.00     0.009 A 
ENDBRANCH   5  21
BRANCH   1  26
ATOM     26  C   UNL d   1     -47.741  31.662  34.544  0.00  0.00     0.179 A 
ATOM     27  N   UNL d   1     -48.023  32.351  34.904  0.00  0.00    -0.108 NA
ATOM     28  O   UNL d   1     -47.656  33.004  34.546  0.00  0.00    -0.210 OA
ATOM     29  C   UNL d   1     -47.138  32.716  33.956  0.00  0.00     0.128 A 
ATOM     30  C   UNL d   1     -47.191  31.893  33.955  0.00  0.00     0.067 A 
ATOM     31  C   UNL d   1     -46.663  33.178  33.467  0.00  0.00     0.029 C 
ENDBRANCH   1  26
TORSDOF 5
ENDMDL
