MODEL 1
REMARK VINA RESULT:     152.7      0.000      0.000
REMARK  4 active torsions:
REMARK  status: ('A' for Active; 'I' for Inactive)
REMARK    1  A    between atoms: C_6  and  C_1 
REMARK    2  A    between atoms: C_10  and  C_2 
REMARK       I    between atoms: N_14  and  C_6 
REMARK    3  A    between atoms: C_8  and  C_15 
REMARK    4  A    between atoms: C_21  and  N_14 
ROOT
ATOM      1  C   UNL d   1      58.980  39.952  54.640  0.00  0.00     0.283 C 
ATOM      2  N   UNL d   1      59.672  40.348  54.844  0.00  0.00    -0.208 NA
ATOM      3  O   UNL d   1      58.729  39.920  53.853  0.00  0.00    -0.265 OA
ENDROOT
BRANCH   2   4
ATOM      4  C   UNL d   1      60.116  40.716  54.253  0.00  0.00     0.085 A 
ATOM      5  C   UNL d   1      60.382  40.291  53.598  0.00  0.00     0.019 A 
ATOM      6  C   UNL d   1      60.826  40.662  53.009  0.00  0.00     0.003 A 
ATOM      7  C   UNL d   1      61.003  41.464  53.078  0.00  0.00     0.020 A 
ATOM      8  C   UNL d   1      60.743  41.901  53.729  0.00  0.00     0.003 A 
ATOM      9  C   UNL d   1      60.299  41.534  54.319  0.00  0.00     0.019 A 
BRANCH   7  10
ATOM     10  C   UNL d   1      61.446  41.838  52.491  0.00  0.00     0.118 A 
ATOM     11  N   UNL d   1      61.277  42.566  52.146  0.00  0.00    -0.059 NA
ATOM     12  C   UNL d   1      61.864  42.723  51.591  0.00  0.00     0.735 A 
ATOM     13  N   UNL d   1      61.975  43.366  51.085  0.00  0.00    -0.059 NA
ATOM     14  N   UNL d   1      62.389  42.102  51.591  0.00  0.00    -0.136 N 
ATOM     15  C   UNL d   1      62.623  43.373  50.579  0.00  0.00     0.119 A 
ATOM     16  C   UNL d   1      63.158  42.744  50.577  0.00  0.00     0.041 A 
ATOM     17  C   UNL d   1      63.044  42.109  51.080  0.00  0.00     0.100 A 
ATOM     18  C   UNL d   1      62.132  41.553  52.148  0.00  0.00     0.118 A 
ENDBRANCH   7  10
ENDBRANCH   2   4
BRANCH   1  19
ATOM     19  C   UNL d   1      58.528  39.580  55.223  0.00  0.00     0.102 A 
ATOM     20  C   UNL d   1      57.710  39.508  55.228  0.00  0.00     0.116 A 
ATOM     21  N   UNL d   1      57.498  39.096  55.918  0.00  0.00    -0.126 NA
ATOM     22  O   UNL d   1      58.193  38.922  56.328  0.00  0.00    -0.211 OA
ATOM     23  C   UNL d   1      58.831  39.219  55.901  0.00  0.00     0.131 A 
ATOM     24  C   UNL d   1      59.624  39.170  56.106  0.00  0.00     0.029 C 
BRANCH  20  25
ATOM     25  C   UNL d   1      57.193  39.784  54.667  0.00  0.00     0.031 A 
ATOM     26  C   UNL d   1      56.555  40.244  54.887  0.00  0.00     0.059 A 
ATOM     27 CL   UNL d   1      56.430  40.431  55.674  0.00  0.00    -0.082 Cl
ATOM     28  C   UNL d   1      56.033  40.522  54.308  0.00  0.00     0.011 A 
ATOM     29  C   UNL d   1      56.158  40.335  53.521  0.00  0.00     0.001 A 
ATOM     30  C   UNL d   1      56.799  39.872  53.294  0.00  0.00     0.000 A 
ATOM     31  C   UNL d   1      57.321  39.594  53.871  0.00  0.00     0.002 A 
ENDBRANCH  20  25
ENDBRANCH   1  19
TORSDOF 4
ENDMDL
MODEL 2
REMARK VINA RESULT:     153.5      4.271      6.598
REMARK  4 active torsions:
REMARK  status: ('A' for Active; 'I' for Inactive)
REMARK    1  A    between atoms: C_6  and  C_1 
REMARK    2  A    between atoms: C_10  and  C_2 
REMARK       I    between atoms: N_14  and  C_6 
REMARK    3  A    between atoms: C_8  and  C_15 
REMARK    4  A    between atoms: C_21  and  N_14 
ROOT
ATOM      1  C   UNL d   1      62.461  43.520  50.334  0.00  0.00     0.283 C 
ATOM      2  N   UNL d   1      61.899  43.900  49.867  0.00  0.00    -0.208 NA
ATOM      3  O   UNL d   1      62.845  43.924  50.945  0.00  0.00    -0.265 OA
ENDROOT
BRANCH   2   4
ATOM      4  C   UNL d   1      61.722  44.692  50.014  0.00  0.00     0.085 A 
ATOM      5  C   UNL d   1      62.197  45.296  49.713  0.00  0.00     0.019 A 
ATOM      6  C   UNL d   1      62.017  46.088  49.863  0.00  0.00     0.003 A 
ATOM      7  C   UNL d   1      61.354  46.274  50.316  0.00  0.00     0.020 A 
ATOM      8  C   UNL d   1      60.869  45.680  50.623  0.00  0.00     0.003 A 
ATOM      9  C   UNL d   1      61.047  44.888  50.476  0.00  0.00     0.019 A 
BRANCH   7  10
ATOM     10  C   UNL d   1      61.171  47.064  50.467  0.00  0.00     0.118 A 
ATOM     11  N   UNL d   1      61.002  47.639  49.903  0.00  0.00    -0.059 NA
ATOM     12  C   UNL d   1      60.851  48.344  50.301  0.00  0.00     0.735 A 
ATOM     13  N   UNL d   1      60.654  49.095  50.018  0.00  0.00    -0.059 NA
ATOM     14  N   UNL d   1      60.926  48.209  51.099  0.00  0.00    -0.136 N 
ATOM     15  C   UNL d   1      60.534  49.707  50.555  0.00  0.00     0.119 A 
ATOM     16  C   UNL d   1      60.609  49.573  51.365  0.00  0.00     0.041 A 
ATOM     17  C   UNL d   1      60.804  48.828  51.641  0.00  0.00     0.100 A 
ATOM     18  C   UNL d   1      61.123  47.417  51.205  0.00  0.00     0.118 A 
ENDBRANCH   7  10
ENDBRANCH   2   4
BRANCH   1  19
ATOM     19  C   UNL d   1      62.647  42.727  50.196  0.00  0.00     0.102 A 
ATOM     20  C   UNL d   1      62.544  42.107  50.724  0.00  0.00     0.116 A 
ATOM     21  N   UNL d   1      62.805  41.412  50.351  0.00  0.00    -0.126 NA
ATOM     22  O   UNL d   1      63.065  41.618  49.595  0.00  0.00    -0.211 OA
ATOM     23  C   UNL d   1      62.969  42.430  49.496  0.00  0.00     0.131 A 
ATOM     24  C   UNL d   1      63.156  42.868  48.829  0.00  0.00     0.029 C 
BRANCH  20  25
ATOM     25  C   UNL d   1      62.242  42.153  51.476  0.00  0.00     0.031 A 
ATOM     26  C   UNL d   1      61.819  41.528  51.789  0.00  0.00     0.059 A 
ATOM     27 CL   UNL d   1      61.694  40.850  51.347  0.00  0.00    -0.082 Cl
ATOM     28  C   UNL d   1      61.515  41.583  52.556  0.00  0.00     0.011 A 
ATOM     29  C   UNL d   1      61.640  42.262  52.998  0.00  0.00     0.001 A 
ATOM     30  C   UNL d   1      62.066  42.894  52.688  0.00  0.00     0.000 A 
ATOM     31  C   UNL d   1      62.370  42.839  51.921  0.00  0.00     0.002 A 
ENDBRANCH  20  25
ENDBRANCH   1  19
TORSDOF 4
ENDMDL
