MODEL 1
REMARK VINA RESULT:      -6.0      0.000      0.000
REMARK  4 active torsions:
REMARK  status: ('A' for Active; 'I' for Inactive)
REMARK    1  A    between atoms: C_3  and  C_1 
REMARK    2  A    between atoms: C_5  and  C_1 
REMARK    3  A    between atoms: C_2  and  C_3 
REMARK       I    between atoms: N_4  and  C_2 
REMARK    4  A    between atoms: C_6  and  N_4 
ROOT
ATOM      1  C   UNL d   1     -41.590-122.956 -52.021  0.00  0.00     0.279 C 
ATOM      2  N   UNL d   1     -41.435-122.343 -52.557  0.00  0.00    -0.208 NA
ATOM      3  O   UNL d   1     -41.869-123.676 -52.311  0.00  0.00    -0.265 OA
ENDROOT
BRANCH   1   4
ATOM      4  C   UNL d   1     -41.476-122.871 -51.204  0.00  0.00     0.063 C 
BRANCH   4   5
ATOM      5  C   UNL d   1     -42.097-122.833 -50.696  0.00  0.00     0.006 C 
BRANCH   5   6
ATOM      6  C   UNL d   1     -42.002-122.965 -49.878  0.00  0.00     0.011 A 
ATOM      7  C   UNL d   1     -42.624-122.893 -49.344  0.00  0.00     0.058 A 
ATOM      8 CL   UNL d   1     -43.373-122.682 -49.619  0.00  0.00    -0.082 Cl
ATOM      9  C   UNL d   1     -42.519-123.024 -48.552  0.00  0.00     0.011 A 
ATOM     10  C   UNL d   1     -41.758-123.239 -48.265  0.00  0.00     0.001 A 
ATOM     11  C   UNL d   1     -41.123-123.318 -48.777  0.00  0.00     0.000 A 
ATOM     12  C   UNL d   1     -41.242-123.180 -49.591  0.00  0.00     0.001 A 
ENDBRANCH   5   6
ENDBRANCH   4   5
ENDBRANCH   1   4
BRANCH   2  13
ATOM     13  C   UNL d   1     -41.549-122.428 -53.373  0.00  0.00     0.088 A 
ATOM     14  C   UNL d   1     -42.116-121.959 -53.746  0.00  0.00     0.061 A 
ATOM     15  C   UNL d   1     -42.251-122.017 -54.537  0.00  0.00     0.197 A 
ATOM     16  O   UNL d   1     -42.816-121.549 -54.908  0.00  0.00    -0.286 OA
ATOM     17  C   UNL d   1     -41.804-122.565 -54.985  0.00  0.00     0.042 A 
ATOM     18  C   UNL d   1     -41.237-123.034 -54.612  0.00  0.00     0.005 A 
ATOM     19  C   UNL d   1     -41.123-122.950 -53.796  0.00  0.00     0.019 A 
ENDBRANCH   2  13
TORSDOF 4
ENDMDL
MODEL 2
REMARK VINA RESULT:      -5.5      1.590      4.639
REMARK  4 active torsions:
REMARK  status: ('A' for Active; 'I' for Inactive)
REMARK    1  A    between atoms: C_3  and  C_1 
REMARK    2  A    between atoms: C_5  and  C_1 
REMARK    3  A    between atoms: C_2  and  C_3 
REMARK       I    between atoms: N_4  and  C_2 
REMARK    4  A    between atoms: C_6  and  N_4 
ROOT
ATOM      1  C   UNL d   1     -41.380-122.667 -51.616  0.00  0.00     0.279 C 
ATOM      2  N   UNL d   1     -41.630-123.302 -51.147  0.00  0.00    -0.208 NA
ATOM      3  O   UNL d   1     -41.212-121.946 -51.252  0.00  0.00    -0.265 OA
ENDROOT
BRANCH   1   4
ATOM      4  C   UNL d   1     -41.291-122.729 -52.439  0.00  0.00     0.063 C 
BRANCH   4   5
ATOM      5  C   UNL d   1     -41.681-122.237 -52.940  0.00  0.00     0.006 C 
BRANCH   5   6
ATOM      6  C   UNL d   1     -41.665-122.353 -53.767  0.00  0.00     0.011 A 
ATOM      7  C   UNL d   1     -42.123-121.905 -54.284  0.00  0.00     0.058 A 
ATOM      8 CL   UNL d   1     -42.619-121.318 -53.982  0.00  0.00    -0.082 Cl
ATOM      9  C   UNL d   1     -42.099-122.027 -55.083  0.00  0.00     0.011 A 
ATOM     10  C   UNL d   1     -41.596-122.624 -55.396  0.00  0.00     0.001 A 
ATOM     11  C   UNL d   1     -41.130-123.083 -54.902  0.00  0.00     0.000 A 
ATOM     12  C   UNL d   1     -41.162-122.949 -54.080  0.00  0.00     0.001 A 
ENDBRANCH   5   6
ENDBRANCH   4   5
ENDBRANCH   1   4
BRANCH   2  13
ATOM     13  C   UNL d   1     -41.718-123.240 -50.326  0.00  0.00     0.088 A 
ATOM     14  C   UNL d   1     -42.440-122.979 -50.022  0.00  0.00     0.061 A 
ATOM     15  C   UNL d   1     -42.558-122.908 -49.230  0.00  0.00     0.197 A 
ATOM     16  O   UNL d   1     -43.276-122.648 -48.927  0.00  0.00    -0.286 OA
ATOM     17  C   UNL d   1     -41.932-123.104 -48.709  0.00  0.00     0.042 A 
ATOM     18  C   UNL d   1     -41.211-123.364 -49.012  0.00  0.00     0.005 A 
ATOM     19  C   UNL d   1     -41.122-123.427 -49.833  0.00  0.00     0.019 A 
ENDBRANCH   2  13
TORSDOF 4
ENDMDL
