MODEL 1
REMARK VINA RESULT:      22.2      0.000      0.000
REMARK  4 active torsions:
REMARK  status: ('A' for Active; 'I' for Inactive)
REMARK    1  A    between atoms: N_8  and  C_7 
REMARK    2  A    between atoms: C_9  and  N_8 
REMARK    3  A    between atoms: O_15  and  C_10 
REMARK    4  A    between atoms: C_16  and  O_15 
ROOT
ATOM      1  C   UNL d   1      59.465  49.594  50.293  0.00  0.00     0.082 A 
ATOM      2  C   UNL d   1      60.597  49.372  51.465  0.00  0.00     0.100 A 
ATOM      3  C   UNL d   1      59.265  49.708  51.083  0.00  0.00     0.021 A 
ATOM      4  C   UNL d   1      60.227  49.369  50.084  0.00  0.00     0.021 A 
ATOM      5  C   UNL d   1      59.832  49.597  51.672  0.00  0.00     0.026 A 
ATOM      6  C   UNL d   1      60.799  49.257  50.674  0.00  0.00     0.026 A 
ENDROOT
BRANCH   1   7
ATOM      7  N   UNL d   1      58.894  49.706  49.703  0.00  0.00    -0.245 NA
BRANCH   7   8
ATOM      8  C   UNL d   1      58.069  49.638  49.797  0.00  0.00     0.093 A 
ATOM      9  C   UNL d   1      57.451  49.671  50.349  0.00  0.00     0.118 A 
ATOM     10  S   UNL d   1      56.755  49.530  49.952  0.00  0.00     0.213 S 
ATOM     11  C   UNL d   1      56.927  49.408  49.153  0.00  0.00     0.100 A 
ATOM     12  O   UNL d   1      56.041  49.386  49.543  0.00  0.00    -0.217 OA
ATOM     13  O   UNL d   1      56.526  49.644  50.736  0.00  0.00    -0.217 OA
ATOM     14  C   UNL d   1      57.741  49.475  49.059  0.00  0.00     0.032 A 
ENDBRANCH   7   8
ENDBRANCH   1   7
BRANCH   2  15
ATOM     15  O   UNL d   1      61.168  49.260  52.055  0.00  0.00    -0.305 OA
BRANCH  15  16
ATOM     16  C   UNL d   1      61.113  49.680  52.762  0.00  0.00     0.123 C 
ATOM     17  C   UNL d   1      61.757  49.688  53.287  0.00  0.00     0.029 C 
ENDBRANCH  15  16
ENDBRANCH   2  15
TORSDOF 4
ENDMDL
