MODEL 1
REMARK VINA RESULT:      -2.0      0.000      0.000
REMARK  2 active torsions:
REMARK  status: ('A' for Active; 'I' for Inactive)
REMARK    1  A    between atoms: C_6  and  C_1 
REMARK    2  A    between atoms: C_8  and  C_5 
ROOT
ATOM      1  C   UNL d   1      45.134 -12.627  43.343  0.00  0.00     0.169 A 
ATOM      2  C   UNL d   1      44.985 -13.397  43.618  0.00  0.00     0.048 A 
ATOM      3  N   UNL d   1      45.897 -12.842  44.411  0.00  0.00    -0.148 NA
ATOM      4  N   UNL d   1      45.702 -12.282  43.837  0.00  0.00    -0.142 NA
ATOM      5  C   UNL d   1      45.450 -13.526  44.267  0.00  0.00     0.105 A 
ENDROOT
BRANCH   1   6
ATOM      6  C   UNL d   1      44.780 -12.265  42.692  0.00  0.00     0.231 C 
ATOM      7  O   UNL d   1      43.977 -12.080  42.704  0.00  0.00    -0.643 OA
ATOM      8  O   UNL d   1      45.235 -12.088  42.024  0.00  0.00    -0.643 OA
ENDBRANCH   1   6
BRANCH   5   9
ATOM      9  C   UNL d   1      45.473 -14.223  44.711  0.00  0.00     0.019 C 
ATOM     10  C   UNL d   1      44.779 -14.600  44.923  0.00  0.00     0.002 C 
ATOM     11  C   UNL d   1      46.198 -14.537  44.940  0.00  0.00     0.002 C 
ENDBRANCH   5   9
TORSDOF 2
ENDMDL
MODEL 2
REMARK VINA RESULT:      -0.8      1.770      2.654
REMARK  2 active torsions:
REMARK  status: ('A' for Active; 'I' for Inactive)
REMARK    1  A    between atoms: C_6  and  C_1 
REMARK    2  A    between atoms: C_8  and  C_5 
ROOT
ATOM      1  C   UNL d   1      45.532 -13.898  44.427  0.00  0.00     0.169 A 
ATOM      2  C   UNL d   1      45.142 -13.625  43.747  0.00  0.00     0.048 A 
ATOM      3  N   UNL d   1      45.856 -12.622  44.245  0.00  0.00    -0.148 NA
ATOM      4  N   UNL d   1      45.977 -13.273  44.737  0.00  0.00    -0.142 NA
ATOM      5  C   UNL d   1      45.340 -12.849  43.638  0.00  0.00     0.105 A 
ENDROOT
BRANCH   1   6
ATOM      6  C   UNL d   1      45.487 -14.659  44.743  0.00  0.00     0.231 C 
ATOM      7  O   UNL d   1      44.755 -15.024  44.847  0.00  0.00    -0.643 OA
ATOM      8  O   UNL d   1      46.182 -15.056  44.955  0.00  0.00    -0.643 OA
ENDBRANCH   1   6
BRANCH   5   9
ATOM      9  C   UNL d   1      45.072 -12.365  43.022  0.00  0.00     0.019 C 
ATOM     10  C   UNL d   1      44.305 -12.080  43.028  0.00  0.00     0.002 C 
ATOM     11  C   UNL d   1      45.579 -12.172  42.405  0.00  0.00     0.002 C 
ENDBRANCH   5   9
TORSDOF 2
ENDMDL
MODEL 3
REMARK VINA RESULT:      -0.7      5.915      6.260
REMARK  2 active torsions:
REMARK  status: ('A' for Active; 'I' for Inactive)
REMARK    1  A    between atoms: C_6  and  C_1 
REMARK    2  A    between atoms: C_8  and  C_5 
ROOT
ATOM      1  C   UNL d   1      46.568 -18.900  42.215  0.00  0.00     0.169 A 
ATOM      2  C   UNL d   1      46.567 -19.464  42.824  0.00  0.00     0.048 A 
ATOM      3  N   UNL d   1      46.469 -18.259  43.376  0.00  0.00    -0.148 NA
ATOM      4  N   UNL d   1      46.507 -18.149  42.559  0.00  0.00    -0.142 NA
ATOM      5  C   UNL d   1      46.507 -19.073  43.529  0.00  0.00     0.105 A 
ENDROOT
BRANCH   1   6
ATOM      6  C   UNL d   1      46.620 -19.055  41.406  0.00  0.00     0.231 C 
ATOM      7  O   UNL d   1      46.647 -18.433  40.864  0.00  0.00    -0.643 OA
ATOM      8  O   UNL d   1      46.647 -19.837  41.140  0.00  0.00    -0.643 OA
ENDBRANCH   1   6
BRANCH   5   9
ATOM      9  C   UNL d   1      46.486 -19.428  44.276  0.00  0.00     0.019 C 
ATOM     10  C   UNL d   1      46.643 -18.985  44.946  0.00  0.00     0.002 C 
ATOM     11  C   UNL d   1      46.308 -20.227  44.343  0.00  0.00     0.002 C 
ENDBRANCH   5   9
TORSDOF 2
ENDMDL
MODEL 4
REMARK VINA RESULT:      -0.5      7.072      7.592
REMARK  2 active torsions:
REMARK  status: ('A' for Active; 'I' for Inactive)
REMARK    1  A    between atoms: C_6  and  C_1 
REMARK    2  A    between atoms: C_8  and  C_5 
ROOT
ATOM      1  C   UNL d   1      43.955 -15.555  36.783  0.00  0.00     0.169 A 
ATOM      2  C   UNL d   1      44.494 -14.987  37.061  0.00  0.00     0.048 A 
ATOM      3  N   UNL d   1      45.165 -15.875  36.334  0.00  0.00    -0.148 NA
ATOM      4  N   UNL d   1      44.373 -16.107  36.330  0.00  0.00    -0.142 NA
ATOM      5  C   UNL d   1      45.229 -15.184  36.787  0.00  0.00     0.105 A 
ENDROOT
BRANCH   1   6
ATOM      6  C   UNL d   1      43.143 -15.569  36.929  0.00  0.00     0.231 C 
ATOM      7  O   UNL d   1      42.622 -15.847  36.354  0.00  0.00    -0.643 OA
ATOM      8  O   UNL d   1      42.853 -15.304  37.657  0.00  0.00    -0.643 OA
ENDBRANCH   1   6
BRANCH   5   9
ATOM      9  C   UNL d   1      45.926 -14.764  36.936  0.00  0.00     0.019 C 
ATOM     10  C   UNL d   1      46.647 -15.064  36.693  0.00  0.00     0.002 C 
ATOM     11  C   UNL d   1      45.892 -14.043  37.330  0.00  0.00     0.002 C 
ENDBRANCH   5   9
TORSDOF 2
ENDMDL
MODEL 5
REMARK VINA RESULT:      -0.1      7.307      7.689
REMARK  2 active torsions:
REMARK  status: ('A' for Active; 'I' for Inactive)
REMARK    1  A    between atoms: C_6  and  C_1 
REMARK    2  A    between atoms: C_8  and  C_5 
ROOT
ATOM      1  C   UNL d   1      45.238 -15.217  36.704  0.00  0.00     0.169 A 
ATOM      2  C   UNL d   1      44.465 -15.001  36.919  0.00  0.00     0.048 A 
ATOM      3  N   UNL d   1      44.414 -16.194  36.334  0.00  0.00    -0.148 NA
ATOM      4  N   UNL d   1      45.206 -15.960  36.340  0.00  0.00    -0.142 NA
ATOM      5  C   UNL d   1      43.965 -15.596  36.693  0.00  0.00     0.105 A 
ENDROOT
BRANCH   1   6
ATOM      6  C   UNL d   1      45.921 -14.773  36.829  0.00  0.00     0.231 C 
ATOM      7  O   UNL d   1      45.924 -14.160  37.382  0.00  0.00    -0.643 OA
ATOM      8  O   UNL d   1      46.606 -14.944  36.398  0.00  0.00    -0.643 OA
ENDBRANCH   1   6
BRANCH   5   9
ATOM      9  C   UNL d   1      43.145 -15.604  36.803  0.00  0.00     0.019 C 
ATOM     10  C   UNL d   1      42.672 -16.073  36.330  0.00  0.00     0.002 C 
ATOM     11  C   UNL d   1      42.809 -15.138  37.390  0.00  0.00     0.002 C 
ENDBRANCH   5   9
TORSDOF 2
ENDMDL
