MODEL 1
REMARK VINA RESULT:      -9.1      0.000      0.000
REMARK  5 active torsions:
REMARK  status: ('A' for Active; 'I' for Inactive)
REMARK    1  A    between atoms: N_3  and  S_1 
REMARK    2  A    between atoms: C_4  and  S_1 
REMARK    3  A    between atoms: S_2  and  N_5 
REMARK    4  A    between atoms: C_8  and  N_3 
REMARK    5  A    between atoms: N_5  and  C_15 
ROOT
ATOM      1  N   UNL d   1      53.334  32.942  53.275  0.00  0.00    -0.229 N 
ATOM      2  C   UNL d   1      54.003  33.420  53.293  0.00  0.00     0.111 C 
ENDROOT
BRANCH   1   3
ATOM      3  S   UNL d   1      52.591  33.277  53.130  0.00  0.00     0.271 S 
ATOM      4  O   UNL d   1      52.974  32.850  52.538  0.00  0.00    -0.200 OA
ATOM      5  O   UNL d   1      52.950  33.373  53.876  0.00  0.00    -0.200 OA
BRANCH   3   6
ATOM      6  C   UNL d   1      51.846  33.612  52.985  0.00  0.00     0.104 A 
ATOM      7  C   UNL d   1      51.207  33.431  53.473  0.00  0.00     0.013 A 
ATOM      8  C   UNL d   1      50.477  33.760  53.331  0.00  0.00     0.001 A 
ATOM      9  C   UNL d   1      50.372  34.276  52.699  0.00  0.00     0.000 A 
ATOM     10  C   UNL d   1      51.007  34.461  52.208  0.00  0.00     0.001 A 
ATOM     11  C   UNL d   1      49.625  34.607  52.561  0.00  0.00     0.000 C 
ATOM     12  C   UNL d   1      51.741  34.130  52.351  0.00  0.00     0.013 A 
ENDBRANCH   3   6
ENDBRANCH   1   3
BRANCH   1  13
ATOM     13  C   UNL d   1      53.402  32.127  53.401  0.00  0.00     0.075 A 
ATOM     14  C   UNL d   1      53.623  31.843  54.147  0.00  0.00     0.020 A 
ATOM     15  C   UNL d   1      53.690  31.030  54.269  0.00  0.00     0.021 A 
ATOM     16  C   UNL d   1      53.536  30.500  53.647  0.00  0.00     0.094 A 
ATOM     17  C   UNL d   1      53.317  30.791  52.906  0.00  0.00     0.021 A 
ATOM     18  C   UNL d   1      53.250  31.601  52.785  0.00  0.00     0.020 A 
BRANCH  16  19
ATOM     19  N   UNL d   1      53.604  29.684  53.772  0.00  0.00    -0.162 NA
BRANCH  19  20
ATOM     20  S   UNL d   1      52.999  29.268  54.167  0.00  0.00     0.266 S 
ATOM     21  O   UNL d   1      52.213  29.398  53.967  0.00  0.00    -0.203 OA
ATOM     22  O   UNL d   1      53.799  29.140  54.366  0.00  0.00    -0.203 OA
ATOM     23  C   UNL d   1      53.194  28.724  54.761  0.00  0.00     0.165 C 
ENDBRANCH  19  20
ENDBRANCH  16  19
ENDBRANCH   1  13
TORSDOF 5
ENDMDL
MODEL 2
REMARK VINA RESULT:      -9.0      1.991      4.561
REMARK  5 active torsions:
REMARK  status: ('A' for Active; 'I' for Inactive)
REMARK    1  A    between atoms: N_3  and  S_1 
REMARK    2  A    between atoms: C_4  and  S_1 
REMARK    3  A    between atoms: S_2  and  N_5 
REMARK    4  A    between atoms: C_8  and  N_3 
REMARK    5  A    between atoms: N_5  and  C_15 
ROOT
ATOM      1  N   UNL d   1      52.363  32.726  53.050  0.00  0.00    -0.229 N 
ATOM      2  C   UNL d   1      52.361  31.992  52.679  0.00  0.00     0.111 C 
ENDROOT
BRANCH   1   3
ATOM      3  S   UNL d   1      53.004  32.946  53.526  0.00  0.00     0.271 S 
ATOM      4  O   UNL d   1      52.949  33.223  52.752  0.00  0.00    -0.200 OA
ATOM      5  O   UNL d   1      52.414  32.443  53.833  0.00  0.00    -0.200 OA
BRANCH   3   6
ATOM      6  C   UNL d   1      53.645  33.167  54.003  0.00  0.00     0.104 A 
ATOM      7  C   UNL d   1      53.515  33.548  54.723  0.00  0.00     0.013 A 
ATOM      8  C   UNL d   1      54.145  33.764  55.190  0.00  0.00     0.001 A 
ATOM      9  C   UNL d   1      54.914  33.604  54.948  0.00  0.00     0.000 A 
ATOM     10  C   UNL d   1      55.050  33.224  54.230  0.00  0.00     0.001 A 
ATOM     11  C   UNL d   1      55.550  33.828  55.431  0.00  0.00     0.000 C 
ATOM     12  C   UNL d   1      54.417  33.006  53.760  0.00  0.00     0.013 A 
ENDBRANCH   3   6
ENDBRANCH   1   3
BRANCH   1  13
ATOM     13  C   UNL d   1      51.726  33.244  52.949  0.00  0.00     0.075 A 
ATOM     14  C   UNL d   1      51.032  33.132  53.386  0.00  0.00     0.020 A 
ATOM     15  C   UNL d   1      50.398  33.651  53.283  0.00  0.00     0.021 A 
ATOM     16  C   UNL d   1      50.458  34.282  52.744  0.00  0.00     0.094 A 
ATOM     17  C   UNL d   1      51.155  34.386  52.312  0.00  0.00     0.021 A 
ATOM     18  C   UNL d   1      51.785  33.869  52.415  0.00  0.00     0.020 A 
BRANCH  16  19
ATOM     19  N   UNL d   1      49.821  34.801  52.642  0.00  0.00    -0.162 NA
BRANCH  19  20
ATOM     20  S   UNL d   1      49.298  34.703  51.999  0.00  0.00     0.266 S 
ATOM     21  O   UNL d   1      49.530  34.265  51.344  0.00  0.00    -0.203 OA
ATOM     22  O   UNL d   1      49.069  35.148  52.668  0.00  0.00    -0.203 OA
ATOM     23  C   UNL d   1      48.546  35.050  52.025  0.00  0.00     0.165 C 
ENDBRANCH  19  20
ENDBRANCH  16  19
ENDBRANCH   1  13
TORSDOF 5
ENDMDL
MODEL 3
REMARK VINA RESULT:      -8.6      1.971      4.732
REMARK  5 active torsions:
REMARK  status: ('A' for Active; 'I' for Inactive)
REMARK    1  A    between atoms: N_3  and  S_1 
REMARK    2  A    between atoms: C_4  and  S_1 
REMARK    3  A    between atoms: S_2  and  N_5 
REMARK    4  A    between atoms: C_8  and  N_3 
REMARK    5  A    between atoms: N_5  and  C_15 
ROOT
ATOM      1  N   UNL d   1      52.396  33.804  53.195  0.00  0.00    -0.229 N 
ATOM      2  C   UNL d   1      52.901  34.420  53.402  0.00  0.00     0.111 C 
ENDROOT
BRANCH   1   3
ATOM      3  S   UNL d   1      52.652  33.020  53.261  0.00  0.00     0.271 S 
ATOM      4  O   UNL d   1      52.242  33.376  53.882  0.00  0.00    -0.200 OA
ATOM      5  O   UNL d   1      52.810  33.449  52.564  0.00  0.00    -0.200 OA
BRANCH   3   6
ATOM      6  C   UNL d   1      52.909  32.234  53.328  0.00  0.00     0.104 A 
ATOM      7  C   UNL d   1      53.521  32.040  53.846  0.00  0.00     0.013 A 
ATOM      8  C   UNL d   1      53.773  31.270  53.911  0.00  0.00     0.001 A 
ATOM      9  C   UNL d   1      53.418  30.679  53.462  0.00  0.00     0.000 A 
ATOM     10  C   UNL d   1      52.806  30.867  52.943  0.00  0.00     0.001 A 
ATOM     11  C   UNL d   1      53.681  29.896  53.534  0.00  0.00     0.000 C 
ATOM     12  C   UNL d   1      52.553  31.642  52.877  0.00  0.00     0.013 A 
ENDBRANCH   3   6
ENDBRANCH   1   3
BRANCH   1  13
ATOM     13  C   UNL d   1      51.632  33.968  52.920  0.00  0.00     0.075 A 
ATOM     14  C   UNL d   1      51.521  34.216  52.138  0.00  0.00     0.020 A 
ATOM     15  C   UNL d   1      50.759  34.377  51.868  0.00  0.00     0.021 A 
ATOM     16  C   UNL d   1      50.107  34.292  52.378  0.00  0.00     0.094 A 
ATOM     17  C   UNL d   1      50.227  34.044  53.157  0.00  0.00     0.021 A 
ATOM     18  C   UNL d   1      50.987  33.883  53.425  0.00  0.00     0.020 A 
BRANCH  16  19
ATOM     19  N   UNL d   1      49.343  34.455  52.104  0.00  0.00    -0.162 NA
BRANCH  19  20
ATOM     20  S   UNL d   1      48.945  35.144  52.355  0.00  0.00     0.266 S 
ATOM     21  O   UNL d   1      49.157  35.506  53.062  0.00  0.00    -0.203 OA
ATOM     22  O   UNL d   1      48.735  34.772  51.638  0.00  0.00    -0.203 OA
ATOM     23  C   UNL d   1      48.337  35.460  51.889  0.00  0.00     0.165 C 
ENDBRANCH  19  20
ENDBRANCH  16  19
ENDBRANCH   1  13
TORSDOF 5
ENDMDL
MODEL 4
REMARK VINA RESULT:      -8.3      1.575      4.316
REMARK  5 active torsions:
REMARK  status: ('A' for Active; 'I' for Inactive)
REMARK    1  A    between atoms: N_3  and  S_1 
REMARK    2  A    between atoms: C_4  and  S_1 
REMARK    3  A    between atoms: S_2  and  N_5 
REMARK    4  A    between atoms: C_8  and  N_3 
REMARK    5  A    between atoms: N_5  and  C_15 
ROOT
ATOM      1  N   UNL d   1      53.390  33.018  53.374  0.00  0.00    -0.229 N 
ATOM      2  C   UNL d   1      54.134  33.362  53.438  0.00  0.00     0.111 C 
ENDROOT
BRANCH   1   3
ATOM      3  S   UNL d   1      53.310  32.195  53.422  0.00  0.00     0.271 S 
ATOM      4  O   UNL d   1      53.408  32.560  52.689  0.00  0.00    -0.200 OA
ATOM      5  O   UNL d   1      53.291  32.654  54.118  0.00  0.00    -0.200 OA
BRANCH   3   6
ATOM      6  C   UNL d   1      53.230  31.371  53.470  0.00  0.00     0.104 A 
ATOM      7  C   UNL d   1      53.594  30.954  54.081  0.00  0.00     0.013 A 
ATOM      8  C   UNL d   1      53.516  30.146  54.128  0.00  0.00     0.001 A 
ATOM      9  C   UNL d   1      53.072  29.740  53.566  0.00  0.00     0.000 A 
ATOM     10  C   UNL d   1      52.706  30.151  52.954  0.00  0.00     0.001 A 
ATOM     11  C   UNL d   1      52.997  28.916  53.621  0.00  0.00     0.000 C 
ATOM     12  C   UNL d   1      52.785  30.964  52.907  0.00  0.00     0.013 A 
ENDBRANCH   3   6
ENDBRANCH   1   3
BRANCH   1  13
ATOM     13  C   UNL d   1      52.721  33.492  53.262  0.00  0.00     0.075 A 
ATOM     14  C   UNL d   1      52.244  33.690  53.909  0.00  0.00     0.020 A 
ATOM     15  C   UNL d   1      51.578  34.163  53.794  0.00  0.00     0.021 A 
ATOM     16  C   UNL d   1      51.387  34.438  53.032  0.00  0.00     0.094 A 
ATOM     17  C   UNL d   1      51.869  34.236  52.392  0.00  0.00     0.021 A 
ATOM     18  C   UNL d   1      52.532  33.765  52.508  0.00  0.00     0.020 A 
BRANCH  16  19
ATOM     19  N   UNL d   1      50.718  34.913  52.919  0.00  0.00    -0.162 NA
BRANCH  19  20
ATOM     20  S   UNL d   1      50.005  34.575  52.649  0.00  0.00     0.266 S 
ATOM     21  O   UNL d   1      50.022  33.938  52.131  0.00  0.00    -0.203 OA
ATOM     22  O   UNL d   1      49.994  35.223  53.176  0.00  0.00    -0.203 OA
ATOM     23  C   UNL d   1      49.280  34.885  52.906  0.00  0.00     0.165 C 
ENDBRANCH  19  20
ENDBRANCH  16  19
ENDBRANCH   1  13
TORSDOF 5
ENDMDL
