MODEL 1
REMARK VINA RESULT:      -9.3      0.000      0.000
REMARK  5 active torsions:
REMARK  status: ('A' for Active; 'I' for Inactive)
REMARK    1  A    between atoms: C_6  and  S_1 
REMARK    2  A    between atoms: C_9  and  S_1 
REMARK    3  A    between atoms: C_2  and  S_11 
REMARK    4  A    between atoms: N_4  and  C_3 
REMARK    5  A    between atoms: S_11  and  C_10 
ROOT
ATOM      1  C   UNL d   1      53.754  32.095  53.720  0.00  0.00     0.133 A 
ATOM      2  C   UNL d   1      53.810  31.285  53.864  0.00  0.00     0.035 A 
ATOM      3  C   UNL d   1      53.166  30.792  53.707  0.00  0.00     0.094 A 
ATOM      4  C   UNL d   1      53.049  32.412  53.419  0.00  0.00     0.054 A 
ATOM      5  C   UNL d   1      52.467  31.112  53.407  0.00  0.00     0.012 A 
ATOM      6  C   UNL d   1      52.410  31.920  53.263  0.00  0.00     0.009 A 
ENDROOT
BRANCH   4   7
ATOM      7  S   UNL d   1      52.991  33.223  53.274  0.00  0.00    -0.047 SA
BRANCH   7   8
ATOM      8  C   UNL d   1      52.272  33.547  53.032  0.00  0.00     0.194 A 
ATOM      9  N   UNL d   1      52.015  33.620  52.255  0.00  0.00    -0.220 NA
ATOM     10  C   UNL d   1      51.267  33.973  52.269  0.00  0.00     0.101 A 
ATOM     11  C   UNL d   1      50.748  34.180  51.672  0.00  0.00     0.021 A 
ATOM     12  C   UNL d   1      51.073  34.113  53.060  0.00  0.00     0.101 A 
ATOM     13  C   UNL d   1      50.029  34.530  51.854  0.00  0.00     0.002 A 
ATOM     14  C   UNL d   1      49.829  34.673  52.646  0.00  0.00     0.002 A 
ATOM     15  C   UNL d   1      50.352  34.464  53.247  0.00  0.00     0.021 A 
ATOM     16  N   UNL d   1      51.691  33.851  53.528  0.00  0.00    -0.220 NA
ENDBRANCH   7   8
ENDBRANCH   4   7
BRANCH   1  17
ATOM     17  N   UNL d   1      54.397  32.590  53.876  0.00  0.00    -0.113 N 
ATOM     18  O   UNL d   1      54.484  32.929  54.623  0.00  0.00    -0.532 OA
ATOM     19  O   UNL d   1      54.951  32.746  53.286  0.00  0.00    -0.532 OA
ENDBRANCH   1  17
BRANCH   3  20
ATOM     20  S   UNL d   1      53.223  29.987  53.850  0.00  0.00     0.278 S 
ATOM     21  O   UNL d   1      53.207  30.121  54.659  0.00  0.00    -0.213 OA
ATOM     22  O   UNL d   1      53.281  29.178  53.995  0.00  0.00    -0.213 OA
BRANCH  20  23
ATOM     23  C   UNL d   1      53.241  29.844  53.036  0.00  0.00     0.503 C 
ATOM     24  F   UNL d   1      53.254  29.714  52.296  0.00  0.00    -0.157 F 
ATOM     25  F   UNL d   1      52.588  29.661  52.501  0.00  0.00    -0.157 F 
ATOM     26  F   UNL d   1      53.915  29.839  52.495  0.00  0.00    -0.157 F 
ENDBRANCH  20  23
ENDBRANCH   3  20
TORSDOF 5
ENDMDL
MODEL 2
REMARK VINA RESULT:      -9.1      2.923      4.254
REMARK  5 active torsions:
REMARK  status: ('A' for Active; 'I' for Inactive)
REMARK    1  A    between atoms: C_6  and  S_1 
REMARK    2  A    between atoms: C_9  and  S_1 
REMARK    3  A    between atoms: C_2  and  S_11 
REMARK    4  A    between atoms: N_4  and  C_3 
REMARK    5  A    between atoms: S_11  and  C_10 
ROOT
ATOM      1  C   UNL d   1      54.333  33.765  54.725  0.00  0.00     0.133 A 
ATOM      2  C   UNL d   1      53.953  34.497  54.712  0.00  0.00     0.035 A 
ATOM      3  C   UNL d   1      53.157  34.546  54.497  0.00  0.00     0.094 A 
ATOM      4  C   UNL d   1      53.914  33.080  54.522  0.00  0.00     0.054 A 
ATOM      5  C   UNL d   1      52.743  33.859  54.296  0.00  0.00     0.012 A 
ATOM      6  C   UNL d   1      53.122  33.129  54.309  0.00  0.00     0.009 A 
ENDROOT
BRANCH   4   7
ATOM      7  S   UNL d   1      54.293  32.346  54.535  0.00  0.00    -0.047 SA
BRANCH   7   8
ATOM      8  C   UNL d   1      53.925  31.687  54.201  0.00  0.00     0.194 A 
ATOM      9  N   UNL d   1      53.777  31.574  53.400  0.00  0.00    -0.220 NA
ATOM     10  C   UNL d   1      53.401  30.842  53.314  0.00  0.00     0.101 A 
ATOM     11  C   UNL d   1      53.126  30.443  52.656  0.00  0.00     0.021 A 
ATOM     12  C   UNL d   1      53.322  30.514  54.068  0.00  0.00     0.101 A 
ATOM     13  C   UNL d   1      52.768  29.710  52.741  0.00  0.00     0.002 A 
ATOM     14  C   UNL d   1      52.685  29.375  53.495  0.00  0.00     0.002 A 
ATOM     15  C   UNL d   1      52.963  29.779  54.157  0.00  0.00     0.021 A 
ATOM     16  N   UNL d   1      53.644  31.035  54.612  0.00  0.00    -0.220 NA
ENDBRANCH   7   8
ENDBRANCH   4   7
BRANCH   1  17
ATOM     17  N   UNL d   1      55.130  33.715  54.940  0.00  0.00    -0.113 N 
ATOM     18  O   UNL d   1      55.712  33.684  54.357  0.00  0.00    -0.532 OA
ATOM     19  O   UNL d   1      55.342  33.696  55.736  0.00  0.00    -0.532 OA
ENDBRANCH   1  17
BRANCH   3  20
ATOM     20  S   UNL d   1      52.780  35.273  54.484  0.00  0.00     0.278 S 
ATOM     21  O   UNL d   1      52.834  35.325  55.301  0.00  0.00    -0.213 OA
ATOM     22  O   UNL d   1      52.401  36.005  54.473  0.00  0.00    -0.213 OA
BRANCH  20  23
ATOM     23  C   UNL d   1      52.722  35.228  53.661  0.00  0.00     0.503 C 
ATOM     24  F   UNL d   1      52.671  35.188  52.913  0.00  0.00    -0.157 F 
ATOM     25  F   UNL d   1      53.300  35.457  53.061  0.00  0.00    -0.157 F 
ATOM     26  F   UNL d   1      52.069  34.940  53.173  0.00  0.00    -0.157 F 
ENDBRANCH  20  23
ENDBRANCH   3  20
TORSDOF 5
ENDMDL
MODEL 3
REMARK VINA RESULT:      -8.8      1.968      2.793
REMARK  5 active torsions:
REMARK  status: ('A' for Active; 'I' for Inactive)
REMARK    1  A    between atoms: C_6  and  S_1 
REMARK    2  A    between atoms: C_9  and  S_1 
REMARK    3  A    between atoms: C_2  and  S_11 
REMARK    4  A    between atoms: N_4  and  C_3 
REMARK    5  A    between atoms: S_11  and  C_10 
ROOT
ATOM      1  C   UNL d   1      53.447  32.097  53.510  0.00  0.00     0.133 A 
ATOM      2  C   UNL d   1      54.142  32.320  53.894  0.00  0.00     0.035 A 
ATOM      3  C   UNL d   1      54.272  33.114  54.084  0.00  0.00     0.094 A 
ATOM      4  C   UNL d   1      52.881  32.670  53.315  0.00  0.00     0.054 A 
ATOM      5  C   UNL d   1      53.706  33.682  53.887  0.00  0.00     0.012 A 
ATOM      6  C   UNL d   1      53.012  33.459  53.504  0.00  0.00     0.009 A 
ENDROOT
BRANCH   4   7
ATOM      7  S   UNL d   1      52.185  32.448  52.930  0.00  0.00    -0.047 SA
BRANCH   7   8
ATOM      8  C   UNL d   1      51.592  33.006  52.800  0.00  0.00     0.194 A 
ATOM      9  N   UNL d   1      51.081  33.307  53.369  0.00  0.00    -0.220 NA
ATOM     10  C   UNL d   1      50.578  33.848  52.997  0.00  0.00     0.101 A 
ATOM     11  C   UNL d   1      49.968  34.312  53.280  0.00  0.00     0.021 A 
ATOM     12  C   UNL d   1      50.789  33.873  52.199  0.00  0.00     0.101 A 
ATOM     13  C   UNL d   1      49.558  34.808  52.772  0.00  0.00     0.002 A 
ATOM     14  C   UNL d   1      49.764  34.838  51.969  0.00  0.00     0.002 A 
ATOM     15  C   UNL d   1      50.380  34.370  51.685  0.00  0.00     0.021 A 
ATOM     16  N   UNL d   1      51.412  33.356  52.079  0.00  0.00    -0.220 NA
ENDBRANCH   7   8
ENDBRANCH   4   7
BRANCH   1  17
ATOM     17  N   UNL d   1      53.315  31.303  53.319  0.00  0.00    -0.113 N 
ATOM     18  O   UNL d   1      53.060  30.777  53.901  0.00  0.00    -0.532 OA
ATOM     19  O   UNL d   1      53.437  31.038  52.548  0.00  0.00    -0.532 OA
ENDBRANCH   1  17
BRANCH   3  20
ATOM     20  S   UNL d   1      54.963  33.335  54.465  0.00  0.00     0.278 S 
ATOM     21  O   UNL d   1      55.369  33.330  53.753  0.00  0.00    -0.213 OA
ATOM     22  O   UNL d   1      55.658  33.557  54.848  0.00  0.00    -0.213 OA
BRANCH  20  23
ATOM     23  C   UNL d   1      54.560  33.342  55.188  0.00  0.00     0.503 C 
ATOM     24  F   UNL d   1      54.195  33.346  55.844  0.00  0.00    -0.157 F 
ATOM     25  F   UNL d   1      54.483  32.712  55.774  0.00  0.00    -0.157 F 
ATOM     26  F   UNL d   1      54.107  33.979  55.556  0.00  0.00    -0.157 F 
ENDBRANCH  20  23
ENDBRANCH   3  20
TORSDOF 5
ENDMDL
MODEL 4
REMARK VINA RESULT:      -8.7      2.399      4.222
REMARK  5 active torsions:
REMARK  status: ('A' for Active; 'I' for Inactive)
REMARK    1  A    between atoms: C_6  and  S_1 
REMARK    2  A    between atoms: C_9  and  S_1 
REMARK    3  A    between atoms: C_2  and  S_11 
REMARK    4  A    between atoms: N_4  and  C_3 
REMARK    5  A    between atoms: S_11  and  C_10 
ROOT
ATOM      1  C   UNL d   1      52.944  33.485  53.776  0.00  0.00     0.133 A 
ATOM      2  C   UNL d   1      52.284  33.946  53.595  0.00  0.00     0.035 A 
ATOM      3  C   UNL d   1      51.668  33.626  53.146  0.00  0.00     0.094 A 
ATOM      4  C   UNL d   1      52.987  32.702  53.508  0.00  0.00     0.054 A 
ATOM      5  C   UNL d   1      51.715  32.845  52.881  0.00  0.00     0.012 A 
ATOM      6  C   UNL d   1      52.373  32.385  53.062  0.00  0.00     0.009 A 
ENDROOT
BRANCH   4   7
ATOM      7  S   UNL d   1      53.646  32.239  53.689  0.00  0.00    -0.047 SA
BRANCH   7   8
ATOM      8  C   UNL d   1      53.555  31.433  53.840  0.00  0.00     0.194 A 
ATOM      9  N   UNL d   1      53.549  30.837  53.274  0.00  0.00    -0.220 NA
ATOM     10  C   UNL d   1      53.443  30.117  53.668  0.00  0.00     0.101 A 
ATOM     11  C   UNL d   1      53.394  29.348  53.397  0.00  0.00     0.021 A 
ATOM     12  C   UNL d   1      53.385  30.283  54.476  0.00  0.00     0.101 A 
ATOM     13  C   UNL d   1      53.286  28.731  53.928  0.00  0.00     0.002 A 
ATOM     14  C   UNL d   1      53.227  28.890  54.739  0.00  0.00     0.002 A 
ATOM     15  C   UNL d   1      53.277  29.667  55.011  0.00  0.00     0.021 A 
ATOM     16  N   UNL d   1      53.454  31.092  54.579  0.00  0.00    -0.220 NA
ENDBRANCH   7   8
ENDBRANCH   4   7
BRANCH   1  17
ATOM     17  N   UNL d   1      53.561  33.803  54.224  0.00  0.00    -0.113 N 
ATOM     18  O   UNL d   1      54.268  34.019  53.858  0.00  0.00    -0.532 OA
ATOM     19  O   UNL d   1      53.471  33.905  55.038  0.00  0.00    -0.532 OA
ENDBRANCH   1  17
BRANCH   3  20
ATOM     20  S   UNL d   1      51.013  34.084  52.966  0.00  0.00     0.278 S 
ATOM     21  O   UNL d   1      50.645  33.845  53.659  0.00  0.00    -0.213 OA
ATOM     22  O   UNL d   1      50.354  34.544  52.786  0.00  0.00    -0.213 OA
BRANCH  20  23
ATOM     23  C   UNL d   1      51.378  34.329  52.266  0.00  0.00     0.503 C 
ATOM     24  F   UNL d   1      51.708  34.550  51.629  0.00  0.00    -0.157 F 
ATOM     25  F   UNL d   1      51.312  33.996  51.472  0.00  0.00    -0.157 F 
ATOM     26  F   UNL d   1      51.925  34.985  52.134  0.00  0.00    -0.157 F 
ENDBRANCH  20  23
ENDBRANCH   3  20
TORSDOF 5
ENDMDL
MODEL 5
REMARK VINA RESULT:      -8.3      2.834      4.471
REMARK  5 active torsions:
REMARK  status: ('A' for Active; 'I' for Inactive)
REMARK    1  A    between atoms: C_6  and  S_1 
REMARK    2  A    between atoms: C_9  and  S_1 
REMARK    3  A    between atoms: C_2  and  S_11 
REMARK    4  A    between atoms: N_4  and  C_3 
REMARK    5  A    between atoms: S_11  and  C_10 
ROOT
ATOM      1  C   UNL d   1      51.886  33.959  53.115  0.00  0.00     0.133 A 
ATOM      2  C   UNL d   1      52.196  34.642  53.460  0.00  0.00     0.035 A 
ATOM      3  C   UNL d   1      52.956  34.633  53.784  0.00  0.00     0.094 A 
ATOM      4  C   UNL d   1      52.340  33.266  53.095  0.00  0.00     0.054 A 
ATOM      5  C   UNL d   1      53.404  33.939  53.761  0.00  0.00     0.012 A 
ATOM      6  C   UNL d   1      53.096  33.258  53.417  0.00  0.00     0.009 A 
ENDROOT
BRANCH   4   7
ATOM      7  S   UNL d   1      52.032  32.581  52.750  0.00  0.00    -0.047 SA
BRANCH   7   8
ATOM      8  C   UNL d   1      52.348  31.845  52.945  0.00  0.00     0.194 A 
ATOM      9  N   UNL d   1      52.901  31.428  52.503  0.00  0.00    -0.220 NA
ATOM     10  C   UNL d   1      53.061  30.721  52.902  0.00  0.00     0.101 A 
ATOM     11  C   UNL d   1      53.559  30.096  52.729  0.00  0.00     0.021 A 
ATOM     12  C   UNL d   1      52.600  30.713  53.587  0.00  0.00     0.101 A 
ATOM     13  C   UNL d   1      53.605  29.453  53.237  0.00  0.00     0.002 A 
ATOM     14  C   UNL d   1      53.145  29.439  53.927  0.00  0.00     0.002 A 
ATOM     15  C   UNL d   1      52.643  30.070  54.100  0.00  0.00     0.021 A 
ATOM     16  N   UNL d   1      52.162  31.404  53.612  0.00  0.00    -0.220 NA
ENDBRANCH   7   8
ENDBRANCH   4   7
BRANCH   1  17
ATOM     17  N   UNL d   1      51.126  33.966  52.791  0.00  0.00    -0.113 N 
ATOM     18  O   UNL d   1      51.020  34.142  51.992  0.00  0.00    -0.532 OA
ATOM     19  O   UNL d   1      50.474  33.797  53.266  0.00  0.00    -0.532 OA
ENDBRANCH   1  17
BRANCH   3  20
ATOM     20  S   UNL d   1      53.263  35.311  54.126  0.00  0.00     0.278 S 
ATOM     21  O   UNL d   1      53.365  35.649  53.385  0.00  0.00    -0.213 OA
ATOM     22  O   UNL d   1      53.572  35.994  54.469  0.00  0.00    -0.213 OA
BRANCH  20  23
ATOM     23  C   UNL d   1      53.163  34.977  54.876  0.00  0.00     0.503 C 
ATOM     24  F   UNL d   1      53.070  34.675  55.557  0.00  0.00    -0.157 F 
ATOM     25  F   UNL d   1      52.505  35.067  55.428  0.00  0.00    -0.157 F 
ATOM     26  F   UNL d   1      53.687  34.448  55.313  0.00  0.00    -0.157 F 
ENDBRANCH  20  23
ENDBRANCH   3  20
TORSDOF 5
ENDMDL
