MODEL 1
REMARK VINA RESULT:       2.4      0.000      0.000
REMARK  6 active torsions:
REMARK  status: ('A' for Active; 'I' for Inactive)
REMARK    1  A    between atoms: C_8  and  C_1 
REMARK    2  A    between atoms: C_13  and  N_2 
REMARK    3  A    between atoms: C_7  and  C_4 
REMARK    4  A    between atoms: C_6  and  C_8 
REMARK    5  A    between atoms: C_21  and  C_13 
REMARK    6  A    between atoms: N_22  and  C_21 
ROOT
ATOM      1  C   UNL d   1      32.833  19.453 -23.267  0.00  0.00     0.103 A 
ATOM      2  N   UNL d   1      33.061  20.753 -23.461  0.00  0.00    -0.267 N 
ATOM      3  C   UNL d   1      32.952  19.574 -24.076  0.00  0.00     0.256 A 
ATOM      4  C   UNL d   1      32.901  20.180 -22.892  0.00  0.00     0.096 A 
ATOM      5  C   UNL d   1      33.094  20.379 -24.196  0.00  0.00     0.304 A 
ATOM      6  O   UNL d   1      33.241  20.738 -24.928  0.00  0.00    -0.263 OA
ATOM      7  O   UNL d   1      32.934  18.992 -24.668  0.00  0.00    -0.281 OA
ENDROOT
BRANCH   1   8
ATOM      8  C   UNL d   1      32.675  18.732 -22.907  0.00  0.00     0.223 C 
ATOM      9  O   UNL d   1      33.059  18.528 -22.202  0.00  0.00    -0.284 OA
BRANCH   8  10
ATOM     10  C   UNL d   1      32.135  18.201 -23.239  0.00  0.00     0.139 A 
ATOM     11  O   UNL d   1      31.347  18.358 -23.434  0.00  0.00    -0.304 OA
ATOM     12  C   UNL d   1      31.022  17.669 -23.748  0.00  0.00     0.100 A 
ATOM     13  C   UNL d   1      30.274  17.499 -24.033  0.00  0.00     0.025 A 
ATOM     14  C   UNL d   1      31.601  17.089 -23.748  0.00  0.00     0.025 A 
ATOM     15  C   UNL d   1      30.104  16.752 -24.316  0.00  0.00     0.002 A 
ATOM     16  C   UNL d   1      30.682  16.171 -24.316  0.00  0.00     0.000 A 
ATOM     17  C   UNL d   1      31.433  16.336 -24.033  0.00  0.00     0.002 A 
ATOM     18  C   UNL d   1      32.290  17.422 -23.431  0.00  0.00     0.030 A 
ENDBRANCH   8  10
ENDBRANCH   1   8
BRANCH   4  19
ATOM     19  C   UNL d   1      32.820  20.312 -22.070  0.00  0.00     0.116 A 
ATOM     20  O   UNL d   1      32.364  20.856 -21.652  0.00  0.00    -0.306 OA
ATOM     21  C   UNL d   1      32.499  20.740 -20.854  0.00  0.00     0.100 A 
ATOM     22  C   UNL d   1      32.156  21.163 -20.233  0.00  0.00     0.027 C 
ATOM     23  C   UNL d   1      33.039  20.123 -20.766  0.00  0.00     0.027 A 
ATOM     24  C   UNL d   1      33.240  19.856 -21.526  0.00  0.00     0.028 A 
ENDBRANCH   4  19
BRANCH   2  25
ATOM     25  C   UNL d   1      33.172  21.561 -23.329  0.00  0.00     0.102 C 
BRANCH  25  26
ATOM     26  C   UNL d   1      32.926  22.110 -23.898  0.00  0.00     0.100 C 
BRANCH  26  27
ATOM     27  N   UNL d   1      32.993  22.922 -23.752  0.00  0.00    -0.299 N 
ATOM     28  C   UNL d   1      33.238  23.186 -23.009  0.00  0.00     0.100 C 
ATOM     29  C   UNL d   1      32.815  23.458 -24.349  0.00  0.00     0.100 C 
ENDBRANCH  26  27
ENDBRANCH  25  26
ENDBRANCH   2  25
TORSDOF 6
ENDMDL
