MODEL 1
REMARK VINA RESULT:      -9.0      0.000      0.000
REMARK  5 active torsions:
REMARK  status: ('A' for Active; 'I' for Inactive)
REMARK    1  A    between atoms: C_4  and  C_1 
REMARK       I    between atoms: N_8  and  C_4 
REMARK    2  A    between atoms: C_17  and  N_8 
REMARK    3  A    between atoms: C_18  and  N_8 
REMARK    4  A    between atoms: C_15  and  C_11 
REMARK    5  A    between atoms: C_12  and  C_15 
ROOT
ATOM      1  C   UNL d   1      53.625  32.679  53.883  0.00  0.00     0.120 A 
ATOM      2  C   UNL d   1      53.769  32.226  54.578  0.00  0.00     0.305 A 
ATOM      3  O   UNL d   1      53.635  31.412  54.562  0.00  0.00    -0.273 OA
ATOM      4  C   UNL d   1      53.353  32.302  53.197  0.00  0.00     0.012 A 
ATOM      5  C   UNL d   1      53.363  31.043  53.872  0.00  0.00     0.103 A 
ATOM      6  C   UNL d   1      53.222  31.488  53.190  0.00  0.00     0.023 A 
ATOM      7  O   UNL d   1      54.046  32.581  55.290  0.00  0.00    -0.259 OA
ATOM      8  C   UNL d   1      53.238  30.240  53.880  0.00  0.00     0.023 A 
ATOM      9  C   UNL d   1      52.956  31.130  52.515  0.00  0.00     0.002 A 
ATOM     10  C   UNL d   1      52.825  30.316  52.508  0.00  0.00     0.000 A 
ATOM     11  C   UNL d   1      52.968  29.863  53.203  0.00  0.00     0.002 A 
ENDROOT
BRANCH   1  12
ATOM     12  C   UNL d   1      53.751  33.512  53.862  0.00  0.00     0.270 C 
ATOM     13  N   UNL d   1      53.101  34.006  53.815  0.00  0.00    -0.272 N 
ATOM     14  O   UNL d   1      54.540  33.827  53.889  0.00  0.00    -0.266 OA
BRANCH  13  15
ATOM     15  C   UNL d   1      52.341  33.692  53.789  0.00  0.00     0.083 C 
ATOM     16  C   UNL d   1      51.717  34.144  53.528  0.00  0.00     0.021 C 
ENDBRANCH  13  15
BRANCH  13  17
ATOM     17  C   UNL d   1      53.201  34.824  53.793  0.00  0.00     0.083 C 
ATOM     18  C   UNL d   1      52.856  35.291  54.370  0.00  0.00     0.021 C 
ENDBRANCH  13  17
ENDBRANCH   1  12
BRANCH   8  19
ATOM     19  C   UNL d   1      53.380  29.804  54.564  0.00  0.00     0.002 C 
BRANCH  19  20
ATOM     20  C   UNL d   1      53.316  28.994  54.555  0.00  0.00     0.000 C 
ATOM     21  C   UNL d   1      53.438  28.551  55.256  0.00  0.00     0.000 C 
ENDBRANCH  19  20
ENDBRANCH   8  19
TORSDOF 5
ENDMDL
MODEL 2
REMARK VINA RESULT:      -8.4      1.386      4.055
REMARK  5 active torsions:
REMARK  status: ('A' for Active; 'I' for Inactive)
REMARK    1  A    between atoms: C_4  and  C_1 
REMARK       I    between atoms: N_8  and  C_4 
REMARK    2  A    between atoms: C_17  and  N_8 
REMARK    3  A    between atoms: C_18  and  N_8 
REMARK    4  A    between atoms: C_15  and  C_11 
REMARK    5  A    between atoms: C_12  and  C_15 
ROOT
ATOM      1  C   UNL d   1      53.203  31.852  53.349  0.00  0.00     0.120 A 
ATOM      2  C   UNL d   1      52.600  32.437  53.401  0.00  0.00     0.305 A 
ATOM      3  O   UNL d   1      52.758  33.143  53.796  0.00  0.00    -0.273 OA
ATOM      4  C   UNL d   1      53.943  31.994  53.694  0.00  0.00     0.012 A 
ATOM      5  C   UNL d   1      53.500  33.278  54.139  0.00  0.00     0.103 A 
ATOM      6  C   UNL d   1      54.092  32.703  54.089  0.00  0.00     0.023 A 
ATOM      7  O   UNL d   1      51.839  32.321  53.059  0.00  0.00    -0.259 OA
ATOM      8  C   UNL d   1      53.632  33.981  54.524  0.00  0.00     0.023 A 
ATOM      9  C   UNL d   1      54.818  32.832  54.422  0.00  0.00     0.002 A 
ATOM     10  C   UNL d   1      54.967  33.541  54.816  0.00  0.00     0.000 A 
ATOM     11  C   UNL d   1      54.364  34.126  54.868  0.00  0.00     0.002 A 
ENDROOT
BRANCH   1  12
ATOM     12  C   UNL d   1      53.078  31.119  52.953  0.00  0.00     0.270 C 
ATOM     13  N   UNL d   1      53.066  30.431  53.394  0.00  0.00    -0.272 N 
ATOM     14  O   UNL d   1      52.968  31.101  52.110  0.00  0.00    -0.266 OA
BRANCH  13  15
ATOM     15  C   UNL d   1      53.174  30.459  54.209  0.00  0.00     0.083 C 
ATOM     16  C   UNL d   1      53.264  29.772  54.637  0.00  0.00     0.021 C 
ENDBRANCH  13  15
BRANCH  13  17
ATOM     17  C   UNL d   1      52.945  29.703  53.027  0.00  0.00     0.083 C 
ATOM     18  C   UNL d   1      52.378  29.190  53.319  0.00  0.00     0.021 C 
ENDBRANCH  13  17
ENDBRANCH   1  12
BRANCH   8  19
ATOM     19  C   UNL d   1      53.037  34.549  54.571  0.00  0.00     0.002 C 
BRANCH  19  20
ATOM     20  C   UNL d   1      53.220  35.322  54.738  0.00  0.00     0.000 C 
ATOM     21  C   UNL d   1      52.626  35.913  54.714  0.00  0.00     0.000 C 
ENDBRANCH  19  20
ENDBRANCH   8  19
TORSDOF 5
ENDMDL
MODEL 3
REMARK VINA RESULT:      -8.0      1.773      3.071
REMARK  5 active torsions:
REMARK  status: ('A' for Active; 'I' for Inactive)
REMARK    1  A    between atoms: C_4  and  C_1 
REMARK       I    between atoms: N_8  and  C_4 
REMARK    2  A    between atoms: C_17  and  N_8 
REMARK    3  A    between atoms: C_18  and  N_8 
REMARK    4  A    between atoms: C_15  and  C_11 
REMARK    5  A    between atoms: C_12  and  C_15 
ROOT
ATOM      1  C   UNL d   1      52.082  33.833  52.560  0.00  0.00     0.120 A 
ATOM      2  C   UNL d   1      52.633  34.335  52.952  0.00  0.00     0.305 A 
ATOM      3  O   UNL d   1      53.218  33.998  53.425  0.00  0.00    -0.273 OA
ATOM      4  C   UNL d   1      52.137  33.012  52.655  0.00  0.00     0.012 A 
ATOM      5  C   UNL d   1      53.267  33.176  53.515  0.00  0.00     0.103 A 
ATOM      6  C   UNL d   1      52.726  32.683  53.130  0.00  0.00     0.023 A 
ATOM      7  O   UNL d   1      52.602  35.173  52.875  0.00  0.00    -0.259 OA
ATOM      8  C   UNL d   1      53.852  32.866  53.986  0.00  0.00     0.023 A 
ATOM      9  C   UNL d   1      52.770  31.880  53.216  0.00  0.00     0.002 A 
ATOM     10  C   UNL d   1      53.359  31.551  53.691  0.00  0.00     0.000 A 
ATOM     11  C   UNL d   1      53.910  32.053  54.083  0.00  0.00     0.002 A 
ENDROOT
BRANCH   1  12
ATOM     12  C   UNL d   1      51.471  34.141  52.069  0.00  0.00     0.270 C 
ATOM     13  N   UNL d   1      50.727  34.251  52.390  0.00  0.00    -0.272 N 
ATOM     14  O   UNL d   1      51.630  34.334  51.257  0.00  0.00    -0.266 OA
BRANCH  13  15
ATOM     15  C   UNL d   1      50.582  34.062  53.178  0.00  0.00     0.083 C 
ATOM     16  C   UNL d   1      49.928  34.360  53.560  0.00  0.00     0.021 C 
ENDBRANCH  13  15
BRANCH  13  17
ATOM     17  C   UNL d   1      50.115  34.552  51.928  0.00  0.00     0.083 C 
ATOM     18  C   UNL d   1      49.474  34.077  51.744  0.00  0.00     0.021 C 
ENDBRANCH  13  17
ENDBRANCH   1  12
BRANCH   8  19
ATOM     19  C   UNL d   1      54.387  33.364  54.367  0.00  0.00     0.002 C 
BRANCH  19  20
ATOM     20  C   UNL d   1      54.692  33.161  55.091  0.00  0.00     0.000 C 
ATOM     21  C   UNL d   1      55.189  33.693  55.507  0.00  0.00     0.000 C 
ENDBRANCH  19  20
ENDBRANCH   8  19
TORSDOF 5
ENDMDL
MODEL 4
REMARK VINA RESULT:      -6.7      1.772      2.558
REMARK  5 active torsions:
REMARK  status: ('A' for Active; 'I' for Inactive)
REMARK    1  A    between atoms: C_4  and  C_1 
REMARK       I    between atoms: N_8  and  C_4 
REMARK    2  A    between atoms: C_17  and  N_8 
REMARK    3  A    between atoms: C_18  and  N_8 
REMARK    4  A    between atoms: C_15  and  C_11 
REMARK    5  A    between atoms: C_12  and  C_15 
ROOT
ATOM      1  C   UNL d   1      51.563  33.186  53.352  0.00  0.00     0.120 A 
ATOM      2  C   UNL d   1      51.412  32.361  53.285  0.00  0.00     0.305 A 
ATOM      3  O   UNL d   1      52.045  31.833  53.312  0.00  0.00    -0.273 OA
ATOM      4  C   UNL d   1      52.342  33.455  53.444  0.00  0.00     0.012 A 
ATOM      5  C   UNL d   1      52.821  32.109  53.404  0.00  0.00     0.103 A 
ATOM      6  C   UNL d   1      52.969  32.920  53.470  0.00  0.00     0.023 A 
ATOM      7  O   UNL d   1      50.632  32.058  53.191  0.00  0.00    -0.259 OA
ATOM      8  C   UNL d   1      53.429  31.571  53.428  0.00  0.00     0.023 A 
ATOM      9  C   UNL d   1      53.725  33.193  53.560  0.00  0.00     0.002 A 
ATOM     10  C   UNL d   1      54.353  32.658  53.585  0.00  0.00     0.000 A 
ATOM     11  C   UNL d   1      54.202  31.832  53.518  0.00  0.00     0.002 A 
ENDROOT
BRANCH   1  12
ATOM     12  C   UNL d   1      50.942  33.754  53.329  0.00  0.00     0.270 C 
ATOM     13  N   UNL d   1      50.801  34.155  52.631  0.00  0.00    -0.272 N 
ATOM     14  O   UNL d   1      50.473  33.905  54.022  0.00  0.00    -0.266 OA
BRANCH  13  15
ATOM     15  C   UNL d   1      51.260  34.003  51.965  0.00  0.00     0.083 C 
ATOM     16  C   UNL d   1      51.201  34.477  51.306  0.00  0.00     0.021 C 
ENDBRANCH  13  15
BRANCH  13  17
ATOM     17  C   UNL d   1      50.198  34.715  52.585  0.00  0.00     0.083 C 
ATOM     18  C   UNL d   1      49.569  34.595  52.075  0.00  0.00     0.021 C 
ENDBRANCH  13  17
ENDBRANCH   1  12
BRANCH   8  19
ATOM     19  C   UNL d   1      53.274  30.764  53.361  0.00  0.00     0.002 C 
BRANCH  19  20
ATOM     20  C   UNL d   1      53.764  30.221  53.714  0.00  0.00     0.000 C 
ATOM     21  C   UNL d   1      53.511  29.430  53.826  0.00  0.00     0.000 C 
ENDBRANCH  19  20
ENDBRANCH   8  19
TORSDOF 5
ENDMDL
MODEL 5
REMARK VINA RESULT:      -6.7      1.596      4.148
REMARK  5 active torsions:
REMARK  status: ('A' for Active; 'I' for Inactive)
REMARK    1  A    between atoms: C_4  and  C_1 
REMARK       I    between atoms: N_8  and  C_4 
REMARK    2  A    between atoms: C_17  and  N_8 
REMARK    3  A    between atoms: C_18  and  N_8 
REMARK    4  A    between atoms: C_15  and  C_11 
REMARK    5  A    between atoms: C_12  and  C_15 
ROOT
ATOM      1  C   UNL d   1      52.604  31.885  53.027  0.00  0.00     0.120 A 
ATOM      2  C   UNL d   1      51.763  31.924  53.031  0.00  0.00     0.305 A 
ATOM      3  O   UNL d   1      51.396  32.662  53.041  0.00  0.00    -0.273 OA
ATOM      4  C   UNL d   1      53.048  32.584  53.034  0.00  0.00     0.012 A 
ATOM      5  C   UNL d   1      51.846  33.358  53.048  0.00  0.00     0.103 A 
ATOM      6  C   UNL d   1      52.672  33.319  53.045  0.00  0.00     0.023 A 
ATOM      7  O   UNL d   1      51.286  31.230  53.024  0.00  0.00    -0.259 OA
ATOM      8  C   UNL d   1      51.463  34.074  53.059  0.00  0.00     0.023 A 
ATOM      9  C   UNL d   1      53.115  33.996  53.051  0.00  0.00     0.002 A 
ATOM     10  C   UNL d   1      52.739  34.730  53.062  0.00  0.00     0.000 A 
ATOM     11  C   UNL d   1      51.898  34.770  53.066  0.00  0.00     0.002 A 
ENDROOT
BRANCH   1  12
ATOM     12  C   UNL d   1      53.014  31.148  53.016  0.00  0.00     0.270 C 
ATOM     13  N   UNL d   1      53.371  30.887  53.704  0.00  0.00    -0.272 N 
ATOM     14  O   UNL d   1      53.053  30.690  52.301  0.00  0.00    -0.266 OA
BRANCH  13  15
ATOM     15  C   UNL d   1      53.328  31.338  54.391  0.00  0.00     0.083 C 
ATOM     16  C   UNL d   1      53.807  31.167  55.026  0.00  0.00     0.021 C 
ENDBRANCH  13  15
BRANCH  13  17
ATOM     17  C   UNL d   1      53.777  30.170  53.716  0.00  0.00     0.083 C 
ATOM     18  C   UNL d   1      53.457  29.528  54.112  0.00  0.00     0.021 C 
ENDBRANCH  13  17
ENDBRANCH   1  12
BRANCH   8  19
ATOM     19  C   UNL d   1      50.639  34.105  53.062  0.00  0.00     0.002 C 
BRANCH  19  20
ATOM     20  C   UNL d   1      50.254  34.807  52.925  0.00  0.00     0.000 C 
ATOM     21  C   UNL d   1      49.423  34.821  52.818  0.00  0.00     0.000 C 
ENDBRANCH  19  20
ENDBRANCH   8  19
TORSDOF 5
ENDMDL
MODEL 6
REMARK VINA RESULT:      -6.6      2.417      3.963
REMARK  5 active torsions:
REMARK  status: ('A' for Active; 'I' for Inactive)
REMARK    1  A    between atoms: C_4  and  C_1 
REMARK       I    between atoms: N_8  and  C_4 
REMARK    2  A    between atoms: C_17  and  N_8 
REMARK    3  A    between atoms: C_18  and  N_8 
REMARK    4  A    between atoms: C_15  and  C_11 
REMARK    5  A    between atoms: C_12  and  C_15 
ROOT
ATOM      1  C   UNL d   1      53.097  34.566  54.059  0.00  0.00     0.120 A 
ATOM      2  C   UNL d   1      52.448  35.002  54.371  0.00  0.00     0.305 A 
ATOM      3  O   UNL d   1      51.716  34.959  53.993  0.00  0.00    -0.273 OA
ATOM      4  C   UNL d   1      52.992  34.104  53.379  0.00  0.00     0.012 A 
ATOM      5  C   UNL d   1      51.619  34.495  53.314  0.00  0.00     0.103 A 
ATOM      6  C   UNL d   1      52.256  34.067  53.007  0.00  0.00     0.023 A 
ATOM      7  O   UNL d   1      52.525  35.480  55.060  0.00  0.00    -0.259 OA
ATOM      8  C   UNL d   1      50.889  34.468  52.958  0.00  0.00     0.023 A 
ATOM      9  C   UNL d   1      52.165  33.613  52.344  0.00  0.00     0.002 A 
ATOM     10  C   UNL d   1      51.429  33.576  51.972  0.00  0.00     0.000 A 
ATOM     11  C   UNL d   1      50.780  34.011  52.284  0.00  0.00     0.002 A 
ENDROOT
BRANCH   1  12
ATOM     12  C   UNL d   1      53.859  34.585  54.418  0.00  0.00     0.270 C 
ATOM     13  N   UNL d   1      54.141  33.907  54.779  0.00  0.00    -0.272 N 
ATOM     14  O   UNL d   1      54.321  35.298  54.404  0.00  0.00    -0.266 OA
BRANCH  13  15
ATOM     15  C   UNL d   1      53.685  33.222  54.787  0.00  0.00     0.083 C 
ATOM     16  C   UNL d   1      53.922  32.575  55.222  0.00  0.00     0.021 C 
ENDBRANCH  13  15
BRANCH  13  17
ATOM     17  C   UNL d   1      54.882  33.904  55.136  0.00  0.00     0.083 C 
ATOM     18  C   UNL d   1      55.533  33.627  54.722  0.00  0.00     0.021 C 
ENDBRANCH  13  17
ENDBRANCH   1  12
BRANCH   8  19
ATOM     19  C   UNL d   1      50.258  34.897  53.269  0.00  0.00     0.002 C 
BRANCH  19  20
ATOM     20  C   UNL d   1      49.543  34.912  52.885  0.00  0.00     0.000 C 
ATOM     21  C   UNL d   1      48.931  35.421  53.147  0.00  0.00     0.000 C 
ENDBRANCH  19  20
ENDBRANCH   8  19
TORSDOF 5
ENDMDL
