MODEL 1
REMARK VINA RESULT:      -9.5      0.000      0.000
REMARK  5 active torsions:
REMARK  status: ('A' for Active; 'I' for Inactive)
REMARK    1  A    between atoms: N_2  and  S_1 
REMARK    2  A    between atoms: C_6  and  S_1 
REMARK    3  A    between atoms: C_3  and  N_2 
REMARK    4  A    between atoms: N_4  and  C_5 
REMARK    5  A    between atoms: C_9  and  N_4 
ROOT
ATOM      1  C   UNL d   1      52.802  32.605  53.123  0.00  0.00     0.110 A 
ATOM      2  C   UNL d   1      53.531  32.317  53.378  0.00  0.00     0.083 A 
ATOM      3  C   UNL d   1      52.197  32.064  52.965  0.00  0.00     0.021 A 
ATOM      4  C   UNL d   1      53.655  31.511  53.473  0.00  0.00     0.019 A 
ATOM      5  C   UNL d   1      52.322  31.258  53.059  0.00  0.00     0.002 A 
ATOM      6  C   UNL d   1      53.053  30.974  53.314  0.00  0.00     0.002 A 
ENDROOT
BRANCH   1   7
ATOM      7  N   UNL d   1      52.677  33.412  53.029  0.00  0.00    -0.157 NA
BRANCH   7   8
ATOM      8  S   UNL d   1      51.941  33.693  52.792  0.00  0.00     0.285 S 
ATOM      9  O   UNL d   1      51.708  33.756  53.600  0.00  0.00    -0.198 OA
ATOM     10  O   UNL d   1      52.170  33.630  52.001  0.00  0.00    -0.198 OA
BRANCH   8  11
ATOM     11  C   UNL d   1      51.185  33.980  52.552  0.00  0.00     0.105 A 
ATOM     12  C   UNL d   1      50.616  34.201  53.130  0.00  0.00     0.014 A 
ATOM     13  C   UNL d   1      49.883  34.480  52.888  0.00  0.00     0.012 A 
ATOM     14  C   UNL d   1      49.699  34.547  52.095  0.00  0.00     0.058 A 
ATOM     15  C   UNL d   1      50.268  34.326  51.517  0.00  0.00     0.012 A 
ATOM     16 CL   UNL d   1      48.969  34.825  51.866  0.00  0.00    -0.082 Cl
ATOM     17  C   UNL d   1      51.011  34.043  51.743  0.00  0.00     0.014 A 
ENDBRANCH   8  11
ENDBRANCH   7   8
ENDBRANCH   1   7
BRANCH   2  18
ATOM     18  N   UNL d   1      54.151  32.878  53.541  0.00  0.00    -0.303 N 
ATOM     19  C   UNL d   1      54.504  33.224  52.908  0.00  0.00     0.100 C 
BRANCH  18  20
ATOM     20  C   UNL d   1      54.371  33.052  54.312  0.00  0.00     0.064 A 
ATOM     21  C   UNL d   1      54.891  33.659  54.447  0.00  0.00     0.018 A 
ATOM     22  C   UNL d   1      55.126  33.851  55.215  0.00  0.00     0.002 A 
ATOM     23  C   UNL d   1      54.829  33.420  55.858  0.00  0.00     0.000 A 
ATOM     24  C   UNL d   1      54.300  32.804  55.720  0.00  0.00     0.002 A 
ATOM     25  C   UNL d   1      54.066  32.614  54.947  0.00  0.00     0.018 A 
ENDBRANCH  18  20
ENDBRANCH   2  18
TORSDOF 5
ENDMDL
MODEL 2
REMARK VINA RESULT:      -8.8      0.980      2.241
REMARK  5 active torsions:
REMARK  status: ('A' for Active; 'I' for Inactive)
REMARK    1  A    between atoms: N_2  and  S_1 
REMARK    2  A    between atoms: C_6  and  S_1 
REMARK    3  A    between atoms: C_3  and  N_2 
REMARK    4  A    between atoms: N_4  and  C_5 
REMARK    5  A    between atoms: C_9  and  N_4 
ROOT
ATOM      1  C   UNL d   1      53.135  32.777  53.785  0.00  0.00     0.110 A 
ATOM      2  C   UNL d   1      53.706  32.224  54.003  0.00  0.00     0.083 A 
ATOM      3  C   UNL d   1      53.010  33.431  54.276  0.00  0.00     0.021 A 
ATOM      4  C   UNL d   1      54.142  32.320  54.693  0.00  0.00     0.019 A 
ATOM      5  C   UNL d   1      53.446  33.526  54.965  0.00  0.00     0.002 A 
ATOM      6  C   UNL d   1      54.017  32.971  55.179  0.00  0.00     0.002 A 
ENDROOT
BRANCH   1   7
ATOM      7  N   UNL d   1      52.698  32.681  53.095  0.00  0.00    -0.157 NA
BRANCH   7   8
ATOM      8  S   UNL d   1      52.038  33.151  52.954  0.00  0.00     0.285 S 
ATOM      9  O   UNL d   1      52.525  33.709  52.550  0.00  0.00    -0.198 OA
ATOM     10  O   UNL d   1      51.562  32.604  53.351  0.00  0.00    -0.198 OA
BRANCH   8  11
ATOM     11  C   UNL d   1      51.363  33.635  52.809  0.00  0.00     0.105 A 
ATOM     12  C   UNL d   1      50.716  33.628  53.346  0.00  0.00     0.014 A 
ATOM     13  C   UNL d   1      50.063  34.102  53.197  0.00  0.00     0.012 A 
ATOM     14  C   UNL d   1      50.031  34.580  52.535  0.00  0.00     0.058 A 
ATOM     15  C   UNL d   1      50.678  34.586  51.997  0.00  0.00     0.012 A 
ATOM     16 CL   UNL d   1      49.378  35.045  52.397  0.00  0.00    -0.082 Cl
ATOM     17  C   UNL d   1      51.344  34.116  52.132  0.00  0.00     0.014 A 
ENDBRANCH   8  11
ENDBRANCH   7   8
ENDBRANCH   1   7
BRANCH   2  18
ATOM     18  N   UNL d   1      53.831  31.553  53.496  0.00  0.00    -0.303 N 
ATOM     19  C   UNL d   1      54.205  31.688  52.798  0.00  0.00     0.100 C 
BRANCH  18  20
ATOM     20  C   UNL d   1      53.579  30.803  53.716  0.00  0.00     0.064 A 
ATOM     21  C   UNL d   1      53.196  30.340  53.173  0.00  0.00     0.018 A 
ATOM     22  C   UNL d   1      52.933  29.583  53.374  0.00  0.00     0.002 A 
ATOM     23  C   UNL d   1      53.061  29.290  54.140  0.00  0.00     0.000 A 
ATOM     24  C   UNL d   1      53.451  29.763  54.691  0.00  0.00     0.002 A 
ATOM     25  C   UNL d   1      53.713  30.522  54.486  0.00  0.00     0.018 A 
ENDBRANCH  18  20
ENDBRANCH   2  18
TORSDOF 5
ENDMDL
MODEL 3
REMARK VINA RESULT:      -8.8      2.021      4.258
REMARK  5 active torsions:
REMARK  status: ('A' for Active; 'I' for Inactive)
REMARK    1  A    between atoms: N_2  and  S_1 
REMARK    2  A    between atoms: C_6  and  S_1 
REMARK    3  A    between atoms: C_3  and  N_2 
REMARK    4  A    between atoms: N_4  and  C_5 
REMARK    5  A    between atoms: C_9  and  N_4 
ROOT
ATOM      1  C   UNL d   1      52.660  33.437  53.375  0.00  0.00     0.110 A 
ATOM      2  C   UNL d   1      52.365  34.191  53.223  0.00  0.00     0.083 A 
ATOM      3  C   UNL d   1      53.096  33.316  54.067  0.00  0.00     0.021 A 
ATOM      4  C   UNL d   1      52.501  34.809  53.746  0.00  0.00     0.019 A 
ATOM      5  C   UNL d   1      53.232  33.934  54.590  0.00  0.00     0.002 A 
ATOM      6  C   UNL d   1      52.935  34.687  54.433  0.00  0.00     0.002 A 
ENDROOT
BRANCH   1   7
ATOM      7  N   UNL d   1      52.524  32.818  52.852  0.00  0.00    -0.157 NA
BRANCH   7   8
ATOM      8  S   UNL d   1      52.726  32.048  53.059  0.00  0.00     0.285 S 
ATOM      9  O   UNL d   1      53.499  32.170  52.746  0.00  0.00    -0.198 OA
ATOM     10  O   UNL d   1      51.967  31.930  53.366  0.00  0.00    -0.198 OA
BRANCH   8  11
ATOM     11  C   UNL d   1      52.936  31.259  53.271  0.00  0.00     0.105 A 
ATOM     12  C   UNL d   1      52.352  30.654  53.271  0.00  0.00     0.014 A 
ATOM     13  C   UNL d   1      52.565  29.889  53.479  0.00  0.00     0.012 A 
ATOM     14  C   UNL d   1      53.334  29.707  53.685  0.00  0.00     0.058 A 
ATOM     15  C   UNL d   1      53.918  30.312  53.685  0.00  0.00     0.012 A 
ATOM     16 CL   UNL d   1      53.534  28.944  53.889  0.00  0.00    -0.082 Cl
ATOM     17  C   UNL d   1      53.721  31.088  53.478  0.00  0.00     0.014 A 
ENDBRANCH   8  11
ENDBRANCH   7   8
ENDBRANCH   1   7
BRANCH   2  18
ATOM     18  N   UNL d   1      51.916  34.312  52.510  0.00  0.00    -0.303 N 
ATOM     19  C   UNL d   1      52.324  34.309  51.817  0.00  0.00     0.100 C 
BRANCH  18  20
ATOM     20  C   UNL d   1      51.103  34.424  52.536  0.00  0.00     0.064 A 
ATOM     21  C   UNL d   1      50.657  34.239  51.885  0.00  0.00     0.018 A 
ATOM     22  C   UNL d   1      49.838  34.345  51.890  0.00  0.00     0.002 A 
ATOM     23  C   UNL d   1      49.464  34.644  52.567  0.00  0.00     0.000 A 
ATOM     24  C   UNL d   1      49.918  34.832  53.229  0.00  0.00     0.002 A 
ATOM     25  C   UNL d   1      50.740  34.724  53.220  0.00  0.00     0.018 A 
ENDBRANCH  18  20
ENDBRANCH   2  18
TORSDOF 5
ENDMDL
MODEL 4
REMARK VINA RESULT:      -8.1      2.301      3.643
REMARK  5 active torsions:
REMARK  status: ('A' for Active; 'I' for Inactive)
REMARK    1  A    between atoms: N_2  and  S_1 
REMARK    2  A    between atoms: C_6  and  S_1 
REMARK    3  A    between atoms: C_3  and  N_2 
REMARK    4  A    between atoms: N_4  and  C_5 
REMARK    5  A    between atoms: C_9  and  N_4 
ROOT
ATOM      1  C   UNL d   1      52.237  32.869  53.141  0.00  0.00     0.110 A 
ATOM      2  C   UNL d   1      52.177  33.688  53.202  0.00  0.00     0.083 A 
ATOM      3  C   UNL d   1      51.541  32.424  53.093  0.00  0.00     0.021 A 
ATOM      4  C   UNL d   1      51.444  34.056  53.216  0.00  0.00     0.019 A 
ATOM      5  C   UNL d   1      50.808  32.793  53.107  0.00  0.00     0.002 A 
ATOM      6  C   UNL d   1      50.753  33.613  53.168  0.00  0.00     0.002 A 
ENDROOT
BRANCH   1   7
ATOM      7  N   UNL d   1      52.972  32.500  53.127  0.00  0.00    -0.157 NA
BRANCH   7   8
ATOM      8  S   UNL d   1      53.040  31.705  53.326  0.00  0.00     0.285 S 
ATOM      9  O   UNL d   1      52.909  31.495  52.519  0.00  0.00    -0.198 OA
ATOM     10  O   UNL d   1      53.168  31.912  54.116  0.00  0.00    -0.198 OA
BRANCH   8  11
ATOM     11  C   UNL d   1      53.109  30.889  53.527  0.00  0.00     0.105 A 
ATOM     12  C   UNL d   1      53.354  30.665  54.299  0.00  0.00     0.014 A 
ATOM     13  C   UNL d   1      53.419  29.868  54.487  0.00  0.00     0.012 A 
ATOM     14  C   UNL d   1      53.249  29.290  53.935  0.00  0.00     0.058 A 
ATOM     15  C   UNL d   1      53.004  29.514  53.162  0.00  0.00     0.012 A 
ATOM     16 CL   UNL d   1      53.317  28.504  54.132  0.00  0.00    -0.082 Cl
ATOM     17  C   UNL d   1      52.933  30.312  52.956  0.00  0.00     0.014 A 
ENDBRANCH   8  11
ENDBRANCH   7   8
ENDBRANCH   1   7
BRANCH   2  18
ATOM     18  N   UNL d   1      52.896  34.142  53.251  0.00  0.00    -0.303 N 
ATOM     19  C   UNL d   1      53.428  34.049  52.656  0.00  0.00     0.100 C 
BRANCH  18  20
ATOM     20  C   UNL d   1      53.032  34.650  53.882  0.00  0.00     0.064 A 
ATOM     21  C   UNL d   1      52.811  35.427  53.818  0.00  0.00     0.018 A 
ATOM     22  C   UNL d   1      52.939  35.955  54.440  0.00  0.00     0.002 A 
ATOM     23  C   UNL d   1      53.298  35.691  55.139  0.00  0.00     0.000 A 
ATOM     24  C   UNL d   1      53.523  34.901  55.203  0.00  0.00     0.002 A 
ATOM     25  C   UNL d   1      53.393  34.374  54.576  0.00  0.00     0.018 A 
ENDBRANCH  18  20
ENDBRANCH   2  18
TORSDOF 5
ENDMDL
