MODEL 1
REMARK VINA RESULT:      -7.2      0.000      0.000
REMARK  5 active torsions:
REMARK  status: ('A' for Active; 'I' for Inactive)
REMARK    1  A    between atoms: C_2  and  C_1 
REMARK    2  A    between atoms: C_3  and  C_2 
REMARK    3  A    between atoms: C_6  and  C_3 
REMARK    4  A    between atoms: O_15  and  C_12 
REMARK    5  A    between atoms: O_14  and  C_13 
ROOT
ATOM      1  C   UNL d   1     -48.389  14.066  22.822  0.00  0.00     0.143 C 
ATOM      2  C   UNL d   1     -48.279  14.845  22.528  0.00  0.00     0.107 C 
ATOM      3  N   UNL d   1     -48.158  15.615  22.235  0.00  0.00    -0.191 NA
ENDROOT
BRANCH   1   4
ATOM      4  C   UNL d   1     -47.733  13.557  22.919  0.00  0.00     0.175 A 
ATOM      5  N   UNL d   1     -47.638  12.934  23.437  0.00  0.00    -0.225 NA
ATOM      6  C   UNL d   1     -46.929  12.609  23.335  0.00  0.00     0.101 A 
ATOM      7  C   UNL d   1     -46.560  11.995  23.690  0.00  0.00     0.021 A 
ATOM      8  C   UNL d   1     -46.530  13.014  22.738  0.00  0.00     0.101 A 
ATOM      9  C   UNL d   1     -45.787  11.760  23.469  0.00  0.00     0.002 A 
ATOM     10  C   UNL d   1     -45.427  12.181  22.880  0.00  0.00     0.002 A 
ATOM     11  C   UNL d   1     -45.804  12.798  22.526  0.00  0.00     0.021 A 
ATOM     12  N   UNL d   1     -47.052  13.614  22.482  0.00  0.00    -0.225 NA
ENDBRANCH   1   4
BRANCH   1  13
ATOM     13  C   UNL d   1     -49.154  13.837  23.004  0.00  0.00     0.212 C 
ATOM     14  O   UNL d   1     -49.291  13.382  23.684  0.00  0.00    -0.286 OA
BRANCH  13  15
ATOM     15  C   UNL d   1     -49.791  14.047  22.529  0.00  0.00     0.084 A 
ATOM     16  C   UNL d   1     -50.249  14.692  22.742  0.00  0.00     0.099 A 
ATOM     17  C   UNL d   1     -50.905  14.915  22.261  0.00  0.00     0.024 A 
ATOM     18  C   UNL d   1     -51.064  14.470  21.580  0.00  0.00     0.004 A 
ATOM     19  C   UNL d   1     -50.593  13.816  21.371  0.00  0.00     0.024 A 
ATOM     20  C   UNL d   1     -49.948  13.616  21.867  0.00  0.00     0.099 A 
BRANCH  16  21
ATOM     21  O   UNL d   1     -50.108  15.151  23.417  0.00  0.00    -0.328 OA
ATOM     22  C   UNL d   1     -50.703  15.667  23.698  0.00  0.00     0.181 C 
ENDBRANCH  16  21
BRANCH  20  23
ATOM     23  O   UNL d   1     -49.476  12.965  21.662  0.00  0.00    -0.328 OA
ATOM     24  C   UNL d   1     -49.737  12.400  21.124  0.00  0.00     0.181 C 
ENDBRANCH  20  23
ENDBRANCH  13  15
ENDBRANCH   1  13
TORSDOF 5
ENDMDL
MODEL 2
REMARK VINA RESULT:      -7.2      0.137      1.600
REMARK  5 active torsions:
REMARK  status: ('A' for Active; 'I' for Inactive)
REMARK    1  A    between atoms: C_2  and  C_1 
REMARK    2  A    between atoms: C_3  and  C_2 
REMARK    3  A    between atoms: C_6  and  C_3 
REMARK    4  A    between atoms: O_15  and  C_12 
REMARK    5  A    between atoms: O_14  and  C_13 
ROOT
ATOM      1  C   UNL d   1     -48.319  14.073  22.779  0.00  0.00     0.143 C 
ATOM      2  C   UNL d   1     -48.230  14.844  22.459  0.00  0.00     0.107 C 
ATOM      3  N   UNL d   1     -48.130  15.606  22.140  0.00  0.00    -0.191 NA
ENDROOT
BRANCH   1   4
ATOM      4  C   UNL d   1     -47.656  13.569  22.854  0.00  0.00     0.175 A 
ATOM      5  N   UNL d   1     -47.539  12.946  23.367  0.00  0.00    -0.225 NA
ATOM      6  C   UNL d   1     -46.831  12.628  23.243  0.00  0.00     0.101 A 
ATOM      7  C   UNL d   1     -46.444  12.017  23.584  0.00  0.00     0.021 A 
ATOM      8  C   UNL d   1     -46.454  13.039  22.635  0.00  0.00     0.101 A 
ATOM      9  C   UNL d   1     -45.676  11.790  23.340  0.00  0.00     0.002 A 
ATOM     10  C   UNL d   1     -45.338  12.216  22.741  0.00  0.00     0.002 A 
ATOM     11  C   UNL d   1     -45.732  12.831  22.401  0.00  0.00     0.021 A 
ATOM     12  N   UNL d   1     -46.989  13.635  22.397  0.00  0.00    -0.225 NA
ENDBRANCH   1   4
BRANCH   1  13
ATOM     13  C   UNL d   1     -49.072  13.844  23.007  0.00  0.00     0.212 C 
ATOM     14  O   UNL d   1     -49.168  13.390  23.695  0.00  0.00    -0.286 OA
BRANCH  13  15
ATOM     15  C   UNL d   1     -49.736  14.054  22.571  0.00  0.00     0.084 A 
ATOM     16  C   UNL d   1     -49.934  13.611  21.911  0.00  0.00     0.099 A 
ATOM     17  C   UNL d   1     -50.614  13.819  21.457  0.00  0.00     0.024 A 
ATOM     18  C   UNL d   1     -51.064  14.473  21.697  0.00  0.00     0.004 A 
ATOM     19  C   UNL d   1     -50.855  14.917  22.369  0.00  0.00     0.024 A 
ATOM     20  C   UNL d   1     -50.175  14.689  22.802  0.00  0.00     0.099 A 
BRANCH  16  21
ATOM     21  O   UNL d   1     -49.499  12.955  21.653  0.00  0.00    -0.328 OA
ATOM     22  C   UNL d   1     -49.870  12.372  21.182  0.00  0.00     0.181 C 
ENDBRANCH  16  21
BRANCH  20  23
ATOM     23  O   UNL d   1     -49.964  15.129  23.472  0.00  0.00    -0.328 OA
ATOM     24  C   UNL d   1     -50.377  15.808  23.686  0.00  0.00     0.181 C 
ENDBRANCH  20  23
ENDBRANCH  13  15
ENDBRANCH   1  13
TORSDOF 5
ENDMDL
MODEL 3
REMARK VINA RESULT:      -7.1      1.317      4.022
REMARK  5 active torsions:
REMARK  status: ('A' for Active; 'I' for Inactive)
REMARK    1  A    between atoms: C_2  and  C_1 
REMARK    2  A    between atoms: C_3  and  C_2 
REMARK    3  A    between atoms: C_6  and  C_3 
REMARK    4  A    between atoms: O_15  and  C_12 
REMARK    5  A    between atoms: O_14  and  C_13 
ROOT
ATOM      1  C   UNL d   1     -47.621  13.864  22.656  0.00  0.00     0.143 C 
ATOM      2  C   UNL d   1     -46.969  14.278  22.984  0.00  0.00     0.107 C 
ATOM      3  N   UNL d   1     -46.329  14.697  23.312  0.00  0.00    -0.191 NA
ENDROOT
BRANCH   1   4
ATOM      4  C   UNL d   1     -48.383  14.208  22.661  0.00  0.00     0.175 A 
ATOM      5  N   UNL d   1     -48.997  14.108  22.133  0.00  0.00    -0.225 NA
ATOM      6  C   UNL d   1     -49.613  14.541  22.356  0.00  0.00     0.101 A 
ATOM      7  C   UNL d   1     -50.343  14.646  22.044  0.00  0.00     0.021 A 
ATOM      8  C   UNL d   1     -49.422  14.945  23.049  0.00  0.00     0.101 A 
ATOM      9  C   UNL d   1     -50.906  15.150  22.403  0.00  0.00     0.002 A 
ATOM     10  C   UNL d   1     -50.683  15.530  23.082  0.00  0.00     0.002 A 
ATOM     11  C   UNL d   1     -49.947  15.421  23.391  0.00  0.00     0.021 A 
ATOM     12  N   UNL d   1     -48.637  14.725  23.233  0.00  0.00    -0.225 NA
ENDBRANCH   1   4
BRANCH   1  13
ATOM     13  C   UNL d   1     -47.476  13.122  22.338  0.00  0.00     0.212 C 
ATOM     14  O   UNL d   1     -47.782  12.934  21.590  0.00  0.00    -0.286 OA
BRANCH  13  15
ATOM     15  C   UNL d   1     -47.034  12.560  22.742  0.00  0.00     0.084 A 
ATOM     16  C   UNL d   1     -47.419  12.037  23.242  0.00  0.00     0.099 A 
ATOM     17  C   UNL d   1     -46.973  11.456  23.661  0.00  0.00     0.024 A 
ATOM     18  C   UNL d   1     -46.151  11.434  23.552  0.00  0.00     0.004 A 
ATOM     19  C   UNL d   1     -45.769  11.970  23.042  0.00  0.00     0.024 A 
ATOM     20  C   UNL d   1     -46.235  12.537  22.638  0.00  0.00     0.099 A 
BRANCH  16  21
ATOM     21  O   UNL d   1     -48.237  12.041  23.366  0.00  0.00    -0.328 OA
ATOM     22  C   UNL d   1     -48.608  11.370  23.698  0.00  0.00     0.181 C 
ENDBRANCH  16  21
BRANCH  20  23
ATOM     23  O   UNL d   1     -45.858  13.072  22.129  0.00  0.00    -0.328 OA
ATOM     24  C   UNL d   1     -45.089  12.943  21.866  0.00  0.00     0.181 C 
ENDBRANCH  20  23
ENDBRANCH  13  15
ENDBRANCH   1  13
TORSDOF 5
ENDMDL
MODEL 4
REMARK VINA RESULT:      -7.0      1.123      1.535
REMARK  5 active torsions:
REMARK  status: ('A' for Active; 'I' for Inactive)
REMARK    1  A    between atoms: C_2  and  C_1 
REMARK    2  A    between atoms: C_3  and  C_2 
REMARK    3  A    between atoms: C_6  and  C_3 
REMARK    4  A    between atoms: O_15  and  C_12 
REMARK    5  A    between atoms: O_14  and  C_13 
ROOT
ATOM      1  C   UNL d   1     -48.469  13.080  22.291  0.00  0.00     0.143 C 
ATOM      2  C   UNL d   1     -48.865  12.915  21.569  0.00  0.00     0.107 C 
ATOM      3  N   UNL d   1     -49.247  12.748  20.848  0.00  0.00    -0.191 NA
ENDROOT
BRANCH   1   4
ATOM      4  C   UNL d   1     -47.640  12.987  22.347  0.00  0.00     0.175 A 
ATOM      5  N   UNL d   1     -47.048  13.442  22.019  0.00  0.00    -0.225 NA
ATOM      6  C   UNL d   1     -46.346  13.148  22.219  0.00  0.00     0.101 A 
ATOM      7  C   UNL d   1     -45.597  13.375  22.050  0.00  0.00     0.021 A 
ATOM      8  C   UNL d   1     -46.457  12.482  22.691  0.00  0.00     0.101 A 
ATOM      9  C   UNL d   1     -44.935  12.953  22.341  0.00  0.00     0.002 A 
ATOM     10  C   UNL d   1     -45.082  12.304  22.801  0.00  0.00     0.002 A 
ATOM     11  C   UNL d   1     -45.838  12.082  22.967  0.00  0.00     0.021 A 
ATOM     12  N   UNL d   1     -47.284  12.390  22.765  0.00  0.00    -0.225 NA
ENDBRANCH   1   4
BRANCH   1  13
ATOM     13  C   UNL d   1     -48.927  13.331  22.923  0.00  0.00     0.212 C 
ATOM     14  O   UNL d   1     -48.669  13.182  23.697  0.00  0.00    -0.286 OA
BRANCH  13  15
ATOM     15  C   UNL d   1     -49.637  13.728  22.808  0.00  0.00     0.084 A 
ATOM     16  C   UNL d   1     -49.621  14.530  22.643  0.00  0.00     0.099 A 
ATOM     17  C   UNL d   1     -50.345  14.946  22.524  0.00  0.00     0.024 A 
ATOM     18  C   UNL d   1     -51.057  14.524  22.578  0.00  0.00     0.004 A 
ATOM     19  C   UNL d   1     -51.063  13.708  22.745  0.00  0.00     0.024 A 
ATOM     20  C   UNL d   1     -50.330  13.320  22.860  0.00  0.00     0.099 A 
BRANCH  16  21
ATOM     21  O   UNL d   1     -48.923  14.972  22.585  0.00  0.00    -0.328 OA
ATOM     22  C   UNL d   1     -48.963  15.806  22.561  0.00  0.00     0.181 C 
ENDBRANCH  16  21
BRANCH  20  23
ATOM     23  O   UNL d   1     -50.332  12.507  23.027  0.00  0.00    -0.328 OA
ATOM     24  C   UNL d   1     -50.978  12.147  23.386  0.00  0.00     0.181 C 
ENDBRANCH  20  23
ENDBRANCH  13  15
ENDBRANCH   1  13
TORSDOF 5
ENDMDL
MODEL 5
REMARK VINA RESULT:      -6.5      1.283      4.086
REMARK  5 active torsions:
REMARK  status: ('A' for Active; 'I' for Inactive)
REMARK    1  A    between atoms: C_2  and  C_1 
REMARK    2  A    between atoms: C_3  and  C_2 
REMARK    3  A    between atoms: C_6  and  C_3 
REMARK    4  A    between atoms: O_15  and  C_12 
REMARK    5  A    between atoms: O_14  and  C_13 
ROOT
ATOM      1  C   UNL d   1     -47.715  13.689  22.448  0.00  0.00     0.143 C 
ATOM      2  C   UNL d   1     -47.124  14.211  22.734  0.00  0.00     0.107 C 
ATOM      3  N   UNL d   1     -46.545  14.737  23.020  0.00  0.00    -0.191 NA
ENDROOT
BRANCH   1   4
ATOM      4  C   UNL d   1     -48.514  13.935  22.415  0.00  0.00     0.175 A 
ATOM      5  N   UNL d   1     -48.970  14.282  22.996  0.00  0.00    -0.225 NA
ATOM      6  C   UNL d   1     -49.693  14.420  22.719  0.00  0.00     0.101 A 
ATOM      7  C   UNL d   1     -50.346  14.744  23.049  0.00  0.00     0.021 A 
ATOM      8  C   UNL d   1     -49.735  14.164  21.936  0.00  0.00     0.101 A 
ATOM      9  C   UNL d   1     -51.060  14.826  22.620  0.00  0.00     0.002 A 
ATOM     10  C   UNL d   1     -51.064  14.565  21.855  0.00  0.00     0.002 A 
ATOM     11  C   UNL d   1     -50.404  14.239  21.529  0.00  0.00     0.021 A 
ATOM     12  N   UNL d   1     -48.979  13.858  21.755  0.00  0.00    -0.225 NA
ENDBRANCH   1   4
BRANCH   1  13
ATOM     13  C   UNL d   1     -47.475  12.943  22.207  0.00  0.00     0.212 C 
ATOM     14  O   UNL d   1     -47.746  12.643  21.483  0.00  0.00    -0.286 OA
BRANCH  13  15
ATOM     15  C   UNL d   1     -46.972  12.484  22.668  0.00  0.00     0.084 A 
ATOM     16  C   UNL d   1     -46.164  12.544  22.552  0.00  0.00     0.099 A 
ATOM     17  C   UNL d   1     -45.639  12.077  23.020  0.00  0.00     0.024 A 
ATOM     18  C   UNL d   1     -45.965  11.568  23.587  0.00  0.00     0.004 A 
ATOM     19  C   UNL d   1     -46.788  11.514  23.697  0.00  0.00     0.024 A 
ATOM     20  C   UNL d   1     -47.286  11.988  23.220  0.00  0.00     0.099 A 
BRANCH  16  21
ATOM     21  O   UNL d   1     -45.817  13.046  21.992  0.00  0.00    -0.328 OA
ATOM     22  C   UNL d   1     -45.077  12.847  21.659  0.00  0.00     0.181 C 
ENDBRANCH  16  21
BRANCH  20  23
ATOM     23  O   UNL d   1     -48.107  11.937  23.327  0.00  0.00    -0.328 OA
ATOM     24  C   UNL d   1     -48.462  11.239  23.578  0.00  0.00     0.181 C 
ENDBRANCH  20  23
ENDBRANCH  13  15
ENDBRANCH   1  13
TORSDOF 5
ENDMDL
MODEL 6
REMARK VINA RESULT:      -6.4      9.349     10.515
REMARK  5 active torsions:
REMARK  status: ('A' for Active; 'I' for Inactive)
REMARK    1  A    between atoms: C_2  and  C_1 
REMARK    2  A    between atoms: C_3  and  C_2 
REMARK    3  A    between atoms: C_6  and  C_3 
REMARK    4  A    between atoms: O_15  and  C_12 
REMARK    5  A    between atoms: O_14  and  C_13 
ROOT
ATOM      1  C   UNL d   1     -39.004  14.529  19.193  0.00  0.00     0.143 C 
ATOM      2  C   UNL d   1     -38.592  15.216  18.941  0.00  0.00     0.107 C 
ATOM      3  N   UNL d   1     -38.179  15.898  18.702  0.00  0.00    -0.191 NA
ENDROOT
BRANCH   1   4
ATOM      4  C   UNL d   1     -38.918  14.250  19.977  0.00  0.00     0.175 A 
ATOM      5  N   UNL d   1     -38.319  13.801  20.300  0.00  0.00    -0.225 NA
ATOM      6  C   UNL d   1     -38.467  13.668  21.061  0.00  0.00     0.101 A 
ATOM      7  C   UNL d   1     -38.070  13.267  21.628  0.00  0.00     0.021 A 
ATOM      8  C   UNL d   1     -39.179  14.031  21.264  0.00  0.00     0.101 A 
ATOM      9  C   UNL d   1     -38.359  13.211  22.411  0.00  0.00     0.002 A 
ATOM     10  C   UNL d   1     -39.061  13.581  22.574  0.00  0.00     0.002 A 
ATOM     11  C   UNL d   1     -39.456  13.982  21.999  0.00  0.00     0.021 A 
ATOM     12  N   UNL d   1     -39.455  14.398  20.566  0.00  0.00    -0.225 NA
ENDBRANCH   1   4
BRANCH   1  13
ATOM     13  C   UNL d   1     -39.483  14.155  18.644  0.00  0.00     0.212 C 
ATOM     14  O   UNL d   1     -40.140  13.720  18.906  0.00  0.00    -0.286 OA
BRANCH  13  15
ATOM     15  C   UNL d   1     -39.329  14.199  17.838  0.00  0.00     0.084 A 
ATOM     16  C   UNL d   1     -38.776  13.691  17.511  0.00  0.00     0.099 A 
ATOM     17  C   UNL d   1     -38.612  13.729  16.685  0.00  0.00     0.024 A 
ATOM     18  C   UNL d   1     -39.020  14.286  16.226  0.00  0.00     0.004 A 
ATOM     19  C   UNL d   1     -39.581  14.798  16.567  0.00  0.00     0.024 A 
ATOM     20  C   UNL d   1     -39.725  14.739  17.390  0.00  0.00     0.099 A 
BRANCH  16  21
ATOM     21  O   UNL d   1     -38.357  13.127  17.950  0.00  0.00    -0.328 OA
ATOM     22  C   UNL d   1     -37.960  12.507  17.554  0.00  0.00     0.181 C 
ENDBRANCH  16  21
BRANCH  20  23
ATOM     23  O   UNL d   1     -40.283  15.248  17.733  0.00  0.00    -0.328 OA
ATOM     24  C   UNL d   1     -40.860  15.618  17.279  0.00  0.00     0.181 C 
ENDBRANCH  20  23
ENDBRANCH  13  15
ENDBRANCH   1  13
TORSDOF 5
ENDMDL
MODEL 7
REMARK VINA RESULT:      -5.7      8.637     10.674
REMARK  5 active torsions:
REMARK  status: ('A' for Active; 'I' for Inactive)
REMARK    1  A    between atoms: C_2  and  C_1 
REMARK    2  A    between atoms: C_3  and  C_2 
REMARK    3  A    between atoms: C_6  and  C_3 
REMARK    4  A    between atoms: O_15  and  C_12 
REMARK    5  A    between atoms: O_14  and  C_13 
ROOT
ATOM      1  C   UNL d   1     -39.183  14.619  18.475  0.00  0.00     0.143 C 
ATOM      2  C   UNL d   1     -38.561  15.167  18.342  0.00  0.00     0.107 C 
ATOM      3  N   UNL d   1     -37.944  15.713  18.221  0.00  0.00    -0.191 NA
ENDROOT
BRANCH   1   4
ATOM      4  C   UNL d   1     -39.490  14.510  19.245  0.00  0.00     0.175 A 
ATOM      5  N   UNL d   1     -40.260  14.573  19.506  0.00  0.00    -0.225 NA
ATOM      6  C   UNL d   1     -40.293  14.423  20.276  0.00  0.00     0.101 A 
ATOM      7  C   UNL d   1     -40.898  14.408  20.800  0.00  0.00     0.021 A 
ATOM      8  C   UNL d   1     -39.534  14.254  20.551  0.00  0.00     0.101 A 
ATOM      9  C   UNL d   1     -40.777  14.227  21.608  0.00  0.00     0.002 A 
ATOM     10  C   UNL d   1     -40.019  14.066  21.841  0.00  0.00     0.002 A 
ATOM     11  C   UNL d   1     -39.414  14.082  21.309  0.00  0.00     0.021 A 
ATOM     12  N   UNL d   1     -39.033  14.312  19.885  0.00  0.00    -0.225 NA
ENDBRANCH   1   4
BRANCH   1  13
ATOM     13  C   UNL d   1     -39.467  14.207  17.826  0.00  0.00     0.212 C 
ATOM     14  O   UNL d   1     -40.238  13.901  17.845  0.00  0.00    -0.286 OA
BRANCH  13  15
ATOM     15  C   UNL d   1     -39.006  14.089  17.156  0.00  0.00     0.084 A 
ATOM     16  C   UNL d   1     -39.052  14.630  16.543  0.00  0.00     0.099 A 
ATOM     17  C   UNL d   1     -38.583  14.517  15.851  0.00  0.00     0.024 A 
ATOM     18  C   UNL d   1     -38.086  13.854  15.815  0.00  0.00     0.004 A 
ATOM     19  C   UNL d   1     -38.047  13.310  16.443  0.00  0.00     0.024 A 
ATOM     20  C   UNL d   1     -38.523  13.446  17.118  0.00  0.00     0.099 A 
BRANCH  16  21
ATOM     21  O   UNL d   1     -39.541  15.299  16.558  0.00  0.00    -0.328 OA
ATOM     22  C   UNL d   1     -39.690  15.717  15.850  0.00  0.00     0.181 C 
ENDBRANCH  16  21
BRANCH  20  23
ATOM     23  O   UNL d   1     -38.487  12.905  17.746  0.00  0.00    -0.328 OA
ATOM     24  C   UNL d   1     -38.118  12.174  17.661  0.00  0.00     0.181 C 
ENDBRANCH  20  23
ENDBRANCH  13  15
ENDBRANCH   1  13
TORSDOF 5
ENDMDL
MODEL 8
REMARK VINA RESULT:      -5.6      8.431     10.317
REMARK  5 active torsions:
REMARK  status: ('A' for Active; 'I' for Inactive)
REMARK    1  A    between atoms: C_2  and  C_1 
REMARK    2  A    between atoms: C_3  and  C_2 
REMARK    3  A    between atoms: C_6  and  C_3 
REMARK    4  A    between atoms: O_15  and  C_12 
REMARK    5  A    between atoms: O_14  and  C_13 
ROOT
ATOM      1  C   UNL d   1     -39.807  14.777  18.608  0.00  0.00     0.143 C 
ATOM      2  C   UNL d   1     -40.447  15.314  18.528  0.00  0.00     0.107 C 
ATOM      3  N   UNL d   1     -41.080  15.847  18.436  0.00  0.00    -0.191 NA
ENDROOT
BRANCH   1   4
ATOM      4  C   UNL d   1     -39.363  14.547  17.938  0.00  0.00     0.175 A 
ATOM      5  N   UNL d   1     -39.104  13.804  17.723  0.00  0.00    -0.225 NA
ATOM      6  C   UNL d   1     -38.704  13.847  17.047  0.00  0.00     0.101 A 
ATOM      7  C   UNL d   1     -38.338  13.295  16.598  0.00  0.00     0.021 A 
ATOM      8  C   UNL d   1     -38.689  14.632  16.793  0.00  0.00     0.101 A 
ATOM      9  C   UNL d   1     -37.945  13.497  15.887  0.00  0.00     0.002 A 
ATOM     10  C   UNL d   1     -37.950  14.276  15.669  0.00  0.00     0.002 A 
ATOM     11  C   UNL d   1     -38.321  14.827  16.125  0.00  0.00     0.021 A 
ATOM     12  N   UNL d   1     -39.111  15.066  17.368  0.00  0.00    -0.225 NA
ENDBRANCH   1   4
BRANCH   1  13
ATOM     13  C   UNL d   1     -39.643  14.496  19.361  0.00  0.00     0.212 C 
ATOM     14  O   UNL d   1     -39.265  13.763  19.448  0.00  0.00    -0.286 OA
BRANCH  13  15
ATOM     15  C   UNL d   1     -39.845  14.923  20.033  0.00  0.00     0.084 A 
ATOM     16  C   UNL d   1     -40.564  14.774  20.396  0.00  0.00     0.099 A 
ATOM     17  C   UNL d   1     -40.780  15.208  21.087  0.00  0.00     0.024 A 
ATOM     18  C   UNL d   1     -40.252  15.778  21.377  0.00  0.00     0.004 A 
ATOM     19  C   UNL d   1     -39.524  15.922  21.000  0.00  0.00     0.024 A 
ATOM     20  C   UNL d   1     -39.334  15.477  20.317  0.00  0.00     0.099 A 
BRANCH  16  21
ATOM     21  O   UNL d   1     -41.107  14.211  20.125  0.00  0.00    -0.328 OA
ATOM     22  C   UNL d   1     -41.616  13.831  20.668  0.00  0.00     0.181 C 
ENDBRANCH  16  21
BRANCH  20  23
ATOM     23  O   UNL d   1     -38.609  15.618  19.938  0.00  0.00    -0.328 OA
ATOM     24  C   UNL d   1     -37.952  15.880  20.358  0.00  0.00     0.181 C 
ENDBRANCH  20  23
ENDBRANCH  13  15
ENDBRANCH   1  13
TORSDOF 5
ENDMDL
