MODEL 1
REMARK VINA RESULT:      -6.4      0.000      0.000
REMARK  4 active torsions:
REMARK  status: ('A' for Active; 'I' for Inactive)
REMARK    1  A    between atoms: C_2  and  C_1 
REMARK    2  A    between atoms: C_8  and  C_1 
REMARK    3  A    between atoms: C_9  and  C_2 
REMARK    4  A    between atoms: N_4  and  C_3 
ROOT
ATOM      1  C   UNL d   1     -46.249  13.221  22.621  0.00  0.00     0.064 A 
ATOM      2  C   UNL d   1     -46.280  14.026  22.791  0.00  0.00     0.018 A 
ATOM      3  C   UNL d   1     -46.938  12.752  22.635  0.00  0.00     0.018 A 
ATOM      4  C   UNL d   1     -47.694  13.918  22.994  0.00  0.00     0.000 A 
ATOM      5  C   UNL d   1     -47.002  14.368  22.976  0.00  0.00     0.002 A 
ATOM      6  C   UNL d   1     -47.655  13.101  22.821  0.00  0.00     0.002 A 
ENDROOT
BRANCH   4   7
ATOM      7  C   UNL d   1     -48.419  14.261  23.180  0.00  0.00     0.000 C 
BRANCH   7   8
ATOM      8  C   UNL d   1     -48.792  14.745  22.630  0.00  0.00     0.000 C 
BRANCH   8   9
ATOM      9  C   UNL d   1     -49.541  15.052  22.798  0.00  0.00     0.003 A 
ATOM     10  C   UNL d   1     -50.171  14.773  22.351  0.00  0.00     0.021 A 
ATOM     11  C   UNL d   1     -50.942  15.065  22.496  0.00  0.00     0.099 A 
ATOM     12  N   UNL d   1     -51.064  15.632  23.090  0.00  0.00    -0.242 NA
ATOM     13  C   UNL d   1     -50.420  15.903  23.532  0.00  0.00     0.099 A 
ATOM     14  C   UNL d   1     -49.660  15.618  23.391  0.00  0.00     0.021 A 
ENDBRANCH   8   9
ENDBRANCH   7   8
ENDBRANCH   4   7
BRANCH   1  15
ATOM     15  N   UNL d   1     -45.519  12.861  22.431  0.00  0.00    -0.301 N 
ATOM     16  C   UNL d   1     -45.301  12.158  22.811  0.00  0.00     0.100 C 
ATOM     17  C   UNL d   1     -45.022  13.208  21.869  0.00  0.00     0.100 C 
ENDBRANCH   1  15
TORSDOF 4
ENDMDL
MODEL 2
REMARK VINA RESULT:      -6.3      0.845      4.528
REMARK  4 active torsions:
REMARK  status: ('A' for Active; 'I' for Inactive)
REMARK    1  A    between atoms: C_2  and  C_1 
REMARK    2  A    between atoms: C_8  and  C_1 
REMARK    3  A    between atoms: C_9  and  C_2 
REMARK    4  A    between atoms: N_4  and  C_3 
ROOT
ATOM      1  C   UNL d   1     -49.726  14.827  23.047  0.00  0.00     0.064 A 
ATOM      2  C   UNL d   1     -49.708  14.077  23.387  0.00  0.00     0.018 A 
ATOM      3  C   UNL d   1     -49.066  15.129  22.638  0.00  0.00     0.018 A 
ATOM      4  C   UNL d   1     -48.365  13.908  22.918  0.00  0.00     0.000 A 
ATOM      5  C   UNL d   1     -49.028  13.624  23.320  0.00  0.00     0.002 A 
ATOM      6  C   UNL d   1     -48.390  14.671  22.575  0.00  0.00     0.002 A 
ENDROOT
BRANCH   4   7
ATOM      7  C   UNL d   1     -47.682  13.454  22.851  0.00  0.00     0.000 C 
BRANCH   7   8
ATOM      8  C   UNL d   1     -47.472  12.943  23.459  0.00  0.00     0.000 C 
BRANCH   8   9
ATOM      9  C   UNL d   1     -46.788  12.484  23.390  0.00  0.00     0.003 A 
ATOM     10  C   UNL d   1     -46.814  11.722  23.698  0.00  0.00     0.021 A 
ATOM     11  C   UNL d   1     -46.138  11.232  23.643  0.00  0.00     0.099 A 
ATOM     12  N   UNL d   1     -45.448  11.517  23.280  0.00  0.00    -0.242 NA
ATOM     13  C   UNL d   1     -45.438  12.285  22.975  0.00  0.00     0.099 A 
ATOM     14  C   UNL d   1     -46.102  12.771  23.027  0.00  0.00     0.021 A 
ENDBRANCH   8   9
ENDBRANCH   7   8
ENDBRANCH   4   7
BRANCH   1  15
ATOM     15  N   UNL d   1     -50.414  15.298  23.109  0.00  0.00    -0.301 N 
ATOM     16  C   UNL d   1     -51.049  15.161  22.595  0.00  0.00     0.100 C 
ATOM     17  C   UNL d   1     -50.455  15.894  23.680  0.00  0.00     0.100 C 
ENDBRANCH   1  15
TORSDOF 4
ENDMDL
MODEL 3
REMARK VINA RESULT:      -5.5      1.982      2.494
REMARK  4 active torsions:
REMARK  status: ('A' for Active; 'I' for Inactive)
REMARK    1  A    between atoms: C_2  and  C_1 
REMARK    2  A    between atoms: C_8  and  C_1 
REMARK    3  A    between atoms: C_9  and  C_2 
REMARK    4  A    between atoms: N_4  and  C_3 
ROOT
ATOM      1  C   UNL d   1     -45.820  11.343  23.374  0.00  0.00     0.064 A 
ATOM      2  C   UNL d   1     -46.003  12.110  23.137  0.00  0.00     0.018 A 
ATOM      3  C   UNL d   1     -46.411  10.828  23.655  0.00  0.00     0.018 A 
ATOM      4  C   UNL d   1     -47.379  11.869  23.454  0.00  0.00     0.000 A 
ATOM      5  C   UNL d   1     -46.780  12.367  23.179  0.00  0.00     0.002 A 
ATOM      6  C   UNL d   1     -47.186  11.091  23.694  0.00  0.00     0.002 A 
ENDROOT
BRANCH   4   7
ATOM      7  C   UNL d   1     -48.159  12.127  23.496  0.00  0.00     0.000 C 
BRANCH   7   8
ATOM      8  C   UNL d   1     -48.690  11.913  22.907  0.00  0.00     0.000 C 
BRANCH   8   9
ATOM      9  C   UNL d   1     -49.469  12.187  22.940  0.00  0.00     0.003 A 
ATOM     10  C   UNL d   1     -49.661  12.834  22.471  0.00  0.00     0.021 A 
ATOM     11  C   UNL d   1     -50.442  13.135  22.481  0.00  0.00     0.099 A 
ATOM     12  N   UNL d   1     -51.016  12.779  22.965  0.00  0.00    -0.242 NA
ATOM     13  C   UNL d   1     -50.808  12.129  23.431  0.00  0.00     0.099 A 
ATOM     14  C   UNL d   1     -50.040  11.830  23.423  0.00  0.00     0.021 A 
ENDBRANCH   8   9
ENDBRANCH   7   8
ENDBRANCH   4   7
BRANCH   1  15
ATOM     15  N   UNL d   1     -45.031  11.070  23.336  0.00  0.00    -0.301 N 
ATOM     16  C   UNL d   1     -44.831  10.352  23.698  0.00  0.00     0.100 C 
ATOM     17  C   UNL d   1     -44.459  11.516  22.939  0.00  0.00     0.100 C 
ENDBRANCH   1  15
TORSDOF 4
ENDMDL
MODEL 4
REMARK VINA RESULT:      -5.2      1.489      4.532
REMARK  4 active torsions:
REMARK  status: ('A' for Active; 'I' for Inactive)
REMARK    1  A    between atoms: C_2  and  C_1 
REMARK    2  A    between atoms: C_8  and  C_1 
REMARK    3  A    between atoms: C_9  and  C_2 
REMARK    4  A    between atoms: N_4  and  C_3 
ROOT
ATOM      1  C   UNL d   1     -49.793  12.797  23.439  0.00  0.00     0.064 A 
ATOM      2  C   UNL d   1     -49.355  13.468  23.249  0.00  0.00     0.018 A 
ATOM      3  C   UNL d   1     -49.419  12.068  23.590  0.00  0.00     0.018 A 
ATOM      4  C   UNL d   1     -48.151  12.699  23.356  0.00  0.00     0.000 A 
ATOM      5  C   UNL d   1     -48.538  13.413  23.209  0.00  0.00     0.002 A 
ATOM      6  C   UNL d   1     -48.603  12.021  23.549  0.00  0.00     0.002 A 
ENDROOT
BRANCH   4   7
ATOM      7  C   UNL d   1     -47.331  12.643  23.316  0.00  0.00     0.000 C 
BRANCH   7   8
ATOM      8  C   UNL d   1     -46.919  13.105  22.776  0.00  0.00     0.000 C 
BRANCH   8   9
ATOM      9  C   UNL d   1     -46.126  12.935  22.614  0.00  0.00     0.003 A 
ATOM     10  C   UNL d   1     -45.714  13.470  22.145  0.00  0.00     0.021 A 
ATOM     11  C   UNL d   1     -44.911  13.326  21.963  0.00  0.00     0.099 A 
ATOM     12  N   UNL d   1     -44.535  12.646  22.256  0.00  0.00    -0.242 NA
ATOM     13  C   UNL d   1     -44.962  12.117  22.726  0.00  0.00     0.099 A 
ATOM     14  C   UNL d   1     -45.754  12.256  22.907  0.00  0.00     0.021 A 
ENDBRANCH   8   9
ENDBRANCH   7   8
ENDBRANCH   4   7
BRANCH   1  15
ATOM     15  N   UNL d   1     -50.627  12.840  23.483  0.00  0.00    -0.301 N 
ATOM     16  C   UNL d   1     -51.060  12.161  23.674  0.00  0.00     0.100 C 
ATOM     17  C   UNL d   1     -51.011  13.558  23.334  0.00  0.00     0.100 C 
ENDBRANCH   1  15
TORSDOF 4
ENDMDL
MODEL 5
REMARK VINA RESULT:      -4.9      8.492      9.149
REMARK  4 active torsions:
REMARK  status: ('A' for Active; 'I' for Inactive)
REMARK    1  A    between atoms: C_2  and  C_1 
REMARK    2  A    between atoms: C_8  and  C_1 
REMARK    3  A    between atoms: C_9  and  C_2 
REMARK    4  A    between atoms: N_4  and  C_3 
ROOT
ATOM      1  C   UNL d   1     -39.165  14.214  21.579  0.00  0.00     0.064 A 
ATOM      2  C   UNL d   1     -39.929  14.506  21.486  0.00  0.00     0.018 A 
ATOM      3  C   UNL d   1     -38.708  13.989  20.920  0.00  0.00     0.018 A 
ATOM      4  C   UNL d   1     -39.803  14.357  20.067  0.00  0.00     0.000 A 
ATOM      5  C   UNL d   1     -40.242  14.575  20.731  0.00  0.00     0.002 A 
ATOM      6  C   UNL d   1     -39.027  14.060  20.169  0.00  0.00     0.002 A 
ENDROOT
BRANCH   4   7
ATOM      7  C   UNL d   1     -40.116  14.425  19.309  0.00  0.00     0.000 C 
BRANCH   7   8
ATOM      8  C   UNL d   1     -40.053  15.139  18.907  0.00  0.00     0.000 C 
BRANCH   8   9
ATOM      9  C   UNL d   1     -40.393  15.217  18.157  0.00  0.00     0.003 A 
ATOM     10  C   UNL d   1     -40.945  15.817  18.055  0.00  0.00     0.021 A 
ATOM     11  C   UNL d   1     -41.307  15.922  17.308  0.00  0.00     0.099 A 
ATOM     12  N   UNL d   1     -41.106  15.421  16.677  0.00  0.00    -0.242 NA
ATOM     13  C   UNL d   1     -40.549  14.822  16.795  0.00  0.00     0.099 A 
ATOM     14  C   UNL d   1     -40.191  14.716  17.529  0.00  0.00     0.021 A 
ENDBRANCH   8   9
ENDBRANCH   7   8
ENDBRANCH   4   7
BRANCH   1  15
ATOM     15  N   UNL d   1     -38.836  14.139  22.344  0.00  0.00    -0.301 N 
ATOM     16  C   UNL d   1     -38.644  14.822  22.772  0.00  0.00     0.100 C 
ATOM     17  C   UNL d   1     -38.705  13.389  22.665  0.00  0.00     0.100 C 
ENDBRANCH   1  15
TORSDOF 4
ENDMDL
MODEL 6
REMARK VINA RESULT:      -4.5      7.532     10.399
REMARK  4 active torsions:
REMARK  status: ('A' for Active; 'I' for Inactive)
REMARK    1  A    between atoms: C_2  and  C_1 
REMARK    2  A    between atoms: C_8  and  C_1 
REMARK    3  A    between atoms: C_9  and  C_2 
REMARK    4  A    between atoms: N_4  and  C_3 
ROOT
ATOM      1  C   UNL d   1     -40.447  15.309  20.035  0.00  0.00     0.064 A 
ATOM      2  C   UNL d   1     -40.331  15.873  19.446  0.00  0.00     0.018 A 
ATOM      3  C   UNL d   1     -40.314  14.500  19.887  0.00  0.00     0.018 A 
ATOM      4  C   UNL d   1     -39.945  14.832  18.541  0.00  0.00     0.000 A 
ATOM      5  C   UNL d   1     -40.081  15.630  18.704  0.00  0.00     0.002 A 
ATOM      6  C   UNL d   1     -40.065  14.265  19.143  0.00  0.00     0.002 A 
ENDROOT
BRANCH   4   7
ATOM      7  C   UNL d   1     -39.694  14.588  17.796  0.00  0.00     0.000 C 
BRANCH   7   8
ATOM      8  C   UNL d   1     -38.969  14.212  17.715  0.00  0.00     0.000 C 
BRANCH   8   9
ATOM      9  C   UNL d   1     -38.667  14.065  16.959  0.00  0.00     0.003 A 
ATOM     10  C   UNL d   1     -38.358  13.316  16.817  0.00  0.00     0.021 A 
ATOM     11  C   UNL d   1     -38.045  13.136  16.062  0.00  0.00     0.099 A 
ATOM     12  N   UNL d   1     -38.048  13.712  15.464  0.00  0.00    -0.242 NA
ATOM     13  C   UNL d   1     -38.362  14.460  15.623  0.00  0.00     0.099 A 
ATOM     14  C   UNL d   1     -38.671  14.641  16.365  0.00  0.00     0.021 A 
ENDBRANCH   8   9
ENDBRANCH   7   8
ENDBRANCH   4   7
BRANCH   1  15
ATOM     15  N   UNL d   1     -40.701  15.545  20.796  0.00  0.00    -0.301 N 
ATOM     16  C   UNL d   1     -40.217  15.397  21.451  0.00  0.00     0.100 C 
ATOM     17  C   UNL d   1     -41.431  15.922  20.888  0.00  0.00     0.100 C 
ENDBRANCH   1  15
TORSDOF 4
ENDMDL
MODEL 7
REMARK VINA RESULT:      -4.4      7.652      9.852
REMARK  4 active torsions:
REMARK  status: ('A' for Active; 'I' for Inactive)
REMARK    1  A    between atoms: C_2  and  C_1 
REMARK    2  A    between atoms: C_8  and  C_1 
REMARK    3  A    between atoms: C_9  and  C_2 
REMARK    4  A    between atoms: N_4  and  C_3 
ROOT
ATOM      1  C   UNL d   1     -38.749  14.458  16.629  0.00  0.00     0.064 A 
ATOM      2  C   UNL d   1     -38.853  13.886  17.212  0.00  0.00     0.018 A 
ATOM      3  C   UNL d   1     -39.086  15.216  16.704  0.00  0.00     0.018 A 
ATOM      4  C   UNL d   1     -39.639  14.816  17.967  0.00  0.00     0.000 A 
ATOM      5  C   UNL d   1     -39.297  14.070  17.876  0.00  0.00     0.002 A 
ATOM      6  C   UNL d   1     -39.529  15.392  17.371  0.00  0.00     0.002 A 
ENDROOT
BRANCH   4   7
ATOM      7  C   UNL d   1     -40.085  15.001  18.634  0.00  0.00     0.000 C 
BRANCH   7   8
ATOM      8  C   UNL d   1     -39.711  15.090  19.360  0.00  0.00     0.000 C 
BRANCH   8   9
ATOM      9  C   UNL d   1     -40.141  15.371  20.009  0.00  0.00     0.003 A 
ATOM     10  C   UNL d   1     -39.763  15.369  20.739  0.00  0.00     0.021 A 
ATOM     11  C   UNL d   1     -40.170  15.647  21.415  0.00  0.00     0.099 A 
ATOM     12  N   UNL d   1     -40.951  15.922  21.344  0.00  0.00    -0.242 NA
ATOM     13  C   UNL d   1     -41.317  15.917  20.603  0.00  0.00     0.099 A 
ATOM     14  C   UNL d   1     -40.919  15.644  19.935  0.00  0.00     0.021 A 
ENDBRANCH   8   9
ENDBRANCH   7   8
ENDBRANCH   4   7
BRANCH   1  15
ATOM     15  N   UNL d   1     -38.298  14.283  15.947  0.00  0.00    -0.301 N 
ATOM     16  C   UNL d   1     -38.037  14.901  15.462  0.00  0.00     0.100 C 
ATOM     17  C   UNL d   1     -38.117  13.497  15.763  0.00  0.00     0.100 C 
ENDBRANCH   1  15
TORSDOF 4
ENDMDL
MODEL 8
REMARK VINA RESULT:      -4.0      8.829      9.684
REMARK  4 active torsions:
REMARK  status: ('A' for Active; 'I' for Inactive)
REMARK    1  A    between atoms: C_2  and  C_1 
REMARK    2  A    between atoms: C_8  and  C_1 
REMARK    3  A    between atoms: C_9  and  C_2 
REMARK    4  A    between atoms: N_4  and  C_3 
ROOT
ATOM      1  C   UNL d   1     -40.591  15.398  17.749  0.00  0.00     0.064 A 
ATOM      2  C   UNL d   1     -40.437  14.590  17.789  0.00  0.00     0.018 A 
ATOM      3  C   UNL d   1     -40.550  15.877  18.429  0.00  0.00     0.018 A 
ATOM      4  C   UNL d   1     -40.195  14.717  19.196  0.00  0.00     0.000 A 
ATOM      5  C   UNL d   1     -40.240  14.256  18.512  0.00  0.00     0.002 A 
ATOM      6  C   UNL d   1     -40.353  15.537  19.148  0.00  0.00     0.002 A 
ENDROOT
BRANCH   4   7
ATOM      7  C   UNL d   1     -39.998  14.382  19.921  0.00  0.00     0.000 C 
BRANCH   7   8
ATOM      8  C   UNL d   1     -39.261  14.533  20.251  0.00  0.00     0.000 C 
BRANCH   8   9
ATOM      9  C   UNL d   1     -39.023  14.119  20.926  0.00  0.00     0.003 A 
ATOM     10  C   UNL d   1     -38.313  13.708  20.884  0.00  0.00     0.021 A 
ATOM     11  C   UNL d   1     -38.044  13.279  21.551  0.00  0.00     0.099 A 
ATOM     12  N   UNL d   1     -38.496  13.273  22.249  0.00  0.00    -0.242 NA
ATOM     13  C   UNL d   1     -39.207  13.692  22.275  0.00  0.00     0.099 A 
ATOM     14  C   UNL d   1     -39.475  14.115  21.620  0.00  0.00     0.021 A 
ENDBRANCH   8   9
ENDBRANCH   7   8
ENDBRANCH   4   7
BRANCH   1  15
ATOM     15  N   UNL d   1     -40.793  15.749  17.018  0.00  0.00    -0.301 N 
ATOM     16  C   UNL d   1     -41.586  15.922  16.854  0.00  0.00     0.100 C 
ATOM     17  C   UNL d   1     -40.201  15.921  16.466  0.00  0.00     0.100 C 
ENDBRANCH   1  15
TORSDOF 4
ENDMDL
