MODEL 1
REMARK VINA RESULT:      -6.2      0.000      0.000
REMARK  4 active torsions:
REMARK  status: ('A' for Active; 'I' for Inactive)
REMARK    1  A    between atoms: C_10  and  C_2 
REMARK    2  A    between atoms: C_9  and  C_4 
REMARK    3  A    between atoms: C_8  and  N_6 
REMARK    4  A    between atoms: N_7  and  C_9 
ROOT
ATOM      1  N   UNL d   1     -41.644-122.735 -53.182  0.00  0.00    -0.301 N 
ATOM      2  N   UNL d   1     -41.298-123.328 -51.685  0.00  0.00    -0.297 N 
ATOM      3  C   UNL d   1     -41.815-123.521 -52.997  0.00  0.00     0.100 A 
ATOM      4  C   UNL d   1     -41.301-122.246 -52.619  0.00  0.00     0.100 A 
ATOM      5  C   UNL d   1     -41.641-123.817 -52.248  0.00  0.00     0.100 A 
ATOM      6  C   UNL d   1     -41.126-122.541 -51.866  0.00  0.00     0.100 A 
ENDROOT
BRANCH   2   7
ATOM      7  C   UNL d   1     -41.123-123.619 -50.935  0.00  0.00     0.127 C 
BRANCH   7   8
ATOM      8  C   UNL d   1     -41.687-123.567 -50.339  0.00  0.00     0.222 A 
ATOM      9  N   UNL d   1     -42.511-123.574 -50.432  0.00  0.00    -0.119 NA
ATOM     10  N   UNL d   1     -42.855-123.509 -49.685  0.00  0.00    -0.121 NA
ATOM     11  C   UNL d   1     -42.245-123.462 -49.127  0.00  0.00     0.204 A 
ATOM     12  O   UNL d   1     -41.523-123.498 -49.528  0.00  0.00    -0.267 OA
BRANCH  11  13
ATOM     13  C   UNL d   1     -42.347-123.392 -48.310  0.00  0.00     0.043 A 
ATOM     14  C   UNL d   1     -41.854-122.897 -47.875  0.00  0.00     0.004 A 
ATOM     15  C   UNL d   1     -41.956-122.827 -47.058  0.00  0.00     0.000 A 
ATOM     16  C   UNL d   1     -42.551-123.252 -46.680  0.00  0.00     0.000 A 
ATOM     17  C   UNL d   1     -43.049-123.752 -47.126  0.00  0.00     0.000 A 
ATOM     18  C   UNL d   1     -42.939-123.816 -47.939  0.00  0.00     0.004 A 
ENDBRANCH  11  13
ENDBRANCH   7   8
ENDBRANCH   2   7
BRANCH   1  19
ATOM     19  C   UNL d   1     -41.817-122.438 -53.930  0.00  0.00     0.064 A 
ATOM     20  C   UNL d   1     -41.347-122.647 -54.576  0.00  0.00     0.020 A 
ATOM     21  C   UNL d   1     -41.523-122.347 -55.326  0.00  0.00     0.031 A 
ATOM     22  C   UNL d   1     -42.168-121.840 -55.433  0.00  0.00     0.140 A 
ATOM     23  C   UNL d   1     -42.632-121.638 -54.780  0.00  0.00     0.031 A 
ATOM     24  F   UNL d   1     -42.378-121.520 -56.162  0.00  0.00    -0.204 F 
ATOM     25  C   UNL d   1     -42.459-121.935 -54.031  0.00  0.00     0.020 A 
ENDBRANCH   1  19
TORSDOF 4
ENDMDL
