MODEL 1
REMARK VINA RESULT:      -2.7      0.000      0.000
REMARK  4 active torsions:
REMARK  status: ('A' for Active; 'I' for Inactive)
REMARK    1  A    between atoms: C_9  and  N_1 
REMARK    2  A    between atoms: C_2  and  C_9 
REMARK    3  A    between atoms: S_13  and  C_5 
REMARK    4  A    between atoms: C_17  and  S_13 
ROOT
ATOM      1  N   UNL d   1      31.253  16.716 -24.696  0.00  0.00    -0.265 N 
ATOM      2  C   UNL d   1      31.480  15.926 -24.604  0.00  0.00     0.296 A 
ATOM      3  S   UNL d   1      30.795  15.472 -24.577  0.00  0.00    -0.025 SA
ATOM      4  C   UNL d   1      30.436  16.754 -24.726  0.00  0.00     0.074 A 
ATOM      5  C   UNL d   1      30.145  15.989 -24.653  0.00  0.00     0.050 A 
ATOM      6  O   UNL d   1      32.252  15.648 -24.550  0.00  0.00    -0.259 OA
ATOM      7  C   UNL d   1      29.907  17.388 -24.812  0.00  0.00     0.018 A 
ATOM      8  C   UNL d   1      29.330  15.849 -24.664  0.00  0.00     0.008 A 
ATOM      9  C   UNL d   1      29.093  17.253 -24.823  0.00  0.00     0.002 A 
ATOM     10  C   UNL d   1      28.812  16.475 -24.748  0.00  0.00     0.001 A 
ENDROOT
BRANCH   1  11
ATOM     11  C   UNL d   1      31.761  17.363 -24.750  0.00  0.00     0.123 C 
BRANCH  11  12
ATOM     12  C   UNL d   1      32.089  17.688 -24.077  0.00  0.00     0.189 A 
ATOM     13  N   UNL d   1      32.464  18.414 -24.115  0.00  0.00    -0.265 N 
ATOM     14  C   UNL d   1      32.737  18.598 -23.361  0.00  0.00     0.201 A 
ATOM     15  C   UNL d   1      32.559  18.889 -24.782  0.00  0.00     0.103 C 
ATOM     16  N   UNL d   1      32.530  17.982 -22.857  0.00  0.00    -0.121 NA
ATOM     17  N   UNL d   1      32.129  17.421 -23.304  0.00  0.00    -0.126 NA
BRANCH  14  18
ATOM     18  S   UNL d   1      33.147  19.278 -23.145  0.00  0.00    -0.048 SA
BRANCH  18  19
ATOM     19  C   UNL d   1      33.240  19.478 -22.350  0.00  0.00     0.038 C 
ATOM     20  C   UNL d   1      33.241  20.270 -22.116  0.00  0.00     0.008 C 
ENDBRANCH  18  19
ENDBRANCH  14  18
ENDBRANCH  11  12
ENDBRANCH   1  11
TORSDOF 4
ENDMDL
MODEL 2
REMARK VINA RESULT:      -2.5      1.512      4.407
REMARK  4 active torsions:
REMARK  status: ('A' for Active; 'I' for Inactive)
REMARK    1  A    between atoms: C_9  and  N_1 
REMARK    2  A    between atoms: C_2  and  C_9 
REMARK    3  A    between atoms: S_13  and  C_5 
REMARK    4  A    between atoms: C_17  and  S_13 
ROOT
ATOM      1  N   UNL d   1      33.231  19.386 -23.386  0.00  0.00    -0.265 N 
ATOM      2  C   UNL d   1      33.237  19.911 -24.026  0.00  0.00     0.296 A 
ATOM      3  S   UNL d   1      33.241  20.674 -23.720  0.00  0.00    -0.025 SA
ATOM      4  C   UNL d   1      33.231  19.816 -22.691  0.00  0.00     0.074 A 
ATOM      5  C   UNL d   1      33.237  20.614 -22.888  0.00  0.00     0.050 A 
ATOM      6  O   UNL d   1      33.238  19.704 -24.821  0.00  0.00    -0.259 OA
ATOM      7  C   UNL d   1      33.227  19.591 -21.891  0.00  0.00     0.018 A 
ATOM      8  C   UNL d   1      33.239  21.190 -22.296  0.00  0.00     0.008 A 
ATOM      9  C   UNL d   1      33.229  20.163 -21.297  0.00  0.00     0.002 A 
ATOM     10  C   UNL d   1      33.235  20.966 -21.510  0.00  0.00     0.001 A 
ENDROOT
BRANCH   1  11
ATOM     11  C   UNL d   1      33.225  18.562 -23.436  0.00  0.00     0.123 C 
BRANCH  11  12
ATOM     12  C   UNL d   1      32.539  18.164 -23.625  0.00  0.00     0.189 A 
ATOM     13  N   UNL d   1      32.506  17.350 -23.556  0.00  0.00    -0.265 N 
ATOM     14  C   UNL d   1      31.754  17.105 -23.782  0.00  0.00     0.201 A 
ATOM     15  C   UNL d   1      33.111  16.848 -23.306  0.00  0.00     0.103 C 
ATOM     16  N   UNL d   1      31.321  17.772 -23.991  0.00  0.00    -0.121 NA
ATOM     17  N   UNL d   1      31.810  18.426 -23.893  0.00  0.00    -0.126 NA
BRANCH  14  18
ATOM     18  S   UNL d   1      31.479  16.330 -23.798  0.00  0.00    -0.048 SA
BRANCH  18  19
ATOM     19  C   UNL d   1      30.685  16.168 -23.954  0.00  0.00     0.038 C 
ATOM     20  C   UNL d   1      30.349  15.453 -23.715  0.00  0.00     0.008 C 
ENDBRANCH  18  19
ENDBRANCH  14  18
ENDBRANCH  11  12
ENDBRANCH   1  11
TORSDOF 4
ENDMDL
MODEL 3
REMARK VINA RESULT:      -2.2      1.515      3.851
REMARK  4 active torsions:
REMARK  status: ('A' for Active; 'I' for Inactive)
REMARK    1  A    between atoms: C_9  and  N_1 
REMARK    2  A    between atoms: C_2  and  C_9 
REMARK    3  A    between atoms: S_13  and  C_5 
REMARK    4  A    between atoms: C_17  and  S_13 
ROOT
ATOM      1  N   UNL d   1      32.158  16.519 -23.993  0.00  0.00    -0.265 N 
ATOM      2  C   UNL d   1      32.725  16.257 -23.450  0.00  0.00     0.296 A 
ATOM      3  S   UNL d   1      33.224  16.890 -23.286  0.00  0.00    -0.025 SA
ATOM      4  C   UNL d   1      32.301  17.306 -24.165  0.00  0.00     0.074 A 
ATOM      5  C   UNL d   1      32.959  17.543 -23.733  0.00  0.00     0.050 A 
ATOM      6  O   UNL d   1      32.778  15.500 -23.134  0.00  0.00    -0.259 OA
ATOM      7  C   UNL d   1      31.920  17.850 -24.663  0.00  0.00     0.018 A 
ATOM      8  C   UNL d   1      33.240  18.318 -23.792  0.00  0.00     0.008 A 
ATOM      9  C   UNL d   1      32.197  18.625 -24.725  0.00  0.00     0.002 A 
ATOM     10  C   UNL d   1      32.863  18.851 -24.283  0.00  0.00     0.001 A 
ENDROOT
BRANCH   1  11
ATOM     11  C   UNL d   1      31.546  16.067 -24.311  0.00  0.00     0.123 C 
BRANCH  11  12
ATOM     12  C   UNL d   1      30.837  15.994 -23.916  0.00  0.00     0.189 A 
ATOM     13  N   UNL d   1      30.177  15.711 -24.308  0.00  0.00    -0.265 N 
ATOM     14  C   UNL d   1      29.551  15.699 -23.774  0.00  0.00     0.201 A 
ATOM     15  C   UNL d   1      30.132  15.476 -25.096  0.00  0.00     0.103 C 
ATOM     16  N   UNL d   1      29.826  15.975 -23.051  0.00  0.00    -0.121 NA
ATOM     17  N   UNL d   1      30.622  16.157 -23.141  0.00  0.00    -0.126 NA
BRANCH  14  18
ATOM     18  S   UNL d   1      28.781  15.453 -23.934  0.00  0.00    -0.048 SA
BRANCH  18  19
ATOM     19  C   UNL d   1      28.169  15.622 -23.408  0.00  0.00     0.038 C 
ATOM     20  C   UNL d   1      27.385  15.635 -23.669  0.00  0.00     0.008 C 
ENDBRANCH  18  19
ENDBRANCH  14  18
ENDBRANCH  11  12
ENDBRANCH   1  11
TORSDOF 4
ENDMDL
MODEL 4
REMARK VINA RESULT:      -1.4      1.599      4.404
REMARK  4 active torsions:
REMARK  status: ('A' for Active; 'I' for Inactive)
REMARK    1  A    between atoms: C_9  and  N_1 
REMARK    2  A    between atoms: C_2  and  C_9 
REMARK    3  A    between atoms: S_13  and  C_5 
REMARK    4  A    between atoms: C_17  and  S_13 
ROOT
ATOM      1  N   UNL d   1      33.206  19.482 -23.090  0.00  0.00    -0.265 N 
ATOM      2  C   UNL d   1      33.195  19.539 -22.265  0.00  0.00     0.296 A 
ATOM      3  S   UNL d   1      33.199  20.338 -22.071  0.00  0.00    -0.025 SA
ATOM      4  C   UNL d   1      33.217  20.236 -23.408  0.00  0.00     0.074 A 
ATOM      5  C   UNL d   1      33.213  20.772 -22.784  0.00  0.00     0.050 A 
ATOM      6  O   UNL d   1      33.181  18.909 -21.737  0.00  0.00    -0.259 OA
ATOM      7  C   UNL d   1      33.231  20.517 -24.189  0.00  0.00     0.018 A 
ATOM      8  C   UNL d   1      33.223  21.585 -22.932  0.00  0.00     0.008 A 
ATOM      9  C   UNL d   1      33.241  21.328 -24.341  0.00  0.00     0.002 A 
ATOM     10  C   UNL d   1      33.237  21.858 -23.702  0.00  0.00     0.001 A 
ENDROOT
BRANCH   1  11
ATOM     11  C   UNL d   1      33.205  18.783 -23.528  0.00  0.00     0.123 C 
BRANCH  11  12
ATOM     12  C   UNL d   1      32.506  18.394 -23.686  0.00  0.00     0.189 A 
ATOM     13  N   UNL d   1      32.511  17.707 -24.129  0.00  0.00    -0.265 N 
ATOM     14  C   UNL d   1      31.735  17.443 -24.197  0.00  0.00     0.201 A 
ATOM     15  C   UNL d   1      33.169  17.333 -24.456  0.00  0.00     0.103 C 
ATOM     16  N   UNL d   1      31.250  17.970 -23.794  0.00  0.00    -0.121 NA
ATOM     17  N   UNL d   1      31.730  18.558 -23.479  0.00  0.00    -0.126 NA
BRANCH  14  18
ATOM     18  S   UNL d   1      31.484  16.769 -24.598  0.00  0.00    -0.048 SA
BRANCH  18  19
ATOM     19  C   UNL d   1      30.683  16.645 -24.752  0.00  0.00     0.038 C 
ATOM     20  C   UNL d   1      30.421  15.919 -25.044  0.00  0.00     0.008 C 
ENDBRANCH  18  19
ENDBRANCH  14  18
ENDBRANCH  11  12
ENDBRANCH   1  11
TORSDOF 4
ENDMDL
MODEL 5
REMARK VINA RESULT:      -0.7      2.307      5.183
REMARK  4 active torsions:
REMARK  status: ('A' for Active; 'I' for Inactive)
REMARK    1  A    between atoms: C_9  and  N_1 
REMARK    2  A    between atoms: C_2  and  C_9 
REMARK    3  A    between atoms: S_13  and  C_5 
REMARK    4  A    between atoms: C_17  and  S_13 
ROOT
ATOM      1  N   UNL d   1      32.984  21.041 -21.885  0.00  0.00    -0.265 N 
ATOM      2  C   UNL d   1      32.988  20.715 -21.125  0.00  0.00     0.296 A 
ATOM      3  S   UNL d   1      32.703  21.287 -20.607  0.00  0.00    -0.025 SA
ATOM      4  C   UNL d   1      32.700  21.808 -21.842  0.00  0.00     0.074 A 
ATOM      5  C   UNL d   1      32.524  21.968 -21.056  0.00  0.00     0.050 A 
ATOM      6  O   UNL d   1      33.232  19.956 -20.926  0.00  0.00    -0.259 OA
ATOM      7  C   UNL d   1      32.575  22.393 -22.418  0.00  0.00     0.018 A 
ATOM      8  C   UNL d   1      32.224  22.706 -20.837  0.00  0.00     0.008 A 
ATOM      9  C   UNL d   1      32.276  23.131 -22.204  0.00  0.00     0.002 A 
ATOM     10  C   UNL d   1      32.102  23.280 -21.405  0.00  0.00     0.001 A 
ENDROOT
BRANCH   1  11
ATOM     11  C   UNL d   1      33.225  20.662 -22.577  0.00  0.00     0.123 C 
BRANCH  11  12
ATOM     12  C   UNL d   1      32.923  19.930 -22.774  0.00  0.00     0.189 A 
ATOM     13  N   UNL d   1      32.940  19.677 -23.551  0.00  0.00    -0.265 N 
ATOM     14  C   UNL d   1      32.602  18.927 -23.581  0.00  0.00     0.201 A 
ATOM     15  C   UNL d   1      33.240  20.087 -24.200  0.00  0.00     0.103 C 
ATOM     16  N   UNL d   1      32.375  18.719 -22.820  0.00  0.00    -0.121 NA
ATOM     17  N   UNL d   1      32.575  19.342 -22.322  0.00  0.00    -0.126 NA
BRANCH  14  18
ATOM     18  S   UNL d   1      32.505  18.464 -24.255  0.00  0.00    -0.048 SA
BRANCH  18  19
ATOM     19  C   UNL d   1      32.164  17.715 -24.205  0.00  0.00     0.038 C 
ATOM     20  C   UNL d   1      31.934  17.314 -24.889  0.00  0.00     0.008 C 
ENDBRANCH  18  19
ENDBRANCH  14  18
ENDBRANCH  11  12
ENDBRANCH   1  11
TORSDOF 4
ENDMDL
MODEL 6
REMARK VINA RESULT:      -0.7      1.519      2.174
REMARK  4 active torsions:
REMARK  status: ('A' for Active; 'I' for Inactive)
REMARK    1  A    between atoms: C_9  and  N_1 
REMARK    2  A    between atoms: C_2  and  C_9 
REMARK    3  A    between atoms: S_13  and  C_5 
REMARK    4  A    between atoms: C_17  and  S_13 
ROOT
ATOM      1  N   UNL d   1      32.484  18.106 -23.593  0.00  0.00    -0.265 N 
ATOM      2  C   UNL d   1      32.651  17.486 -23.073  0.00  0.00     0.296 A 
ATOM      3  S   UNL d   1      32.129  16.873 -23.240  0.00  0.00    -0.025 SA
ATOM      4  C   UNL d   1      31.865  17.884 -24.080  0.00  0.00     0.074 A 
ATOM      5  C   UNL d   1      31.640  17.123 -23.868  0.00  0.00     0.050 A 
ATOM      6  O   UNL d   1      33.235  17.484 -22.494  0.00  0.00    -0.259 OA
ATOM      7  C   UNL d   1      31.468  18.274 -24.696  0.00  0.00     0.018 A 
ATOM      8  C   UNL d   1      31.021  16.745 -24.266  0.00  0.00     0.008 A 
ATOM      9  C   UNL d   1      30.850  17.901 -25.096  0.00  0.00     0.002 A 
ATOM     10  C   UNL d   1      30.632  17.131 -24.872  0.00  0.00     0.001 A 
ENDROOT
BRANCH   1  11
ATOM     11  C   UNL d   1      32.874  18.833 -23.622  0.00  0.00     0.123 C 
BRANCH  11  12
ATOM     12  C   UNL d   1      32.918  19.305 -22.959  0.00  0.00     0.189 A 
ATOM     13  N   UNL d   1      33.087  20.102 -23.034  0.00  0.00    -0.265 N 
ATOM     14  C   UNL d   1      33.095  20.432 -22.281  0.00  0.00     0.201 A 
ATOM     15  C   UNL d   1      33.226  20.515 -23.734  0.00  0.00     0.103 C 
ATOM     16  N   UNL d   1      32.930  19.837 -21.739  0.00  0.00    -0.121 NA
ATOM     17  N   UNL d   1      32.822  19.140 -22.162  0.00  0.00    -0.126 NA
BRANCH  14  18
ATOM     18  S   UNL d   1      33.241  21.222 -22.097  0.00  0.00    -0.048 SA
BRANCH  18  19
ATOM     19  C   UNL d   1      32.698  21.658 -21.656  0.00  0.00     0.038 C 
ATOM     20  C   UNL d   1      32.959  22.218 -21.108  0.00  0.00     0.008 C 
ENDBRANCH  18  19
ENDBRANCH  14  18
ENDBRANCH  11  12
ENDBRANCH   1  11
TORSDOF 4
ENDMDL
