MODEL 1
REMARK VINA RESULT:      -3.1      0.000      0.000
REMARK  4 active torsions:
REMARK  status: ('A' for Active; 'I' for Inactive)
REMARK    1  A    between atoms: C_2  and  S_1 
REMARK    2  A    between atoms: N_3  and  S_1 
REMARK    3  A    between atoms: C_12  and  N_3 
REMARK    4  A    between atoms: N_4  and  C_8 
ROOT
ATOM      1  S   UNL d   1      33.055  19.768 -22.488  0.00  0.00     0.285 S 
ATOM      2  O   UNL d   1      32.911  19.367 -21.745  0.00  0.00    -0.198 OA
ATOM      3  O   UNL d   1      33.194  20.145 -23.195  0.00  0.00    -0.198 OA
ENDROOT
BRANCH   1   4
ATOM      4  C   UNL d   1      32.875  20.458 -22.121  0.00  0.00     0.105 A 
ATOM      5  C   UNL d   1      33.013  21.193 -22.463  0.00  0.00     0.013 A 
ATOM      6  C   UNL d   1      32.824  21.903 -22.077  0.00  0.00     0.001 A 
ATOM      7  C   UNL d   1      32.973  22.623 -22.441  0.00  0.00     0.000 A 
ATOM      8  C   UNL d   1      32.487  21.873 -21.331  0.00  0.00     0.000 A 
ATOM      9  C   UNL d   1      32.784  23.330 -22.056  0.00  0.00     0.000 A 
ATOM     10  C   UNL d   1      32.434  23.297 -21.281  0.00  0.00     0.000 A 
ATOM     11  C   UNL d   1      32.294  22.569 -20.936  0.00  0.00     0.000 A 
ATOM     12  C   UNL d   1      32.340  21.133 -20.970  0.00  0.00     0.001 A 
ATOM     13  C   UNL d   1      32.521  20.423 -21.338  0.00  0.00     0.013 A 
ENDBRANCH   1   4
BRANCH   1  14
ATOM     14  N   UNL d   1      33.241  19.024 -22.849  0.00  0.00    -0.158 NA
BRANCH  14  15
ATOM     15  C   UNL d   1      32.667  18.583 -23.211  0.00  0.00     0.094 A 
ATOM     16  C   UNL d   1      32.287  17.964 -22.833  0.00  0.00     0.021 A 
ATOM     17  C   UNL d   1      31.700  17.504 -23.187  0.00  0.00     0.019 A 
ATOM     18  C   UNL d   1      31.482  17.685 -23.986  0.00  0.00     0.064 A 
ATOM     19  C   UNL d   1      31.856  18.302 -24.377  0.00  0.00     0.019 A 
ATOM     20  C   UNL d   1      32.454  18.770 -24.013  0.00  0.00     0.021 A 
BRANCH  18  21
ATOM     21  N   UNL d   1      30.895  17.233 -24.357  0.00  0.00    -0.300 N 
ATOM     22  C   UNL d   1      30.217  17.570 -24.699  0.00  0.00     0.107 A 
ATOM     23  C   UNL d   1      29.647  17.115 -25.060  0.00  0.00     0.142 A 
ATOM     24  O   UNL d   1      29.731  16.299 -25.096  0.00  0.00    -0.300 OA
ATOM     25  C   UNL d   1      30.394  15.934 -24.765  0.00  0.00     0.142 A 
ATOM     26  C   UNL d   1      30.984  16.398 -24.391  0.00  0.00     0.107 A 
ENDBRANCH  18  21
ENDBRANCH  14  15
ENDBRANCH   1  14
TORSDOF 4
ENDMDL
MODEL 2
REMARK VINA RESULT:      -3.1      1.494      5.290
REMARK  4 active torsions:
REMARK  status: ('A' for Active; 'I' for Inactive)
REMARK    1  A    between atoms: C_2  and  S_1 
REMARK    2  A    between atoms: N_3  and  S_1 
REMARK    3  A    between atoms: C_12  and  N_3 
REMARK    4  A    between atoms: N_4  and  C_8 
ROOT
ATOM      1  S   UNL d   1      32.511  17.526 -24.019  0.00  0.00     0.285 S 
ATOM      2  O   UNL d   1      32.344  17.835 -24.800  0.00  0.00    -0.198 OA
ATOM      3  O   UNL d   1      32.673  17.235 -23.277  0.00  0.00    -0.198 OA
ENDROOT
BRANCH   1   4
ATOM      4  C   UNL d   1      31.832  17.102 -24.070  0.00  0.00     0.105 A 
ATOM      5  C   UNL d   1      31.149  17.397 -24.420  0.00  0.00     0.013 A 
ATOM      6  C   UNL d   1      30.449  16.952 -24.469  0.00  0.00     0.001 A 
ATOM      7  C   UNL d   1      29.782  17.272 -24.824  0.00  0.00     0.000 A 
ATOM      8  C   UNL d   1      30.437  16.194 -24.160  0.00  0.00     0.000 A 
ATOM      9  C   UNL d   1      29.086  16.828 -24.873  0.00  0.00     0.000 A 
ATOM     10  C   UNL d   1      29.075  16.040 -24.551  0.00  0.00     0.000 A 
ATOM     11  C   UNL d   1      29.751  15.742 -24.202  0.00  0.00     0.000 A 
ATOM     12  C   UNL d   1      31.124  15.880 -23.801  0.00  0.00     0.001 A 
ATOM     13  C   UNL d   1      31.823  16.306 -23.744  0.00  0.00     0.013 A 
ENDBRANCH   1   4
BRANCH   1  14
ATOM     14  N   UNL d   1      33.222  17.985 -23.993  0.00  0.00    -0.158 NA
BRANCH  14  15
ATOM     15  C   UNL d   1      33.216  18.747 -23.719  0.00  0.00     0.094 A 
ATOM     16  C   UNL d   1      33.189  18.924 -22.919  0.00  0.00     0.021 A 
ATOM     17  C   UNL d   1      33.182  19.694 -22.621  0.00  0.00     0.019 A 
ATOM     18  C   UNL d   1      33.204  20.333 -23.177  0.00  0.00     0.064 A 
ATOM     19  C   UNL d   1      33.232  20.171 -23.981  0.00  0.00     0.019 A 
ATOM     20  C   UNL d   1      33.239  19.384 -24.281  0.00  0.00     0.021 A 
BRANCH  18  21
ATOM     21  N   UNL d   1      33.198  21.113 -22.896  0.00  0.00    -0.300 N 
ATOM     22  C   UNL d   1      33.241  21.773 -23.399  0.00  0.00     0.107 A 
ATOM     23  C   UNL d   1      33.234  22.534 -23.109  0.00  0.00     0.142 A 
ATOM     24  O   UNL d   1      33.183  22.669 -22.300  0.00  0.00    -0.300 OA
ATOM     25  C   UNL d   1      33.140  22.033 -21.776  0.00  0.00     0.142 A 
ATOM     26  C   UNL d   1      33.147  21.247 -22.068  0.00  0.00     0.107 A 
ENDBRANCH  18  21
ENDBRANCH  14  15
ENDBRANCH   1  14
TORSDOF 4
ENDMDL
