MODEL 1
REMARK VINA RESULT:     -10.9      0.000      0.000
REMARK  5 active torsions:
REMARK  status: ('A' for Active; 'I' for Inactive)
REMARK    1  A    between atoms: N_2  and  S_1 
REMARK    2  A    between atoms: C_4  and  S_1 
REMARK    3  A    between atoms: C_5  and  C_9 
REMARK       I    between atoms: N_8  and  C_5 
REMARK    4  A    between atoms: C_17  and  N_8 
REMARK    5  A    between atoms: C_18  and  C_17 
ROOT
ATOM      1  C   UNL d   1      51.394  33.624  52.852  0.00  0.00     0.104 A 
ATOM      2  C   UNL d   1      50.069  34.393  52.404  0.00  0.00     0.058 A 
ATOM      3  C   UNL d   1      50.730  33.562  53.297  0.00  0.00     0.013 A 
ATOM      4  C   UNL d   1      51.402  34.076  52.173  0.00  0.00     0.013 A 
ATOM      5  C   UNL d   1      50.066  33.947  53.072  0.00  0.00     0.005 A 
ATOM      6  C   UNL d   1      50.726  34.458  51.959  0.00  0.00     0.005 A 
ENDROOT
BRANCH   1   7
ATOM      7  S   UNL d   1      52.066  33.240  53.070  0.00  0.00     0.271 S 
ATOM      8  O   UNL d   1      52.502  33.710  52.603  0.00  0.00    -0.200 OA
ATOM      9  O   UNL d   1      51.488  32.719  53.604  0.00  0.00    -0.200 OA
BRANCH   7  10
ATOM     10  N   UNL d   1      52.746  32.770  53.360  0.00  0.00    -0.231 N 
ATOM     11  C   UNL d   1      53.280  33.123  53.961  0.00  0.00     0.075 A 
ATOM     12  C   UNL d   1      53.961  32.658  54.253  0.00  0.00     0.017 A 
ATOM     13  C   UNL d   1      53.150  33.918  54.271  0.00  0.00     0.018 A 
ATOM     14  C   UNL d   1      54.503  32.991  54.851  0.00  0.00     0.002 A 
ATOM     15  C   UNL d   1      54.109  31.844  53.948  0.00  0.00     0.003 A 
ATOM     16  C   UNL d   1      54.363  33.791  55.156  0.00  0.00     0.000 A 
ATOM     17  C   UNL d   1      53.682  34.261  54.865  0.00  0.00     0.002 A 
ATOM     18  C   UNL d   1      53.571  31.504  53.350  0.00  0.00     0.020 A 
ATOM     19  C   UNL d   1      52.886  31.971  53.055  0.00  0.00     0.092 A 
ENDBRANCH   7  10
ENDBRANCH   1   7
BRANCH   2  20
ATOM     20  C   UNL d   1      49.398  34.781  52.179  0.00  0.00     0.279 C 
ATOM     21  N   UNL d   1      48.972  35.198  52.724  0.00  0.00    -0.206 NA
ATOM     22  O   UNL d   1      49.149  34.758  51.421  0.00  0.00    -0.265 OA
BRANCH  21  23
ATOM     23  C   UNL d   1      48.306  35.584  52.505  0.00  0.00     0.102 C 
BRANCH  23  24
ATOM     24  C   UNL d   1      47.831  35.955  53.067  0.00  0.00     0.019 A 
ATOM     25  C   UNL d   1      47.014  35.938  52.977  0.00  0.00     0.002 A 
ATOM     26  C   UNL d   1      46.533  36.307  53.535  0.00  0.00     0.000 A 
ATOM     27  C   UNL d   1      46.875  36.698  54.191  0.00  0.00     0.000 A 
ATOM     28  C   UNL d   1      47.696  36.709  54.270  0.00  0.00     0.000 A 
ATOM     29  C   UNL d   1      48.177  36.337  53.707  0.00  0.00     0.002 A 
ENDBRANCH  23  24
ENDBRANCH  21  23
ENDBRANCH   2  20
TORSDOF 5
ENDMDL
MODEL 2
REMARK VINA RESULT:      -9.4      0.987      5.655
REMARK  5 active torsions:
REMARK  status: ('A' for Active; 'I' for Inactive)
REMARK    1  A    between atoms: N_2  and  S_1 
REMARK    2  A    between atoms: C_4  and  S_1 
REMARK    3  A    between atoms: C_5  and  C_9 
REMARK       I    between atoms: N_8  and  C_5 
REMARK    4  A    between atoms: C_17  and  N_8 
REMARK    5  A    between atoms: C_18  and  C_17 
ROOT
ATOM      1  C   UNL d   1      50.364  34.196  52.539  0.00  0.00     0.104 A 
ATOM      2  C   UNL d   1      51.688  33.366  52.862  0.00  0.00     0.058 A 
ATOM      3  C   UNL d   1      50.332  33.586  53.058  0.00  0.00     0.013 A 
ATOM      4  C   UNL d   1      51.065  34.399  52.174  0.00  0.00     0.013 A 
ATOM      5  C   UNL d   1      50.996  33.169  53.220  0.00  0.00     0.005 A 
ATOM      6  C   UNL d   1      51.725  33.970  52.347  0.00  0.00     0.005 A 
ENDROOT
BRANCH   1   7
ATOM      7  S   UNL d   1      49.703  34.621  52.370  0.00  0.00     0.271 S 
ATOM      8  O   UNL d   1      50.065  35.295  52.577  0.00  0.00    -0.200 OA
ATOM      9  O   UNL d   1      49.333  33.784  52.140  0.00  0.00    -0.200 OA
BRANCH   7  10
ATOM     10  N   UNL d   1      48.943  35.005  52.162  0.00  0.00    -0.231 N 
ATOM     11  C   UNL d   1      48.532  35.487  52.770  0.00  0.00     0.075 A 
ATOM     12  C   UNL d   1      47.773  35.872  52.568  0.00  0.00     0.017 A 
ATOM     13  C   UNL d   1      48.858  35.590  53.563  0.00  0.00     0.018 A 
ATOM     14  C   UNL d   1      47.349  36.356  53.159  0.00  0.00     0.002 A 
ATOM     15  C   UNL d   1      47.425  35.779  51.764  0.00  0.00     0.003 A 
ATOM     16  C   UNL d   1      47.685  36.452  53.952  0.00  0.00     0.000 A 
ATOM     17  C   UNL d   1      48.446  36.068  54.160  0.00  0.00     0.002 A 
ATOM     18  C   UNL d   1      47.843  35.297  51.168  0.00  0.00     0.020 A 
ATOM     19  C   UNL d   1      48.607  34.908  51.369  0.00  0.00     0.092 A 
ENDBRANCH   7  10
ENDBRANCH   1   7
BRANCH   2  20
ATOM     20  C   UNL d   1      52.357  32.944  53.028  0.00  0.00     0.279 C 
ATOM     21  N   UNL d   1      52.854  33.191  53.613  0.00  0.00    -0.206 NA
ATOM     22  O   UNL d   1      52.531  32.282  52.618  0.00  0.00    -0.265 OA
BRANCH  21  23
ATOM     23  C   UNL d   1      53.517  32.776  53.779  0.00  0.00     0.102 C 
BRANCH  23  24
ATOM     24  C   UNL d   1      54.078  33.072  54.307  0.00  0.00     0.019 A 
ATOM     25  C   UNL d   1      53.931  33.031  55.114  0.00  0.00     0.002 A 
ATOM     26  C   UNL d   1      54.486  33.325  55.647  0.00  0.00     0.000 A 
ATOM     27  C   UNL d   1      55.198  33.663  55.367  0.00  0.00     0.000 A 
ATOM     28  C   UNL d   1      55.335  33.698  54.554  0.00  0.00     0.000 A 
ATOM     29  C   UNL d   1      54.774  33.402  54.021  0.00  0.00     0.002 A 
ENDBRANCH  23  24
ENDBRANCH  21  23
ENDBRANCH   2  20
TORSDOF 5
ENDMDL
