MODEL 1
REMARK VINA RESULT:      -9.7      0.000      0.000
REMARK  5 active torsions:
REMARK  status: ('A' for Active; 'I' for Inactive)
REMARK    1  A    between atoms: C_11  and  N_1 
REMARK    2  A    between atoms: C_5  and  C_3 
REMARK       I    between atoms: N_14  and  C_5 
REMARK    3  A    between atoms: N_7  and  C_18 
REMARK    4  A    between atoms: C_17  and  N_14 
REMARK    5  A    between atoms: C_18  and  C_17 
ROOT
ATOM      1  C   UNL d   1      51.487  33.949  52.583  0.00  0.00     0.281 C 
ATOM      2  O   UNL d   1      51.593  34.249  51.824  0.00  0.00    -0.265 OA
ATOM      3  N   UNL d   1      50.781  34.085  52.978  0.00  0.00    -0.205 NA
ENDROOT
BRANCH   1   4
ATOM      4  C   UNL d   1      52.092  33.510  52.945  0.00  0.00     0.080 A 
ATOM      5  C   UNL d   1      52.668  33.809  53.453  0.00  0.00     0.088 A 
ATOM      6  N   UNL d   1      53.152  33.179  53.678  0.00  0.00    -0.273 N 
ATOM      7  C   UNL d   1      52.877  32.498  53.313  0.00  0.00     0.265 A 
ATOM      8  C   UNL d   1      52.218  32.701  52.856  0.00  0.00     0.067 A 
ATOM      9  O   UNL d   1      53.232  31.755  53.414  0.00  0.00    -0.267 OA
BRANCH   6  10
ATOM     10  C   UNL d   1      53.802  33.226  54.185  0.00  0.00     0.067 A 
ATOM     11  C   UNL d   1      53.769  33.203  55.011  0.00  0.00     0.018 A 
ATOM     12  C   UNL d   1      54.541  33.267  55.294  0.00  0.00     0.002 A 
ATOM     13  C   UNL d   1      55.042  33.329  54.641  0.00  0.00     0.002 A 
ATOM     14  C   UNL d   1      54.593  33.304  53.960  0.00  0.00     0.018 A 
ENDBRANCH   6  10
ENDBRANCH   1   4
BRANCH   3  15
ATOM     15  C   UNL d   1      50.184  34.518  52.619  0.00  0.00     0.121 C 
BRANCH  15  16
ATOM     16  C   UNL d   1      49.617  34.903  53.071  0.00  0.00     0.101 C 
BRANCH  16  17
ATOM     17  N   UNL d   1      48.920  35.168  52.706  0.00  0.00    -0.301 N 
ATOM     18  C   UNL d   1      48.417  35.679  53.111  0.00  0.00     0.080 A 
ATOM     19  C   UNL d   1      47.725  35.940  52.743  0.00  0.00     0.018 A 
ATOM     20  C   UNL d   1      47.218  36.447  53.136  0.00  0.00     0.002 A 
ATOM     21  C   UNL d   1      47.539  35.692  51.981  0.00  0.00     0.003 A 
ATOM     22  C   UNL d   1      46.532  36.709  52.778  0.00  0.00     0.000 A 
ATOM     23  C   UNL d   1      46.342  36.462  52.011  0.00  0.00     0.000 A 
ATOM     24  C   UNL d   1      46.848  35.951  51.610  0.00  0.00     0.000 A 
ATOM     25  C   UNL d   1      48.049  35.179  51.582  0.00  0.00     0.019 A 
ATOM     26  C   UNL d   1      48.745  34.914  51.945  0.00  0.00     0.080 A 
ENDBRANCH  16  17
ENDBRANCH  15  16
ENDBRANCH   3  15
TORSDOF 5
ENDMDL
MODEL 2
REMARK VINA RESULT:      -9.3      1.046      6.111
REMARK  5 active torsions:
REMARK  status: ('A' for Active; 'I' for Inactive)
REMARK    1  A    between atoms: C_11  and  N_1 
REMARK    2  A    between atoms: C_5  and  C_3 
REMARK       I    between atoms: N_14  and  C_5 
REMARK    3  A    between atoms: N_7  and  C_18 
REMARK    4  A    between atoms: C_17  and  N_14 
REMARK    5  A    between atoms: C_18  and  C_17 
ROOT
ATOM      1  C   UNL d   1      50.171  34.390  51.956  0.00  0.00     0.281 C 
ATOM      2  O   UNL d   1      50.697  34.442  51.326  0.00  0.00    -0.265 OA
ATOM      3  N   UNL d   1      50.415  34.049  52.661  0.00  0.00    -0.205 NA
ENDROOT
BRANCH   1   4
ATOM      4  C   UNL d   1      49.398  34.682  51.877  0.00  0.00     0.080 A 
ATOM      5  C   UNL d   1      49.023  35.205  52.391  0.00  0.00     0.088 A 
ATOM      6  N   UNL d   1      48.264  35.342  52.096  0.00  0.00    -0.273 N 
ATOM      7  C   UNL d   1      48.171  34.908  51.407  0.00  0.00     0.265 A 
ATOM      8  C   UNL d   1      48.874  34.496  51.268  0.00  0.00     0.067 A 
ATOM      9  O   UNL d   1      47.473  34.913  50.960  0.00  0.00    -0.267 OA
BRANCH   6  10
ATOM     10  C   UNL d   1      47.695  35.833  52.438  0.00  0.00     0.067 A 
ATOM     11  C   UNL d   1      47.553  35.912  53.248  0.00  0.00     0.018 A 
ATOM     12  C   UNL d   1      46.941  36.457  53.344  0.00  0.00     0.002 A 
ATOM     13  C   UNL d   1      46.711  36.709  52.593  0.00  0.00     0.002 A 
ATOM     14  C   UNL d   1      47.170  36.329  52.035  0.00  0.00     0.018 A 
ENDBRANCH   6  10
ENDBRANCH   1   4
BRANCH   3  15
ATOM     15  C   UNL d   1      51.178  33.761  52.739  0.00  0.00     0.121 C 
BRANCH  15  16
ATOM     16  C   UNL d   1      51.389  33.301  53.385  0.00  0.00     0.101 C 
BRANCH  16  17
ATOM     17  N   UNL d   1      52.193  33.184  53.555  0.00  0.00    -0.301 N 
ATOM     18  C   UNL d   1      52.556  33.638  54.137  0.00  0.00     0.080 A 
ATOM     19  C   UNL d   1      53.358  33.517  54.301  0.00  0.00     0.018 A 
ATOM     20  C   UNL d   1      53.729  33.962  54.878  0.00  0.00     0.002 A 
ATOM     21  C   UNL d   1      53.788  32.950  53.888  0.00  0.00     0.003 A 
ATOM     22  C   UNL d   1      54.521  33.848  55.046  0.00  0.00     0.000 A 
ATOM     23  C   UNL d   1      54.956  33.279  54.632  0.00  0.00     0.000 A 
ATOM     24  C   UNL d   1      54.587  32.827  54.050  0.00  0.00     0.000 A 
ATOM     25  C   UNL d   1      53.414  32.499  53.305  0.00  0.00     0.019 A 
ATOM     26  C   UNL d   1      52.611  32.615  53.135  0.00  0.00     0.080 A 
ENDBRANCH  16  17
ENDBRANCH  15  16
ENDBRANCH   3  15
TORSDOF 5
ENDMDL
MODEL 3
REMARK VINA RESULT:      -8.6      1.420      6.420
REMARK  5 active torsions:
REMARK  status: ('A' for Active; 'I' for Inactive)
REMARK    1  A    between atoms: C_11  and  N_1 
REMARK    2  A    between atoms: C_5  and  C_3 
REMARK       I    between atoms: N_14  and  C_5 
REMARK    3  A    between atoms: N_7  and  C_18 
REMARK    4  A    between atoms: C_17  and  N_14 
REMARK    5  A    between atoms: C_18  and  C_17 
ROOT
ATOM      1  C   UNL d   1      49.319  35.095  52.753  0.00  0.00     0.281 C 
ATOM      2  O   UNL d   1      49.504  35.520  53.433  0.00  0.00    -0.265 OA
ATOM      3  N   UNL d   1      49.865  34.568  52.443  0.00  0.00    -0.205 NA
ENDROOT
BRANCH   1   4
ATOM      4  C   UNL d   1      48.583  35.202  52.384  0.00  0.00     0.080 A 
ATOM      5  C   UNL d   1      47.923  35.567  52.717  0.00  0.00     0.088 A 
ATOM      6  N   UNL d   1      47.319  35.550  52.155  0.00  0.00    -0.273 N 
ATOM      7  C   UNL d   1      47.602  35.179  51.480  0.00  0.00     0.265 A 
ATOM      8  C   UNL d   1      48.388  34.962  51.620  0.00  0.00     0.067 A 
ATOM      9  O   UNL d   1      47.143  35.064  50.800  0.00  0.00    -0.267 OA
BRANCH   6  10
ATOM     10  C   UNL d   1      46.558  35.855  52.254  0.00  0.00     0.067 A 
ATOM     11  C   UNL d   1      46.347  36.651  52.180  0.00  0.00     0.018 A 
ATOM     12  C   UNL d   1      45.537  36.709  52.324  0.00  0.00     0.002 A 
ATOM     13  C   UNL d   1      45.257  35.950  52.485  0.00  0.00     0.002 A 
ATOM     14  C   UNL d   1      45.879  35.424  52.443  0.00  0.00     0.018 A 
ENDBRANCH   6  10
ENDBRANCH   1   4
BRANCH   3  15
ATOM     15  C   UNL d   1      50.591  34.462  52.809  0.00  0.00     0.121 C 
BRANCH  15  16
ATOM     16  C   UNL d   1      51.226  34.145  52.395  0.00  0.00     0.101 C 
BRANCH  16  17
ATOM     17  N   UNL d   1      51.910  33.925  52.811  0.00  0.00    -0.301 N 
ATOM     18  C   UNL d   1      52.133  33.133  52.838  0.00  0.00     0.080 A 
ATOM     19  C   UNL d   1      52.816  32.921  53.253  0.00  0.00     0.018 A 
ATOM     20  C   UNL d   1      53.047  32.137  53.286  0.00  0.00     0.002 A 
ATOM     21  C   UNL d   1      53.268  33.492  53.635  0.00  0.00     0.003 A 
ATOM     22  C   UNL d   1      53.721  31.919  53.695  0.00  0.00     0.000 A 
ATOM     23  C   UNL d   1      54.177  32.492  54.080  0.00  0.00     0.000 A 
ATOM     24  C   UNL d   1      53.949  33.283  54.050  0.00  0.00     0.000 A 
ATOM     25  C   UNL d   1      53.036  34.285  53.602  0.00  0.00     0.019 A 
ATOM     26  C   UNL d   1      52.353  34.505  53.188  0.00  0.00     0.080 A 
ENDBRANCH  16  17
ENDBRANCH  15  16
ENDBRANCH   3  15
TORSDOF 5
ENDMDL
