MODEL 1
REMARK VINA RESULT:      70.4      0.000      0.000
REMARK  4 active torsions:
REMARK  status: ('A' for Active; 'I' for Inactive)
REMARK    1  A    between atoms: C_2  and  C_1 
REMARK    2  A    between atoms: N_12  and  C_6 
REMARK    3  A    between atoms: C_16  and  N_12 
REMARK    4  A    between atoms: O_25  and  C_17 
ROOT
ATOM      1  C   UNL d   1      59.485  49.191  50.724  0.00  0.00     0.082 A 
ATOM      2  C   UNL d   1      59.344  49.284  51.530  0.00  0.00     0.302 A 
ATOM      3  C   UNL d   1      58.859  49.245  50.188  0.00  0.00     0.009 A 
ATOM      4  O   UNL d   1      58.576  49.431  51.808  0.00  0.00    -0.273 OA
ATOM      5  C   UNL d   1      58.090  49.392  50.457  0.00  0.00     0.025 A 
ATOM      6  C   UNL d   1      57.955  49.485  51.273  0.00  0.00     0.103 A 
ATOM      7  O   UNL d   1      59.972  49.230  52.075  0.00  0.00    -0.259 OA
ATOM      8  C   UNL d   1      57.468  49.445  49.917  0.00  0.00     0.026 A 
ATOM      9  C   UNL d   1      57.186  49.631  51.535  0.00  0.00     0.027 A 
ATOM     10  C   UNL d   1      56.706  49.591  50.193  0.00  0.00     0.094 A 
ATOM     11  C   UNL d   1      56.563  49.685  51.007  0.00  0.00     0.026 A 
ENDROOT
BRANCH   1  12
ATOM     12  C   UNL d   1      60.255  49.044  50.455  0.00  0.00     0.095 A 
ATOM     13  N   UNL d   1      60.707  48.374  50.618  0.00  0.00    -0.221 NA
ATOM     14  C   UNL d   1      61.434  48.465  50.238  0.00  0.00     0.194 A 
ATOM     15  S   UNL d   1      61.434  49.192  49.839  0.00  0.00    -0.046 SA
ATOM     16  C   UNL d   1      60.698  49.553  49.975  0.00  0.00     0.058 A 
BRANCH  14  17
ATOM     17  N   UNL d   1      62.059  47.921  50.253  0.00  0.00    -0.221 NA
BRANCH  17  18
ATOM     18  C   UNL d   1      61.972  47.181  49.898  0.00  0.00     0.084 A 
ATOM     19  C   UNL d   1      62.483  46.962  49.292  0.00  0.00     0.020 A 
ATOM     20  C   UNL d   1      62.393  46.215  48.937  0.00  0.00     0.013 A 
ATOM     21  C   UNL d   1      61.796  45.702  49.193  0.00  0.00     0.058 A 
ATOM     22  C   UNL d   1      61.293  45.940  49.802  0.00  0.00     0.013 A 
ATOM     23 CL   UNL d   1      61.704  44.964  48.845  0.00  0.00    -0.082 Cl
ATOM     24  C   UNL d   1      61.378  46.675  50.156  0.00  0.00     0.020 A 
ENDBRANCH  17  18
ENDBRANCH  14  17
ENDBRANCH   1  12
BRANCH  10  25
ATOM     25  O   UNL d   1      56.080  49.645  49.657  0.00  0.00    -0.328 OA
ATOM     26  C   UNL d   1      56.200  49.491  48.857  0.00  0.00     0.181 C 
ENDBRANCH  10  25
TORSDOF 4
ENDMDL
