MODEL 1
REMARK VINA RESULT:      -8.1      0.000      0.000
REMARK  3 active torsions:
REMARK  status: ('A' for Active; 'I' for Inactive)
REMARK       I    between atoms: N_2  and  C_1 
REMARK    1  A    between atoms: O_3  and  C_1 
REMARK    2  A    between atoms: C_9  and  O_3 
REMARK    3  A    between atoms: C_5  and  C_6 
ROOT
ATOM      1  C   UNL d   1      53.738  33.484  54.105  0.00  0.00    -0.023 A 
ATOM      2  C   UNL d   1      53.572  34.280  53.965  0.00  0.00    -0.002 A 
ATOM      3  C   UNL d   1      53.149  32.916  54.000  0.00  0.00    -0.002 A 
ATOM      4  C   UNL d   1      52.238  33.937  53.619  0.00  0.00     0.105 A 
ATOM      5  C   UNL d   1      52.396  33.144  53.757  0.00  0.00     0.025 A 
ATOM      6  C   UNL d   1      52.820  34.507  53.722  0.00  0.00     0.025 A 
ENDROOT
BRANCH   4   7
ATOM      7  O   UNL d   1      51.483  34.165  53.375  0.00  0.00    -0.259 OA
BRANCH   7   8
ATOM      8  C   UNL d   1      51.240  34.069  52.596  0.00  0.00     0.377 C 
ATOM      9  N   UNL d   1      50.486  34.305  52.349  0.00  0.00    -0.252 N 
ATOM     10  C   UNL d   1      49.971  34.646  52.904  0.00  0.00     0.085 A 
ATOM     11  C   UNL d   1      50.256  34.204  51.572  0.00  0.00     0.085 A 
ATOM     12  C   UNL d   1      49.221  34.883  52.666  0.00  0.00     0.019 A 
ATOM     13  C   UNL d   1      48.979  34.785  51.881  0.00  0.00     0.003 A 
ATOM     14  C   UNL d   1      49.502  34.442  51.329  0.00  0.00     0.019 A 
ATOM     15  O   UNL d   1      51.778  33.720  52.046  0.00  0.00    -0.237 OA
ENDBRANCH   7   8
ENDBRANCH   4   7
BRANCH   1  16
ATOM     16  C   UNL d   1      54.494  33.255  54.350  0.00  0.00     0.019 C 
ATOM     17  C   UNL d   1      54.711  33.329  55.146  0.00  0.00     0.004 C 
ATOM     18  C   UNL d   1      55.033  32.954  53.802  0.00  0.00     0.004 C 
ATOM     19  C   UNL d   1      54.119  33.524  55.040  0.00  0.00     0.004 C 
ENDBRANCH   1  16
TORSDOF 3
ENDMDL
MODEL 2
REMARK VINA RESULT:      -8.1      2.388      3.638
REMARK  3 active torsions:
REMARK  status: ('A' for Active; 'I' for Inactive)
REMARK       I    between atoms: N_2  and  C_1 
REMARK    1  A    between atoms: O_3  and  C_1 
REMARK    2  A    between atoms: C_9  and  O_3 
REMARK    3  A    between atoms: C_5  and  C_6 
ROOT
ATOM      1  C   UNL d   1      53.132  30.448  53.345  0.00  0.00    -0.023 A 
ATOM      2  C   UNL d   1      53.888  30.753  53.467  0.00  0.00    -0.002 A 
ATOM      3  C   UNL d   1      52.491  30.960  53.258  0.00  0.00    -0.002 A 
ATOM      4  C   UNL d   1      53.361  32.071  53.416  0.00  0.00     0.105 A 
ATOM      5  C   UNL d   1      52.606  31.774  53.294  0.00  0.00     0.025 A 
ATOM      6  C   UNL d   1      54.003  31.567  53.502  0.00  0.00     0.025 A 
ENDROOT
BRANCH   4   7
ATOM      7  O   UNL d   1      53.476  32.888  53.451  0.00  0.00    -0.259 OA
BRANCH   7   8
ATOM      8  C   UNL d   1      53.521  33.281  54.171  0.00  0.00     0.377 C 
ATOM      9  N   UNL d   1      53.314  34.079  54.238  0.00  0.00    -0.252 N 
ATOM     10  C   UNL d   1      53.058  34.485  53.560  0.00  0.00     0.085 A 
ATOM     11  C   UNL d   1      53.363  34.459  54.959  0.00  0.00     0.085 A 
ATOM     12  C   UNL d   1      52.851  35.278  53.619  0.00  0.00     0.019 A 
ATOM     13  C   UNL d   1      52.897  35.671  54.345  0.00  0.00     0.003 A 
ATOM     14  C   UNL d   1      53.155  35.257  55.022  0.00  0.00     0.019 A 
ATOM     15  O   UNL d   1      53.784  32.851  54.849  0.00  0.00    -0.237 OA
ENDBRANCH   7   8
ENDBRANCH   4   7
BRANCH   1  16
ATOM     16  C   UNL d   1      53.016  29.630  53.309  0.00  0.00     0.019 C 
ATOM     17  C   UNL d   1      53.128  29.167  53.986  0.00  0.00     0.004 C 
ATOM     18  C   UNL d   1      52.789  29.275  52.599  0.00  0.00     0.004 C 
ATOM     19  C   UNL d   1      53.236  29.779  54.095  0.00  0.00     0.004 C 
ENDBRANCH   1  16
TORSDOF 3
ENDMDL
MODEL 3
REMARK VINA RESULT:      -8.0      1.113      4.421
REMARK  3 active torsions:
REMARK  status: ('A' for Active; 'I' for Inactive)
REMARK       I    between atoms: N_2  and  C_1 
REMARK    1  A    between atoms: O_3  and  C_1 
REMARK    2  A    between atoms: C_9  and  O_3 
REMARK    3  A    between atoms: C_5  and  C_6 
ROOT
ATOM      1  C   UNL d   1      50.264  34.276  52.325  0.00  0.00    -0.023 A 
ATOM      2  C   UNL d   1      50.985  34.443  51.961  0.00  0.00    -0.002 A 
ATOM      3  C   UNL d   1      50.248  33.845  53.028  0.00  0.00    -0.002 A 
ATOM      4  C   UNL d   1      51.665  33.752  53.000  0.00  0.00     0.105 A 
ATOM      5  C   UNL d   1      50.950  33.582  53.366  0.00  0.00     0.025 A 
ATOM      6  C   UNL d   1      51.688  34.181  52.300  0.00  0.00     0.025 A 
ENDROOT
BRANCH   4   7
ATOM      7  O   UNL d   1      52.370  33.489  53.340  0.00  0.00    -0.259 OA
BRANCH   7   8
ATOM      8  C   UNL d   1      52.826  33.983  53.812  0.00  0.00     0.377 C 
ATOM      9  N   UNL d   1      53.437  33.683  54.282  0.00  0.00    -0.252 N 
ATOM     10  C   UNL d   1      53.587  32.866  54.272  0.00  0.00     0.085 A 
ATOM     11  C   UNL d   1      53.884  34.184  54.748  0.00  0.00     0.085 A 
ATOM     12  C   UNL d   1      54.192  32.561  54.737  0.00  0.00     0.019 A 
ATOM     13  C   UNL d   1      54.649  33.061  55.211  0.00  0.00     0.003 A 
ATOM     14  C   UNL d   1      54.493  33.880  55.216  0.00  0.00     0.019 A 
ATOM     15  O   UNL d   1      52.658  34.811  53.809  0.00  0.00    -0.237 OA
ENDBRANCH   7   8
ENDBRANCH   4   7
BRANCH   1  16
ATOM     16  C   UNL d   1      49.558  34.539  51.984  0.00  0.00     0.019 C 
ATOM     17  C   UNL d   1      49.054  35.039  52.412  0.00  0.00     0.004 C 
ATOM     18  C   UNL d   1      49.355  34.305  51.220  0.00  0.00     0.004 C 
ATOM     19  C   UNL d   1      49.571  34.883  52.740  0.00  0.00     0.004 C 
ENDBRANCH   1  16
TORSDOF 3
ENDMDL
MODEL 4
REMARK VINA RESULT:      -7.9      0.540      1.130
REMARK  3 active torsions:
REMARK  status: ('A' for Active; 'I' for Inactive)
REMARK       I    between atoms: N_2  and  C_1 
REMARK    1  A    between atoms: O_3  and  C_1 
REMARK    2  A    between atoms: C_9  and  O_3 
REMARK    3  A    between atoms: C_5  and  C_6 
ROOT
ATOM      1  C   UNL d   1      53.428  33.200  53.787  0.00  0.00    -0.023 A 
ATOM      2  C   UNL d   1      53.301  33.992  53.596  0.00  0.00    -0.002 A 
ATOM      3  C   UNL d   1      52.894  32.625  53.532  0.00  0.00    -0.002 A 
ATOM      4  C   UNL d   1      52.116  33.632  52.900  0.00  0.00     0.105 A 
ATOM      5  C   UNL d   1      52.236  32.842  53.087  0.00  0.00     0.025 A 
ATOM      6  C   UNL d   1      52.643  34.209  53.151  0.00  0.00     0.025 A 
ENDROOT
BRANCH   4   7
ATOM      7  O   UNL d   1      51.456  33.849  52.454  0.00  0.00    -0.259 OA
BRANCH   7   8
ATOM      8  C   UNL d   1      50.805  34.207  52.803  0.00  0.00     0.377 C 
ATOM      9  N   UNL d   1      50.130  34.394  52.363  0.00  0.00    -0.252 N 
ATOM     10  C   UNL d   1      50.117  34.212  51.553  0.00  0.00     0.085 A 
ATOM     11  C   UNL d   1      49.488  34.750  52.721  0.00  0.00     0.085 A 
ATOM     12  C   UNL d   1      49.450  34.394  51.108  0.00  0.00     0.019 A 
ATOM     13  C   UNL d   1      48.796  34.755  51.463  0.00  0.00     0.003 A 
ATOM     14  C   UNL d   1      48.815  34.935  52.278  0.00  0.00     0.019 A 
ATOM     15  O   UNL d   1      50.837  34.384  53.629  0.00  0.00    -0.237 OA
ENDBRANCH   7   8
ENDBRANCH   4   7
BRANCH   1  16
ATOM     16  C   UNL d   1      54.089  32.982  54.234  0.00  0.00     0.019 C 
ATOM     17  C   UNL d   1      54.797  32.782  53.854  0.00  0.00     0.004 C 
ATOM     18  C   UNL d   1      54.043  32.965  55.058  0.00  0.00     0.004 C 
ATOM     19  C   UNL d   1      54.340  32.936  53.445  0.00  0.00     0.004 C 
ENDBRANCH   1  16
TORSDOF 3
ENDMDL
MODEL 5
REMARK VINA RESULT:      -7.7      2.470      4.064
REMARK  3 active torsions:
REMARK  status: ('A' for Active; 'I' for Inactive)
REMARK       I    between atoms: N_2  and  C_1 
REMARK    1  A    between atoms: O_3  and  C_1 
REMARK    2  A    between atoms: C_9  and  O_3 
REMARK    3  A    between atoms: C_5  and  C_6 
ROOT
ATOM      1  C   UNL d   1      53.068  34.089  53.719  0.00  0.00    -0.023 A 
ATOM      2  C   UNL d   1      52.520  33.551  54.020  0.00  0.00    -0.002 A 
ATOM      3  C   UNL d   1      53.803  33.823  53.455  0.00  0.00    -0.002 A 
ATOM      4  C   UNL d   1      53.438  32.492  53.791  0.00  0.00     0.105 A 
ATOM      5  C   UNL d   1      53.988  33.022  53.491  0.00  0.00     0.025 A 
ATOM      6  C   UNL d   1      52.705  32.750  54.056  0.00  0.00     0.025 A 
ENDROOT
BRANCH   4   7
ATOM      7  O   UNL d   1      53.624  31.688  53.827  0.00  0.00    -0.259 OA
BRANCH   7   8
ATOM      8  C   UNL d   1      53.238  31.140  53.353  0.00  0.00     0.377 C 
ATOM      9  N   UNL d   1      53.174  30.347  53.579  0.00  0.00    -0.252 N 
ATOM     10  C   UNL d   1      53.507  30.107  54.300  0.00  0.00     0.085 A 
ATOM     11  C   UNL d   1      52.787  29.811  53.098  0.00  0.00     0.085 A 
ATOM     12  C   UNL d   1      53.447  29.320  54.531  0.00  0.00     0.019 A 
ATOM     13  C   UNL d   1      53.058  28.771  54.051  0.00  0.00     0.003 A 
ATOM     14  C   UNL d   1      52.725  29.018  53.328  0.00  0.00     0.019 A 
ATOM     15  O   UNL d   1      52.905  31.403  52.622  0.00  0.00    -0.237 OA
ENDBRANCH   7   8
ENDBRANCH   4   7
BRANCH   1  16
ATOM     16  C   UNL d   1      52.882  34.894  53.683  0.00  0.00     0.019 C 
ATOM     17  C   UNL d   1      53.046  35.385  54.330  0.00  0.00     0.004 C 
ATOM     18  C   UNL d   1      52.534  35.207  53.004  0.00  0.00     0.004 C 
ATOM     19  C   UNL d   1      53.217  34.786  54.435  0.00  0.00     0.004 C 
ENDBRANCH   1  16
TORSDOF 3
ENDMDL
