MODEL 1
REMARK VINA RESULT:      -4.9      0.000      0.000
REMARK  6 active torsions:
REMARK  status: ('A' for Active; 'I' for Inactive)
REMARK       I    between atoms: N_3  and  C_1 
REMARK    1  A    between atoms: O_10  and  C_1 
REMARK    2  A    between atoms: N_2  and  C_4 
REMARK    3  A    between atoms: C_9  and  N_3 
REMARK    4  A    between atoms: C_17  and  O_10 
REMARK    5  A    between atoms: C_18  and  C_17 
REMARK    6  A    between atoms: C_19  and  C_18 
ROOT
ATOM      1  C   UNL d   1      56.257   0.097  32.868  0.00  0.00     0.064 A 
ATOM      2  C   UNL d   1      56.253  -0.685  32.589  0.00  0.00     0.020 A 
ATOM      3  C   UNL d   1      56.680   0.677  32.462  0.00  0.00     0.020 A 
ATOM      4  C   UNL d   1      57.096  -0.307  31.500  0.00  0.00     0.137 A 
ATOM      5  C   UNL d   1      57.099   0.478  31.781  0.00  0.00     0.034 A 
ATOM      6  C   UNL d   1      56.671  -0.885  31.908  0.00  0.00     0.034 A 
ENDROOT
BRANCH   4   7
ATOM      7  N   UNL d   1      57.510  -0.511  30.823  0.00  0.00    -0.344 NA
ATOM      8  C   UNL d   1      57.925  -0.711  30.141  0.00  0.00     0.445 C 
ATOM      9  O   UNL d   1      58.021  -0.156  29.539  0.00  0.00    -0.220 OA
BRANCH   8  10
ATOM     10  O   UNL d   1      58.246  -1.468  30.059  0.00  0.00    -0.246 OA
BRANCH  10  11
ATOM     11  C   UNL d   1      58.551  -1.710  29.333  0.00  0.00     0.129 C 
BRANCH  11  12
ATOM     12  C   UNL d   1      58.982  -2.417  29.275  0.00  0.00     0.027 C 
BRANCH  12  13
ATOM     13  C   UNL d   1      58.996  -2.837  28.568  0.00  0.00     0.002 C 
ATOM     14  C   UNL d   1      59.156  -3.645  28.574  0.00  0.00     0.000 C 
ENDBRANCH  12  13
ENDBRANCH  11  12
ENDBRANCH  10  11
ENDBRANCH   8  10
ENDBRANCH   4   7
BRANCH   1  15
ATOM     15  N   UNL d   1      55.835   0.290  33.552  0.00  0.00    -0.300 N 
ATOM     16  C   UNL d   1      56.239   0.491  34.242  0.00  0.00     0.107 A 
ATOM     17  C   UNL d   1      55.818   0.682  34.919  0.00  0.00     0.142 A 
ATOM     18  O   UNL d   1      54.993   0.674  34.908  0.00  0.00    -0.300 OA
ATOM     19  C   UNL d   1      54.589   0.473  34.217  0.00  0.00     0.142 A 
ATOM     20  C   UNL d   1      55.013   0.281  33.535  0.00  0.00     0.107 A 
ENDBRANCH   1  15
TORSDOF 6
ENDMDL
MODEL 2
REMARK VINA RESULT:      -3.0      1.707      5.448
REMARK  6 active torsions:
REMARK  status: ('A' for Active; 'I' for Inactive)
REMARK       I    between atoms: N_3  and  C_1 
REMARK    1  A    between atoms: O_10  and  C_1 
REMARK    2  A    between atoms: N_2  and  C_4 
REMARK    3  A    between atoms: C_9  and  N_3 
REMARK    4  A    between atoms: C_17  and  O_10 
REMARK    5  A    between atoms: C_18  and  C_17 
REMARK    6  A    between atoms: C_19  and  C_18 
ROOT
ATOM      1  C   UNL d   1      58.768  -0.334  30.079  0.00  0.00     0.064 A 
ATOM      2  C   UNL d   1      58.589   0.283  30.605  0.00  0.00     0.020 A 
ATOM      3  C   UNL d   1      58.331  -1.033  30.099  0.00  0.00     0.020 A 
ATOM      4  C   UNL d   1      57.536  -0.497  31.170  0.00  0.00     0.137 A 
ATOM      5  C   UNL d   1      57.717  -1.117  30.642  0.00  0.00     0.034 A 
ATOM      6  C   UNL d   1      57.976   0.201  31.147  0.00  0.00     0.034 A 
ENDROOT
BRANCH   4   7
ATOM      7  N   UNL d   1      56.926  -0.574  31.712  0.00  0.00    -0.344 NA
ATOM      8  C   UNL d   1      56.314  -0.657  32.256  0.00  0.00     0.445 C 
ATOM      9  O   UNL d   1      56.014  -1.405  32.429  0.00  0.00    -0.220 OA
BRANCH   8  10
ATOM     10  O   UNL d   1      55.999   0.010  32.629  0.00  0.00    -0.246 OA
BRANCH  10  11
ATOM     11  C   UNL d   1      55.404  -0.075  33.193  0.00  0.00     0.129 C 
BRANCH  11  12
ATOM     12  C   UNL d   1      55.387   0.418  33.861  0.00  0.00     0.027 C 
BRANCH  12  13
ATOM     13  C   UNL d   1      54.876   0.253  34.484  0.00  0.00     0.002 C 
ATOM     14  C   UNL d   1      54.931   0.682  35.185  0.00  0.00     0.000 C 
ENDBRANCH  12  13
ENDBRANCH  11  12
ENDBRANCH  10  11
ENDBRANCH   8  10
ENDBRANCH   4   7
BRANCH   1  15
ATOM     15  N   UNL d   1      59.386  -0.245  29.537  0.00  0.00    -0.300 N 
ATOM     16  C   UNL d   1      59.823   0.455  29.522  0.00  0.00     0.107 A 
ATOM     17  C   UNL d   1      60.435   0.540  28.983  0.00  0.00     0.142 A 
ATOM     18  O   UNL d   1      60.612  -0.071  28.458  0.00  0.00    -0.300 OA
ATOM     19  C   UNL d   1      60.174  -0.771  28.473  0.00  0.00     0.142 A 
ATOM     20  C   UNL d   1      59.558  -0.857  29.015  0.00  0.00     0.107 A 
ENDBRANCH   1  15
TORSDOF 6
ENDMDL
