MODEL 1
REMARK VINA RESULT:      54.2      0.000      0.000
REMARK  2 active torsions:
REMARK  status: ('A' for Active; 'I' for Inactive)
REMARK    1  A    between atoms: N_10  and  C_3 
REMARK    2  A    between atoms: C_11  and  C_5 
ROOT
ATOM      1  N   UNL d   1      14.046  14.172  -2.851  0.00  0.00    -0.196 N 
ATOM      2  C   UNL d   1      14.128  13.540  -2.319  0.00  0.00     0.167 A 
ATOM      3  C   UNL d   1      13.706  14.034  -3.586  0.00  0.00     0.152 A 
ATOM      4  N   UNL d   1      14.639  15.035  -1.908  0.00  0.00    -0.163 NA
ATOM      5  C   UNL d   1      14.461  13.654  -1.591  0.00  0.00     0.055 A 
ATOM      6  N   UNL d   1      13.867  12.784  -2.535  0.00  0.00    -0.227 NA
ATOM      7  C   UNL d   1      13.447  13.290  -3.800  0.00  0.00     0.052 A 
ATOM      8  C   UNL d   1      14.720  14.407  -1.379  0.00  0.00     0.104 A 
ATOM      9  C   UNL d   1      13.528  12.662  -3.271  0.00  0.00     0.086 A 
ATOM     10  C   UNL d   1      13.107  13.173  -4.546  0.00  0.00     0.004 A 
ATOM     11  C   UNL d   1      15.053  14.534  -0.656  0.00  0.00     0.023 C 
ATOM     12  C   UNL d   1      13.269  11.909  -3.483  0.00  0.00     0.019 A 
ATOM     13  C   UNL d   1      12.845  12.407  -4.757  0.00  0.00     0.000 A 
ATOM     14  C   UNL d   1      12.926  11.779  -4.229  0.00  0.00     0.002 A 
ENDROOT
BRANCH   3  15
ATOM     15  N   UNL d   1      13.621  14.674  -4.128  0.00  0.00    -0.285 N 
ATOM     16  C   UNL d   1      12.851  14.978  -4.315  0.00  0.00     0.108 A 
ATOM     17  C   UNL d   1      12.771  15.614  -4.855  0.00  0.00     0.142 A 
ATOM     18  O   UNL d   1      13.459  15.961  -5.222  0.00  0.00    -0.300 OA
ATOM     19  C   UNL d   1      14.221  15.650  -5.028  0.00  0.00     0.142 A 
ATOM     20  C   UNL d   1      14.301  15.014  -4.488  0.00  0.00     0.108 A 
ENDBRANCH   3  15
BRANCH   5  21
ATOM     21  C   UNL d   1      14.541  13.026  -1.063  0.00  0.00     0.004 A 
ATOM     22  C   UNL d   1      13.931  12.850  -0.554  0.00  0.00     0.000 A 
ATOM     23  C   UNL d   1      14.012  12.222  -0.025  0.00  0.00     0.000 A 
ATOM     24  C   UNL d   1      14.702  11.779  -0.014  0.00  0.00     0.000 A 
ATOM     25  C   UNL d   1      15.311  11.964  -0.531  0.00  0.00     0.000 A 
ATOM     26  C   UNL d   1      15.230  12.592  -1.059  0.00  0.00     0.000 A 
ENDBRANCH   5  21
TORSDOF 2
ENDMDL
