MODEL 1
REMARK VINA RESULT:      -5.5      0.000      0.000
REMARK  4 active torsions:
REMARK  status: ('A' for Active; 'I' for Inactive)
REMARK    1  A    between atoms: C_9  and  C_2 
REMARK    2  A    between atoms: C_7  and  C_9 
REMARK       I    between atoms: N_13  and  C_7 
REMARK    3  A    between atoms: C_10  and  C_19 
REMARK    4  A    between atoms: C_19  and  N_13 
ROOT
ATOM      1  C   UNL d   1     -41.801-123.232 -49.847  0.00  0.00     0.100 A 
ATOM      2  C   UNL d   1     -41.852-122.746 -51.085  0.00  0.00     0.032 A 
ATOM      3  O   UNL d   1     -41.123-123.465 -50.243  0.00  0.00    -0.305 OA
ATOM      4  C   UNL d   1     -42.260-122.783 -50.369  0.00  0.00     0.025 A 
ATOM      5  C   UNL d   1     -41.151-123.163 -51.015  0.00  0.00     0.123 A 
ATOM      6  C   UNL d   1     -42.062-123.372 -49.075  0.00  0.00     0.023 A 
ATOM      7  C   UNL d   1     -42.978-122.475 -50.119  0.00  0.00     0.002 A 
ATOM      8  C   UNL d   1     -42.789-123.059 -48.825  0.00  0.00     0.002 A 
ATOM      9  C   UNL d   1     -43.245-122.609 -49.351  0.00  0.00     0.000 A 
ATOM     10  C   UNL d   1     -41.610-123.817 -48.556  0.00  0.00     0.002 C 
ATOM     11  C   UNL d   1     -43.053-123.193 -48.062  0.00  0.00     0.000 C 
ENDROOT
BRANCH   2  12
ATOM     12  C   UNL d   1     -42.106-122.351 -51.770  0.00  0.00     0.065 C 
BRANCH  12  13
ATOM     13  C   UNL d   1     -41.615-121.812 -52.150  0.00  0.00     0.279 C 
ATOM     14  N   UNL d   1     -41.616-121.763 -52.969  0.00  0.00    -0.204 NA
ATOM     15  O   UNL d   1     -41.123-121.322 -51.708  0.00  0.00    -0.265 OA
BRANCH  14  16
ATOM     16  C   UNL d   1     -42.102-122.247 -53.421  0.00  0.00     0.127 C 
BRANCH  16  17
ATOM     17  C   UNL d   1     -42.116-122.184 -54.239  0.00  0.00     0.119 A 
ATOM     18  O   UNL d   1     -42.678-121.797 -54.685  0.00  0.00    -0.304 OA
ATOM     19  C   UNL d   1     -42.473-121.875 -55.485  0.00  0.00     0.123 A 
ATOM     20  C   UNL d   1     -41.776-122.316 -55.530  0.00  0.00     0.029 A 
ATOM     21  C   UNL d   1     -41.552-122.510 -54.759  0.00  0.00     0.028 A 
ENDBRANCH  16  17
ENDBRANCH  14  16
ENDBRANCH  12  13
ENDBRANCH   2  12
TORSDOF 4
ENDMDL
