MODEL 1
REMARK VINA RESULT:      -4.1      0.000      0.000
REMARK  5 active torsions:
REMARK  status: ('A' for Active; 'I' for Inactive)
REMARK    1  A    between atoms: C_7  and  C_1 
REMARK    2  A    between atoms: N_8  and  C_7 
REMARK    3  A    between atoms: C_9  and  N_8 
REMARK    4  A    between atoms: O_17  and  C_13 
REMARK    5  A    between atoms: O_20  and  C_15 
ROOT
ATOM      1  C   UNL d   1     -41.555-122.413 -51.715  0.00  0.00     0.145 A 
ATOM      2  C   UNL d   1     -41.685-121.666 -52.041  0.00  0.00     0.305 A 
ATOM      3  C   UNL d   1     -41.421-123.060 -52.207  0.00  0.00     0.305 A 
ATOM      4  O   UNL d   1     -41.418-122.961 -53.025  0.00  0.00    -0.269 OA
ATOM      5  O   UNL d   1     -41.681-121.575 -52.853  0.00  0.00    -0.269 OA
ATOM      6  C   UNL d   1     -41.548-122.221 -53.345  0.00  0.00     0.242 A 
ATOM      7  O   UNL d   1     -41.288-123.817 -51.881  0.00  0.00    -0.259 OA
ATOM      8  O   UNL d   1     -41.819-121.020 -51.549  0.00  0.00    -0.259 OA
ATOM      9  C   UNL d   1     -41.395-123.024 -53.442  0.00  0.00     0.035 A 
ATOM     10  C   UNL d   1     -41.622-121.728 -54.014  0.00  0.00     0.035 A 
ATOM     11  C   UNL d   1     -41.543-122.044 -54.771  0.00  0.00     0.001 A 
ATOM     12  C   UNL d   1     -41.316-123.343 -54.197  0.00  0.00     0.001 A 
ATOM     13  C   UNL d   1     -41.390-122.849 -54.867  0.00  0.00    -0.000 A 
ENDROOT
BRANCH   1  14
ATOM     14  C   UNL d   1     -41.558-122.514 -50.890  0.00  0.00     0.110 C 
BRANCH  14  15
ATOM     15  N   UNL d   1     -42.272-122.523 -50.478  0.00  0.00    -0.242 NA
BRANCH  15  16
ATOM     16  C   UNL d   1     -42.300-122.832 -49.714  0.00  0.00     0.106 A 
ATOM     17  C   UNL d   1     -41.699-122.663 -49.178  0.00  0.00     0.045 A 
ATOM     18  C   UNL d   1     -41.724-122.969 -48.419  0.00  0.00     0.096 A 
ATOM     19  C   UNL d   1     -42.361-123.454 -48.186  0.00  0.00     0.026 A 
ATOM     20  C   UNL d   1     -42.962-123.623 -48.722  0.00  0.00     0.028 A 
ATOM     21  C   UNL d   1     -42.933-123.312 -49.489  0.00  0.00     0.112 A 
BRANCH  18  22
ATOM     22  O   UNL d   1     -41.123-122.798 -47.887  0.00  0.00    -0.328 OA
ATOM     23  C   UNL d   1     -41.164-123.071 -47.110  0.00  0.00     0.181 C 
ENDBRANCH  18  22
BRANCH  21  24
ATOM     24  O   UNL d   1     -43.534-123.481 -50.025  0.00  0.00    -0.327 OA
ATOM     25  C   UNL d   1     -44.283-123.676 -49.755  0.00  0.00     0.181 C 
ENDBRANCH  21  24
ENDBRANCH  15  16
ENDBRANCH  14  15
ENDBRANCH   1  14
TORSDOF 5
ENDMDL
