MODEL 1
REMARK VINA RESULT:      -4.8      0.000      0.000
REMARK  10 active torsions:
REMARK  status: ('A' for Active; 'I' for Inactive)
REMARK    1  A    between atoms: C_5  and  C_1 
REMARK    2  A    between atoms: C_10  and  C_2 
REMARK    3  A    between atoms: S_11  and  C_3 
REMARK    4  A    between atoms: C_9  and  C_4 
REMARK       I    between atoms: N_8  and  C_5 
REMARK    5  A    between atoms: C_15  and  N_8 
REMARK    6  A    between atoms: C_26  and  S_11 
REMARK    7  A    between atoms: C_13  and  C_18 
REMARK    8  A    between atoms: C_16  and  C_26 
REMARK       I    between atoms: N_19  and  C_16 
REMARK    9  A    between atoms: C_29  and  N_19 
REMARK   10  A    between atoms: O_34  and  C_23 
ROOT
ATOM      1  C   UNL d   1     -40.262  14.723  19.202  0.00  0.00     0.076 A 
ATOM      2  C   UNL d   1     -40.376  14.484  20.584  0.00  0.00     0.045 A 
ATOM      3  C   UNL d   1     -41.129  14.117  20.454  0.00  0.00     0.112 A 
ATOM      4  C   UNL d   1     -39.959  14.778  19.963  0.00  0.00     0.016 A 
ATOM      5  C   UNL d   1     -41.004  14.361  19.074  0.00  0.00     0.087 A 
ATOM      6  N   UNL d   1     -41.429  14.061  19.711  0.00  0.00    -0.239 NA
ATOM      7  C   UNL d   1     -41.322  14.298  18.312  0.00  0.00     0.021 C 
ENDROOT
BRANCH   3   8
ATOM      8  S   UNL d   1     -41.605  13.792  21.077  0.00  0.00    -0.062 SA
BRANCH   8   9
ATOM      9  C   UNL d   1     -42.185  13.219  20.912  0.00  0.00     0.099 C 
BRANCH   9  10
ATOM     10  C   UNL d   1     -42.849  13.158  21.400  0.00  0.00     0.286 C 
ATOM     11  N   UNL d   1     -43.535  12.799  21.124  0.00  0.00    -0.208 NA
ATOM     12  O   UNL d   1     -42.821  13.457  22.161  0.00  0.00    -0.265 OA
BRANCH  11  13
ATOM     13  C   UNL d   1     -44.193  12.743  21.622  0.00  0.00     0.085 A 
ATOM     14  C   UNL d   1     -44.249  12.124  22.154  0.00  0.00     0.019 A 
ATOM     15  C   UNL d   1     -44.902  12.066  22.650  0.00  0.00     0.008 A 
ATOM     16  C   UNL d   1     -45.502  12.642  22.605  0.00  0.00     0.065 A 
ATOM     17  C   UNL d   1     -45.446  13.261  22.074  0.00  0.00     0.008 A 
ATOM     18  C   UNL d   1     -44.787  13.317  21.575  0.00  0.00     0.019 A 
BRANCH  16  19
ATOM     19  C   UNL d   1     -46.169  12.591  23.107  0.00  0.00     0.211 C 
ATOM     20  O   UNL d   1     -46.292  13.164  23.698  0.00  0.00    -0.644 OA
ATOM     21  O   UNL d   1     -46.698  11.975  23.008  0.00  0.00    -0.644 OA
ENDBRANCH  16  19
ENDBRANCH  11  13
ENDBRANCH   9  10
ENDBRANCH   8   9
ENDBRANCH   3   8
BRANCH   2  22
ATOM     22  C   UNL d   1     -40.034  14.558  21.351  0.00  0.00     0.124 C 
ATOM     23  N   UNL d   1     -39.894  13.874  21.816  0.00  0.00    -0.146 N 
ENDBRANCH   2  22
BRANCH   4  24
ATOM     24  C   UNL d   1     -39.230  15.134  20.088  0.00  0.00     0.030 A 
ATOM     25  S   UNL d   1     -38.997  15.911  20.124  0.00  0.00    -0.086 SA
ATOM     26  C   UNL d   1     -38.206  15.922  20.262  0.00  0.00     0.035 A 
ATOM     27  C   UNL d   1     -37.940  15.172  20.313  0.00  0.00     0.007 A 
ATOM     28  C   UNL d   1     -38.563  14.670  20.207  0.00  0.00     0.007 A 
ENDBRANCH   4  24
BRANCH   1  29
ATOM     29  C   UNL d   1     -39.829  15.028  18.568  0.00  0.00     0.281 C 
ATOM     30  N   UNL d   1     -39.589  14.520  17.955  0.00  0.00    -0.206 NA
ATOM     31  O   UNL d   1     -39.638  15.821  18.545  0.00  0.00    -0.265 OA
BRANCH  30  32
ATOM     32  C   UNL d   1     -39.157  14.828  17.325  0.00  0.00     0.107 A 
ATOM     33  C   UNL d   1     -38.573  14.383  16.982  0.00  0.00     0.112 A 
ATOM     34  C   UNL d   1     -38.142  14.697  16.350  0.00  0.00     0.026 A 
ATOM     35  C   UNL d   1     -38.300  15.440  16.073  0.00  0.00     0.002 A 
ATOM     36  C   UNL d   1     -38.894  15.900  16.417  0.00  0.00     0.002 A 
ATOM     37  C   UNL d   1     -39.325  15.587  17.050  0.00  0.00     0.021 A 
BRANCH  33  38
ATOM     38  O   UNL d   1     -38.413  13.625  17.265  0.00  0.00    -0.327 OA
ATOM     39  C   UNL d   1     -38.187  13.027  16.744  0.00  0.00     0.181 C 
ENDBRANCH  33  38
ENDBRANCH  30  32
ENDBRANCH   1  29
TORSDOF 10
ENDMDL
MODEL 2
REMARK VINA RESULT:      -3.0      2.955      8.618
REMARK  10 active torsions:
REMARK  status: ('A' for Active; 'I' for Inactive)
REMARK    1  A    between atoms: C_5  and  C_1 
REMARK    2  A    between atoms: C_10  and  C_2 
REMARK    3  A    between atoms: S_11  and  C_3 
REMARK    4  A    between atoms: C_9  and  C_4 
REMARK       I    between atoms: N_8  and  C_5 
REMARK    5  A    between atoms: C_15  and  N_8 
REMARK    6  A    between atoms: C_26  and  S_11 
REMARK    7  A    between atoms: C_13  and  C_18 
REMARK    8  A    between atoms: C_16  and  C_26 
REMARK       I    between atoms: N_19  and  C_16 
REMARK    9  A    between atoms: C_29  and  N_19 
REMARK   10  A    between atoms: O_34  and  C_23 
ROOT
ATOM      1  C   UNL d   1     -47.449  12.984  22.861  0.00  0.00     0.076 A 
ATOM      2  C   UNL d   1     -46.433  13.895  22.516  0.00  0.00     0.045 A 
ATOM      3  C   UNL d   1     -45.872  13.260  22.506  0.00  0.00     0.112 A 
ATOM      4  C   UNL d   1     -47.204  13.749  22.691  0.00  0.00     0.016 A 
ATOM      5  C   UNL d   1     -46.895  12.358  22.852  0.00  0.00     0.087 A 
ATOM      6  N   UNL d   1     -46.108  12.510  22.672  0.00  0.00    -0.239 NA
ATOM      7  C   UNL d   1     -47.127  11.581  23.022  0.00  0.00     0.021 C 
ENDROOT
BRANCH   3   8
ATOM      8  S   UNL d   1     -45.049  13.365  22.327  0.00  0.00    -0.062 SA
BRANCH   8   9
ATOM      9  C   UNL d   1     -44.668  12.867  21.780  0.00  0.00     0.099 C 
BRANCH   9  10
ATOM     10  C   UNL d   1     -43.860  12.961  21.637  0.00  0.00     0.286 C 
ATOM     11  N   UNL d   1     -43.574  13.668  21.329  0.00  0.00    -0.208 NA
ATOM     12  O   UNL d   1     -43.345  12.348  21.803  0.00  0.00    -0.265 OA
BRANCH  11  13
ATOM     13  C   UNL d   1     -42.763  13.751  21.190  0.00  0.00     0.085 A 
ATOM     14  C   UNL d   1     -42.308  13.090  21.032  0.00  0.00     0.019 A 
ATOM     15  C   UNL d   1     -41.501  13.169  20.893  0.00  0.00     0.008 A 
ATOM     16  C   UNL d   1     -41.156  13.926  20.914  0.00  0.00     0.065 A 
ATOM     17  C   UNL d   1     -41.610  14.588  21.072  0.00  0.00     0.008 A 
ATOM     18  C   UNL d   1     -42.422  14.505  21.212  0.00  0.00     0.019 A 
BRANCH  16  19
ATOM     19  C   UNL d   1     -40.336  14.017  20.774  0.00  0.00     0.211 C 
ATOM     20  O   UNL d   1     -40.014  13.812  20.034  0.00  0.00    -0.644 OA
ATOM     21  O   UNL d   1     -39.857  14.307  21.370  0.00  0.00    -0.644 OA
ENDBRANCH  16  19
ENDBRANCH  11  13
ENDBRANCH   9  10
ENDBRANCH   8   9
ENDBRANCH   3   8
BRANCH   2  22
ATOM     22  C   UNL d   1     -46.218  14.693  22.346  0.00  0.00     0.124 C 
ATOM     23  N   UNL d   1     -45.631  15.076  22.807  0.00  0.00    -0.146 N 
ENDBRANCH   2  22
BRANCH   4  24
ATOM     24  C   UNL d   1     -47.748  14.364  22.700  0.00  0.00     0.030 A 
ATOM     25  S   UNL d   1     -48.157  14.727  23.301  0.00  0.00    -0.086 SA
ATOM     26  C   UNL d   1     -48.614  15.299  22.972  0.00  0.00     0.035 A 
ATOM     27  C   UNL d   1     -48.501  15.304  22.183  0.00  0.00     0.007 A 
ATOM     28  C   UNL d   1     -47.966  14.729  21.997  0.00  0.00     0.007 A 
ENDBRANCH   4  24
BRANCH   1  29
ATOM     29  C   UNL d   1     -48.242  12.841  23.041  0.00  0.00     0.281 C 
ATOM     30  N   UNL d   1     -48.689  12.344  22.547  0.00  0.00    -0.206 NA
ATOM     31  O   UNL d   1     -48.582  13.185  23.698  0.00  0.00    -0.265 OA
BRANCH  30  32
ATOM     32  C   UNL d   1     -49.481  12.203  22.730  0.00  0.00     0.107 A 
ATOM     33  C   UNL d   1     -50.040  12.235  22.146  0.00  0.00     0.112 A 
ATOM     34  C   UNL d   1     -50.833  12.093  22.335  0.00  0.00     0.026 A 
ATOM     35  C   UNL d   1     -51.051  11.924  23.095  0.00  0.00     0.002 A 
ATOM     36  C   UNL d   1     -50.485  11.890  23.697  0.00  0.00     0.002 A 
ATOM     37  C   UNL d   1     -49.693  12.031  23.509  0.00  0.00     0.021 A 
BRANCH  33  38
ATOM     38  O   UNL d   1     -49.817  12.408  21.371  0.00  0.00    -0.327 OA
ATOM     39  C   UNL d   1     -50.379  12.663  20.825  0.00  0.00     0.181 C 
ENDBRANCH  33  38
ENDBRANCH  30  32
ENDBRANCH   1  29
TORSDOF 10
ENDMDL
