MODEL 1
REMARK VINA RESULT:      81.4      0.000      0.000
REMARK  5 active torsions:
REMARK  status: ('A' for Active; 'I' for Inactive)
REMARK    1  A    between atoms: N_12  and  C_5 
REMARK    2  A    between atoms: C_21  and  N_9 
REMARK    3  A    between atoms: C_10  and  S_20 
REMARK    4  A    between atoms: S_20  and  C_26 
REMARK    5  A    between atoms: C_26  and  C_21 
ROOT
ATOM      1  C   UNL d   1      45.544 -18.281  40.618  0.00  0.00     0.191 A 
ATOM      2  C   UNL d   1      45.952 -17.638  40.922  0.00  0.00     0.173 A 
ATOM      3  N   UNL d   1      45.522 -18.868  41.196  0.00  0.00    -0.042 NA
ATOM      4  N   UNL d   1      45.243 -18.251  39.854  0.00  0.00    -0.240 N 
ATOM      5  C   UNL d   1      45.919 -18.582  41.856  0.00  0.00     0.722 A 
ATOM      6  N   UNL d   1      45.758 -16.933  39.694  0.00  0.00    -0.223 N 
ATOM      7  C   UNL d   1      45.350 -17.576  39.390  0.00  0.00     0.343 A 
ATOM      8  C   UNL d   1      46.062 -16.962  40.464  0.00  0.00     0.288 A 
ATOM      9  N   UNL d   1      46.188 -17.819  41.692  0.00  0.00    -0.132 N 
ATOM     10  O   UNL d   1      45.042 -17.552  38.615  0.00  0.00    -0.245 OA
ATOM     11  O   UNL d   1      46.475 -16.313  40.772  0.00  0.00    -0.265 OA
ATOM     12  C   UNL d   1      44.835 -18.893  39.550  0.00  0.00     0.105 C 
ATOM     13  C   UNL d   1      45.866 -16.261  39.235  0.00  0.00     0.107 C 
ENDROOT
BRANCH   9  14
ATOM     14  C   UNL d   1      46.613 -17.332  42.204  0.00  0.00     0.105 C 
BRANCH  14  15
ATOM     15  C   UNL d   1      46.233 -16.964  42.843  0.00  0.00     0.057 C 
BRANCH  15  16
ATOM     16  S   UNL d   1      46.636 -16.379  43.279  0.00  0.00    -0.059 SA
BRANCH  16  17
ATOM     17  C   UNL d   1      46.200 -15.779  43.660  0.00  0.00     0.141 A 
ATOM     18  N   UNL d   1      46.581 -15.108  43.929  0.00  0.00    -0.232 NA
ATOM     19  C   UNL d   1      46.026 -14.621  44.275  0.00  0.00     0.088 A 
ATOM     20  C   UNL d   1      46.101 -13.879  44.635  0.00  0.00     0.020 A 
ATOM     21  C   UNL d   1      45.300 -14.980  44.227  0.00  0.00     0.049 A 
ATOM     22  C   UNL d   1      45.431 -13.503  44.947  0.00  0.00     0.002 A 
ATOM     23  C   UNL d   1      44.706 -13.865  44.897  0.00  0.00     0.001 A 
ATOM     24  C   UNL d   1      44.637 -14.609  44.535  0.00  0.00     0.008 A 
ATOM     25  S   UNL d   1      45.407 -15.716  43.837  0.00  0.00    -0.060 SA
ENDBRANCH  16  17
ENDBRANCH  15  16
ENDBRANCH  14  15
ENDBRANCH   9  14
BRANCH   5  26
ATOM     26  N   UNL d   1      46.008 -19.022  42.544  0.00  0.00    -0.139 N 
ATOM     27  C   UNL d   1      46.104 -19.833  42.511  0.00  0.00     0.098 A 
ATOM     28  C   UNL d   1      46.194 -20.279  43.209  0.00  0.00     0.020 A 
ATOM     29  C   UNL d   1      46.185 -19.888  43.943  0.00  0.00     0.003 A 
ATOM     30  C   UNL d   1      46.088 -19.075  43.973  0.00  0.00     0.020 A 
ATOM     31  C   UNL d   1      46.274 -20.329  44.635  0.00  0.00     0.000 C 
ATOM     32  C   UNL d   1      46.000 -18.643  43.275  0.00  0.00     0.098 A 
ENDBRANCH   5  26
TORSDOF 5
ENDMDL
MODEL 2
REMARK VINA RESULT:      84.0      3.451      6.213
REMARK  5 active torsions:
REMARK  status: ('A' for Active; 'I' for Inactive)
REMARK    1  A    between atoms: N_12  and  C_5 
REMARK    2  A    between atoms: C_21  and  N_9 
REMARK    3  A    between atoms: C_10  and  S_20 
REMARK    4  A    between atoms: S_20  and  C_26 
REMARK    5  A    between atoms: C_26  and  C_21 
ROOT
ATOM      1  C   UNL d   1      42.636 -15.538  36.691  0.00  0.00     0.191 A 
ATOM      2  C   UNL d   1      43.018 -16.243  36.862  0.00  0.00     0.173 A 
ATOM      3  N   UNL d   1      43.188 -14.929  36.737  0.00  0.00    -0.042 NA
ATOM      4  N   UNL d   1      41.833 -15.539  36.515  0.00  0.00    -0.240 N 
ATOM      5  C   UNL d   1      43.912 -15.264  36.937  0.00  0.00     0.722 A 
ATOM      6  N   UNL d   1      41.790 -16.952  36.680  0.00  0.00    -0.223 N 
ATOM      7  C   UNL d   1      41.408 -16.247  36.510  0.00  0.00     0.343 A 
ATOM      8  C   UNL d   1      42.599 -16.953  36.858  0.00  0.00     0.288 A 
ATOM      9  N   UNL d   1      43.812 -16.079  37.016  0.00  0.00    -0.132 N 
ATOM     10  O   UNL d   1      40.593 -16.241  36.330  0.00  0.00    -0.245 OA
ATOM     11  O   UNL d   1      42.985 -17.666  37.031  0.00  0.00    -0.265 OA
ATOM     12  C   UNL d   1      41.451 -14.834  36.344  0.00  0.00     0.105 C 
ATOM     13  C   UNL d   1      41.370 -17.658  36.676  0.00  0.00     0.107 C 
ENDROOT
BRANCH   9  14
ATOM     14  C   UNL d   1      44.397 -16.625  37.212  0.00  0.00     0.105 C 
BRANCH  14  15
ATOM     15  C   UNL d   1      44.662 -16.691  37.996  0.00  0.00     0.057 C 
BRANCH  15  16
ATOM     16  S   UNL d   1      44.531 -17.399  38.415  0.00  0.00    -0.059 SA
BRANCH  16  17
ATOM     17  C   UNL d   1      45.002 -17.575  39.081  0.00  0.00     0.141 A 
ATOM     18  N   UNL d   1      44.648 -17.737  39.799  0.00  0.00    -0.232 NA
ATOM     19  C   UNL d   1      45.233 -17.887  40.345  0.00  0.00     0.088 A 
ATOM     20  C   UNL d   1      45.193 -18.080  41.150  0.00  0.00     0.020 A 
ATOM     21  C   UNL d   1      45.953 -17.821  39.977  0.00  0.00     0.049 A 
ATOM     22  C   UNL d   1      45.891 -18.205  41.579  0.00  0.00     0.002 A 
ATOM     23  C   UNL d   1      46.610 -18.139  41.208  0.00  0.00     0.001 A 
ATOM     24  C   UNL d   1      46.645 -17.946  40.401  0.00  0.00     0.008 A 
ATOM     25  S   UNL d   1      45.810 -17.623  39.173  0.00  0.00    -0.060 SA
ENDBRANCH  16  17
ENDBRANCH  15  16
ENDBRANCH  14  15
ENDBRANCH   9  14
BRANCH   5  26
ATOM     26  N   UNL d   1      44.596 -14.818  37.032  0.00  0.00    -0.139 N 
ATOM     27  C   UNL d   1      45.289 -15.034  36.657  0.00  0.00     0.098 A 
ATOM     28  C   UNL d   1      45.982 -14.583  36.753  0.00  0.00     0.020 A 
ATOM     29  C   UNL d   1      45.960 -13.906  37.237  0.00  0.00     0.003 A 
ATOM     30  C   UNL d   1      45.264 -13.692  37.611  0.00  0.00     0.020 A 
ATOM     31  C   UNL d   1      46.647 -13.458  37.332  0.00  0.00     0.000 C 
ATOM     32  C   UNL d   1      44.583 -14.148  37.509  0.00  0.00     0.098 A 
ENDBRANCH   5  26
TORSDOF 5
ENDMDL
