MODEL 1
REMARK VINA RESULT:      92.0      0.000      0.000
REMARK  6 active torsions:
REMARK  status: ('A' for Active; 'I' for Inactive)
REMARK    1  A    between atoms: C_10  and  N_6 
REMARK    2  A    between atoms: S_14  and  C_9 
REMARK    3  A    between atoms: C_17  and  C_10 
REMARK    4  A    between atoms: N_13  and  C_25 
REMARK    5  A    between atoms: C_20  and  S_14 
REMARK    6  A    between atoms: C_25  and  C_20 
ROOT
ATOM      1  C   UNL d   1     -48.123  29.349  35.953  0.00  0.00     0.174 A 
ATOM      2  C   UNL d   1     -47.686  29.909  35.523  0.00  0.00     0.158 A 
ATOM      3  N   UNL d   1     -48.641  28.977  35.430  0.00  0.00    -0.203 NA
ATOM      4  N   UNL d   1     -47.988  29.257  36.765  0.00  0.00    -0.240 N 
ATOM      5  N   UNL d   1     -46.985  30.277  36.714  0.00  0.00    -0.223 N 
ATOM      6  N   UNL d   1     -47.936  29.878  34.737  0.00  0.00    -0.279 N 
ATOM      7  C   UNL d   1     -47.423  29.717  37.144  0.00  0.00     0.343 A 
ATOM      8  C   UNL d   1     -47.116  30.372  35.908  0.00  0.00     0.287 A 
ATOM      9  C   UNL d   1     -48.525  29.302  34.688  0.00  0.00     0.181 A 
ATOM     10  O   UNL d   1     -47.288  29.624  37.961  0.00  0.00    -0.245 OA
ATOM     11  O   UNL d   1     -46.681  30.928  35.480  0.00  0.00    -0.265 OA
ATOM     12  C   UNL d   1     -48.423  28.701  37.193  0.00  0.00     0.105 C 
ATOM     13  C   UNL d   1     -46.418  30.739  37.095  0.00  0.00     0.107 C 
ENDROOT
BRANCH   9  14
ATOM     14  S   UNL d   1     -48.936  29.084  33.995  0.00  0.00    -0.048 SA
BRANCH  14  15
ATOM     15  C   UNL d   1     -49.195  28.313  33.895  0.00  0.00     0.057 C 
BRANCH  15  16
ATOM     16  C   UNL d   1     -49.746  28.142  33.306  0.00  0.00     0.087 C 
BRANCH  16  17
ATOM     17  N   UNL d   1     -50.157  27.432  33.333  0.00  0.00    -0.302 N 
ATOM     18  C   UNL d   1     -49.746  26.723  33.380  0.00  0.00     0.080 A 
ATOM     19  C   UNL d   1     -50.156  26.013  33.408  0.00  0.00     0.019 A 
ATOM     20  C   UNL d   1     -50.975  26.012  33.388  0.00  0.00     0.003 A 
ATOM     21  C   UNL d   1     -51.386  26.720  33.341  0.00  0.00     0.019 A 
ATOM     22  C   UNL d   1     -50.979  27.435  33.313  0.00  0.00     0.080 A 
ENDBRANCH  16  17
ENDBRANCH  15  16
ENDBRANCH  14  15
ENDBRANCH   9  14
BRANCH   6  23
ATOM     23  C   UNL d   1     -47.647  30.342  34.120  0.00  0.00     0.082 C 
BRANCH  23  24
ATOM     24  C   UNL d   1     -47.869  31.139  34.050  0.00  0.00     0.018 A 
ATOM     25  C   UNL d   1     -48.670  31.323  33.959  0.00  0.00     0.002 A 
ATOM     26  C   UNL d   1     -48.902  32.110  33.889  0.00  0.00     0.011 A 
ATOM     27  C   UNL d   1     -48.331  32.710  33.909  0.00  0.00     0.058 A 
ATOM     28  C   UNL d   1     -47.523  32.515  34.001  0.00  0.00     0.011 A 
ATOM     29 CL   UNL d   1     -48.558  33.500  33.839  0.00  0.00    -0.082 Cl
ATOM     30  C   UNL d   1     -47.305  31.725  34.070  0.00  0.00     0.002 A 
ENDBRANCH  23  24
ENDBRANCH   6  23
TORSDOF 6
ENDMDL
MODEL 2
REMARK VINA RESULT:      92.1      1.627      3.087
REMARK  6 active torsions:
REMARK  status: ('A' for Active; 'I' for Inactive)
REMARK    1  A    between atoms: C_10  and  N_6 
REMARK    2  A    between atoms: S_14  and  C_9 
REMARK    3  A    between atoms: C_17  and  C_10 
REMARK    4  A    between atoms: N_13  and  C_25 
REMARK    5  A    between atoms: C_20  and  S_14 
REMARK    6  A    between atoms: C_25  and  C_20 
ROOT
ATOM      1  C   UNL d   1     -48.682  31.600  33.866  0.00  0.00     0.174 A 
ATOM      2  C   UNL d   1     -47.957  31.314  34.155  0.00  0.00     0.158 A 
ATOM      3  N   UNL d   1     -49.223  30.978  33.879  0.00  0.00    -0.203 NA
ATOM      4  N   UNL d   1     -48.747  32.392  33.631  0.00  0.00    -0.240 N 
ATOM      5  N   UNL d   1     -47.373  32.606  33.971  0.00  0.00    -0.223 N 
ATOM      6  N   UNL d   1     -48.056  30.517  34.344  0.00  0.00    -0.279 N 
ATOM      7  C   UNL d   1     -48.098  32.892  33.682  0.00  0.00     0.343 A 
ATOM      8  C   UNL d   1     -47.304  31.822  34.205  0.00  0.00     0.287 A 
ATOM      9  C   UNL d   1     -48.838  30.318  34.171  0.00  0.00     0.181 A 
ATOM     10  O   UNL d   1     -48.165  33.688  33.445  0.00  0.00    -0.245 OA
ATOM     11  O   UNL d   1     -46.584  31.537  34.492  0.00  0.00    -0.265 OA
ATOM     12  C   UNL d   1     -49.467  32.676  33.344  0.00  0.00     0.105 C 
ATOM     13  C   UNL d   1     -46.722  33.109  34.022  0.00  0.00     0.107 C 
ENDROOT
BRANCH   9  14
ATOM     14  S   UNL d   1     -49.182  29.564  34.277  0.00  0.00    -0.048 SA
BRANCH  14  15
ATOM     15  C   UNL d   1     -49.709  29.271  33.722  0.00  0.00     0.057 C 
BRANCH  15  16
ATOM     16  C   UNL d   1     -49.557  28.545  33.361  0.00  0.00     0.087 C 
BRANCH  16  17
ATOM     17  N   UNL d   1     -50.138  27.966  33.364  0.00  0.00    -0.302 N 
ATOM     18  C   UNL d   1     -50.929  28.179  33.306  0.00  0.00     0.080 A 
ATOM     19  C   UNL d   1     -51.510  27.600  33.309  0.00  0.00     0.019 A 
ATOM     20  C   UNL d   1     -51.301  26.810  33.368  0.00  0.00     0.003 A 
ATOM     21  C   UNL d   1     -50.511  26.596  33.426  0.00  0.00     0.019 A 
ATOM     22  C   UNL d   1     -49.925  27.173  33.424  0.00  0.00     0.080 A 
ENDBRANCH  16  17
ENDBRANCH  15  16
ENDBRANCH  14  15
ENDBRANCH   9  14
BRANCH   6  23
ATOM     23  C   UNL d   1     -47.475  30.018  34.649  0.00  0.00     0.082 C 
BRANCH  23  24
ATOM     24  C   UNL d   1     -47.419  29.884  35.467  0.00  0.00     0.018 A 
ATOM     25  C   UNL d   1     -47.778  29.211  35.786  0.00  0.00     0.002 A 
ATOM     26  C   UNL d   1     -47.729  29.069  36.595  0.00  0.00     0.011 A 
ATOM     27  C   UNL d   1     -47.321  29.601  37.083  0.00  0.00     0.058 A 
ATOM     28  C   UNL d   1     -46.961  30.279  36.752  0.00  0.00     0.011 A 
ATOM     29 CL   UNL d   1     -47.269  29.463  37.894  0.00  0.00    -0.082 Cl
ATOM     30  C   UNL d   1     -47.018  30.409  35.941  0.00  0.00     0.002 A 
ENDBRANCH  23  24
ENDBRANCH   6  23
TORSDOF 6
ENDMDL
