MODEL 1
REMARK VINA RESULT:      93.0      0.000      0.000
REMARK  3 active torsions:
REMARK  status: ('A' for Active; 'I' for Inactive)
REMARK    1  A    between atoms: C_6  and  C_1 
REMARK    2  A    between atoms: C_2  and  C_8 
REMARK       I    between atoms: N_11  and  C_6 
REMARK    3  A    between atoms: C_12  and  N_11 
ROOT
ATOM      1  C   UNL d   1      61.370  48.526  51.733  0.00  0.00     0.054 A 
ATOM      2  C   UNL d   1      60.771  49.096  51.782  0.00  0.00     0.088 A 
ATOM      3  C   UNL d   1      61.998  48.522  52.271  0.00  0.00     0.005 A 
ATOM      4  C   UNL d   1      60.801  49.674  52.384  0.00  0.00     0.019 A 
ATOM      5  C   UNL d   1      62.028  49.100  52.873  0.00  0.00     0.000 A 
ATOM      6  C   UNL d   1      61.409  49.671  52.906  0.00  0.00     0.002 A 
ENDROOT
BRANCH   2   7
ATOM      7  N   UNL d   1      60.142  49.100  51.243  0.00  0.00    -0.207 NA
ATOM      8  C   UNL d   1      59.403  49.406  51.454  0.00  0.00     0.286 C 
ATOM      9  O   UNL d   1      59.271  49.706  52.183  0.00  0.00    -0.265 OA
BRANCH   8  10
ATOM     10  C   UNL d   1      58.778  49.401  50.893  0.00  0.00     0.098 A 
ATOM     11  S   UNL d   1      58.045  49.261  51.088  0.00  0.00    -0.081 SA
ATOM     12  C   UNL d   1      57.591  49.304  50.386  0.00  0.00     0.030 A 
ATOM     13  C   UNL d   1      56.820  49.214  50.229  0.00  0.00     0.006 A 
ATOM     14  C   UNL d   1      58.109  49.480  49.769  0.00  0.00     0.017 A 
ATOM     15  C   UNL d   1      56.543  49.296  49.450  0.00  0.00     0.001 A 
ATOM     16  C   UNL d   1      57.039  49.469  48.828  0.00  0.00     0.000 A 
ATOM     17  C   UNL d   1      57.845  49.564  48.993  0.00  0.00     0.001 A 
ATOM     18  C   UNL d   1      58.868  49.541  50.099  0.00  0.00     0.069 A 
ATOM     19 CL   UNL d   1      59.572  49.706  49.724  0.00  0.00    -0.082 Cl
ENDBRANCH   8  10
ENDBRANCH   2   7
BRANCH   1  20
ATOM     20  C   UNL d   1      61.340  47.949  51.132  0.00  0.00     0.164 A 
ATOM     21  N   UNL d   1      61.487  47.966  50.309  0.00  0.00    -0.225 NA
ATOM     22  C   UNL d   1      61.358  47.212  50.039  0.00  0.00     0.101 A 
ATOM     23  C   UNL d   1      61.419  46.911  49.285  0.00  0.00     0.021 A 
ATOM     24  C   UNL d   1      61.146  46.740  50.630  0.00  0.00     0.101 A 
ATOM     25  C   UNL d   1      61.261  46.116  49.132  0.00  0.00     0.002 A 
ATOM     26  C   UNL d   1      61.047  45.639  49.725  0.00  0.00     0.002 A 
ATOM     27  C   UNL d   1      60.988  45.944  50.477  0.00  0.00     0.021 A 
ATOM     28  N   UNL d   1      61.127  47.173  51.322  0.00  0.00    -0.225 NA
ENDBRANCH   1  20
TORSDOF 3
ENDMDL
MODEL 2
REMARK VINA RESULT:      95.6      2.039      4.915
REMARK  3 active torsions:
REMARK  status: ('A' for Active; 'I' for Inactive)
REMARK    1  A    between atoms: C_6  and  C_1 
REMARK    2  A    between atoms: C_2  and  C_8 
REMARK       I    between atoms: N_11  and  C_6 
REMARK    3  A    between atoms: C_12  and  N_11 
ROOT
ATOM      1  C   UNL d   1      57.626  49.487  50.880  0.00  0.00     0.054 A 
ATOM      2  C   UNL d   1      58.415  49.502  50.633  0.00  0.00     0.088 A 
ATOM      3  C   UNL d   1      57.009  49.439  50.331  0.00  0.00     0.005 A 
ATOM      4  C   UNL d   1      58.592  49.469  49.817  0.00  0.00     0.019 A 
ATOM      5  C   UNL d   1      57.185  49.406  49.515  0.00  0.00     0.000 A 
ATOM      6  C   UNL d   1      57.996  49.423  49.285  0.00  0.00     0.002 A 
ENDROOT
BRANCH   2   7
ATOM      7  N   UNL d   1      59.034  49.549  51.182  0.00  0.00    -0.207 NA
ATOM      8  C   UNL d   1      59.805  49.334  50.975  0.00  0.00     0.286 C 
ATOM      9  O   UNL d   1      59.979  49.073  50.239  0.00  0.00    -0.265 OA
BRANCH   8  10
ATOM     10  C   UNL d   1      60.418  49.389  51.546  0.00  0.00     0.098 A 
ATOM     11  S   UNL d   1      60.281  49.376  52.305  0.00  0.00    -0.081 SA
ATOM     12  C   UNL d   1      61.021  49.443  52.690  0.00  0.00     0.030 A 
ATOM     13  C   UNL d   1      61.240  49.462  53.451  0.00  0.00     0.006 A 
ATOM     14  C   UNL d   1      61.599  49.496  52.104  0.00  0.00     0.017 A 
ATOM     15  C   UNL d   1      62.044  49.535  53.649  0.00  0.00     0.001 A 
ATOM     16  C   UNL d   1      62.628  49.589  53.085  0.00  0.00     0.000 A 
ATOM     17  C   UNL d   1      62.399  49.569  52.290  0.00  0.00     0.001 A 
ATOM     18  C   UNL d   1      61.207  49.461  51.373  0.00  0.00     0.069 A 
ATOM     19 CL   UNL d   1      61.527  49.491  50.624  0.00  0.00    -0.082 Cl
ENDBRANCH   8  10
ENDBRANCH   2   7
BRANCH   1  20
ATOM     20  C   UNL d   1      57.450  49.519  51.695  0.00  0.00     0.164 A 
ATOM     21  N   UNL d   1      57.920  49.533  52.386  0.00  0.00    -0.225 NA
ATOM     22  C   UNL d   1      57.404  49.567  53.011  0.00  0.00     0.101 A 
ATOM     23  C   UNL d   1      57.557  49.591  53.811  0.00  0.00     0.021 A 
ATOM     24  C   UNL d   1      56.662  49.575  52.757  0.00  0.00     0.101 A 
ATOM     25  C   UNL d   1      56.941  49.625  54.358  0.00  0.00     0.002 A 
ATOM     26  C   UNL d   1      56.192  49.633  54.104  0.00  0.00     0.002 A 
ATOM     27  C   UNL d   1      56.045  49.608  53.305  0.00  0.00     0.021 A 
ATOM     28  N   UNL d   1      56.660  49.546  51.941  0.00  0.00    -0.225 NA
ENDBRANCH   1  20
TORSDOF 3
ENDMDL
