MODEL 1
REMARK VINA RESULT:      -6.1      0.000      0.000
REMARK  5 active torsions:
REMARK  status: ('A' for Active; 'I' for Inactive)
REMARK    1  A    between atoms: C_5  and  S_1 
REMARK    2  A    between atoms: C_12  and  S_1 
REMARK    3  A    between atoms: C_2  and  N_6 
REMARK    4  A    between atoms: C_13  and  C_4 
REMARK    5  A    between atoms: C_7  and  C_5 
REMARK       I    between atoms: N_6  and  C_7 
ROOT
ATOM      1  N   UNL d   1      58.128  -0.440  29.609  0.00  0.00    -0.182 NA
ATOM      2  C   UNL d   1      58.939  -0.557  29.519  0.00  0.00     0.293 C 
ATOM      3  O   UNL d   1      59.465  -0.371  30.119  0.00  0.00    -0.264 OA
ENDROOT
BRANCH   1   4
ATOM      4  C   UNL d   1      57.838  -0.131  30.313  0.00  0.00     0.197 A 
ATOM      5  N   UNL d   1      57.268  -0.493  30.805  0.00  0.00    -0.221 NA
ATOM      6  C   UNL d   1      57.135   0.008  31.459  0.00  0.00     0.090 A 
ATOM      7  C   UNL d   1      57.631   0.682  31.363  0.00  0.00     0.058 A 
ATOM      8  S   UNL d   1      58.058   0.586  30.657  0.00  0.00    -0.046 SA
BRANCH   6   9
ATOM      9  C   UNL d   1      56.614  -0.132  32.084  0.00  0.00     0.018 A 
ATOM     10  C   UNL d   1      56.243   0.495  32.447  0.00  0.00     0.004 A 
ATOM     11  C   UNL d   1      55.726   0.367  33.067  0.00  0.00     0.030 A 
ATOM     12  C   UNL d   1      55.579  -0.403  33.326  0.00  0.00     0.140 A 
ATOM     13  C   UNL d   1      55.954  -1.042  32.960  0.00  0.00     0.030 A 
ATOM     14  F   UNL d   1      55.056  -0.541  33.953  0.00  0.00    -0.204 F 
ATOM     15  C   UNL d   1      56.475  -0.902  32.335  0.00  0.00     0.004 A 
ENDBRANCH   6   9
ENDBRANCH   1   4
BRANCH   2  16
ATOM     16  C   UNL d   1      59.231  -0.868  28.808  0.00  0.00     0.161 C 
BRANCH  16  17
ATOM     17  S   UNL d   1      59.593  -1.614  28.800  0.00  0.00     0.215 S 
ATOM     18  O   UNL d   1      60.286  -1.274  29.128  0.00  0.00    -0.217 OA
ATOM     19  O   UNL d   1      58.906  -1.944  28.475  0.00  0.00    -0.217 OA
BRANCH  17  20
ATOM     20  C   UNL d   1      59.955  -2.359  28.791  0.00  0.00     0.088 A 
ATOM     21  C   UNL d   1      60.771  -2.417  28.779  0.00  0.00     0.011 A 
ATOM     22  C   UNL d   1      61.133  -3.162  28.771  0.00  0.00     0.001 A 
ATOM     23  C   UNL d   1      60.669  -3.839  28.774  0.00  0.00     0.000 A 
ATOM     24  C   UNL d   1      59.853  -3.780  28.786  0.00  0.00     0.001 A 
ATOM     25  C   UNL d   1      59.490  -3.044  28.794  0.00  0.00     0.011 A 
ENDBRANCH  17  20
ENDBRANCH  16  17
ENDBRANCH   2  16
TORSDOF 5
ENDMDL
MODEL 2
REMARK VINA RESULT:      -5.9      2.028      5.178
REMARK  5 active torsions:
REMARK  status: ('A' for Active; 'I' for Inactive)
REMARK    1  A    between atoms: C_5  and  S_1 
REMARK    2  A    between atoms: C_12  and  S_1 
REMARK    3  A    between atoms: C_2  and  N_6 
REMARK    4  A    between atoms: C_13  and  C_4 
REMARK    5  A    between atoms: C_7  and  C_5 
REMARK       I    between atoms: N_6  and  C_7 
ROOT
ATOM      1  N   UNL d   1      57.943   0.009  29.837  0.00  0.00    -0.182 NA
ATOM      2  C   UNL d   1      58.006   0.199  30.637  0.00  0.00     0.293 C 
ATOM      3  O   UNL d   1      58.637  -0.067  31.088  0.00  0.00    -0.264 OA
ENDROOT
BRANCH   1   4
ATOM      4  C   UNL d   1      58.521  -0.456  29.483  0.00  0.00     0.197 A 
ATOM      5  N   UNL d   1      58.541  -1.291  29.482  0.00  0.00    -0.221 NA
ATOM      6  C   UNL d   1      59.221  -1.533  29.062  0.00  0.00     0.090 A 
ATOM      7  C   UNL d   1      59.617  -0.836  28.805  0.00  0.00     0.058 A 
ATOM      8  S   UNL d   1      59.180  -0.181  29.069  0.00  0.00    -0.046 SA
BRANCH   6   9
ATOM      9  C   UNL d   1      59.459  -2.312  28.924  0.00  0.00     0.018 A 
ATOM     10  C   UNL d   1      58.935  -2.841  28.595  0.00  0.00     0.004 A 
ATOM     11  C   UNL d   1      59.162  -3.613  28.455  0.00  0.00     0.030 A 
ATOM     12  C   UNL d   1      59.926  -3.859  28.649  0.00  0.00     0.140 A 
ATOM     13  C   UNL d   1      60.460  -3.324  28.984  0.00  0.00     0.030 A 
ATOM     14  F   UNL d   1      60.162  -4.640  28.510  0.00  0.00    -0.204 F 
ATOM     15  C   UNL d   1      60.222  -2.545  29.121  0.00  0.00     0.004 A 
ENDBRANCH   6   9
ENDBRANCH   1   4
BRANCH   2  16
ATOM     16  C   UNL d   1      57.423   0.667  30.994  0.00  0.00     0.161 C 
BRANCH  16  17
ATOM     17  S   UNL d   1      56.963   0.359  31.610  0.00  0.00     0.215 S 
ATOM     18  O   UNL d   1      57.600   0.487  32.141  0.00  0.00    -0.217 OA
ATOM     19  O   UNL d   1      56.338   0.235  31.081  0.00  0.00    -0.217 OA
BRANCH  17  20
ATOM     20  C   UNL d   1      56.503   0.051  32.227  0.00  0.00     0.088 A 
ATOM     21  C   UNL d   1      56.407  -0.758  32.302  0.00  0.00     0.011 A 
ATOM     22  C   UNL d   1      55.947  -1.066  32.918  0.00  0.00     0.001 A 
ATOM     23  C   UNL d   1      55.590  -0.554  33.451  0.00  0.00     0.000 A 
ATOM     24  C   UNL d   1      55.686   0.255  33.376  0.00  0.00     0.001 A 
ATOM     25  C   UNL d   1      56.141   0.564  32.767  0.00  0.00     0.011 A 
ENDBRANCH  17  20
ENDBRANCH  16  17
ENDBRANCH   2  16
TORSDOF 5
ENDMDL
