MODEL 1
REMARK VINA RESULT:      -7.9      0.000      0.000
REMARK  5 active torsions:
REMARK  status: ('A' for Active; 'I' for Inactive)
REMARK    1  A    between atoms: N_5  and  C_1 
REMARK       I    between atoms: C_9  and  N_5 
REMARK    2  A    between atoms: C_17  and  C_9 
REMARK    3  A    between atoms: C_12  and  C_10 
REMARK    4  A    between atoms: C_11  and  S_13 
REMARK    5  A    between atoms: S_13  and  C_17 
ROOT
ATOM      1  N   UNL d   1      52.386  34.381  53.102  0.00  0.00    -0.148 NA
ATOM      2  N   UNL d   1      51.648  34.627  52.828  0.00  0.00    -0.141 NA
ATOM      3  C   UNL d   1      52.464  33.651  53.486  0.00  0.00     0.104 A 
ATOM      4  C   UNL d   1      50.986  34.155  52.930  0.00  0.00     0.133 A 
ATOM      5  C   UNL d   1      51.798  33.172  53.591  0.00  0.00     0.023 A 
ATOM      6  C   UNL d   1      51.063  33.420  53.316  0.00  0.00     0.029 A 
ENDROOT
BRANCH   4   7
ATOM      7  S   UNL d   1      50.248  34.401  52.656  0.00  0.00    -0.061 SA
BRANCH   7   8
ATOM      8  C   UNL d   1      49.784  34.905  53.108  0.00  0.00     0.099 C 
BRANCH   8   9
ATOM      9  C   UNL d   1      49.067  35.183  52.803  0.00  0.00     0.288 C 
ATOM     10  N   UNL d   1      48.658  35.778  53.198  0.00  0.00    -0.181 NA
ATOM     11  O   UNL d   1      48.764  34.867  52.108  0.00  0.00    -0.265 OA
BRANCH  10  12
ATOM     12  C   UNL d   1      47.949  36.056  52.899  0.00  0.00     0.219 A 
ATOM     13  S   UNL d   1      47.243  36.149  53.323  0.00  0.00    -0.026 SA
ATOM     14  C   UNL d   1      46.679  36.439  52.812  0.00  0.00     0.135 A 
ATOM     15  C   UNL d   1      45.893  36.614  53.004  0.00  0.00     0.030 C 
ATOM     16  N   UNL d   1      47.026  36.528  52.071  0.00  0.00    -0.139 NA
ATOM     17  N   UNL d   1      47.812  36.291  52.123  0.00  0.00    -0.121 NA
ENDBRANCH  10  12
ENDBRANCH   8   9
ENDBRANCH   7   8
ENDBRANCH   4   7
BRANCH   3  18
ATOM     18  C   UNL d   1      53.202  33.405  53.761  0.00  0.00     0.039 A 
ATOM     19  C   UNL d   1      53.666  32.925  53.295  0.00  0.00     0.101 A 
ATOM     20  N   UNL d   1      54.399  32.678  53.563  0.00  0.00    -0.242 NA
ATOM     21  C   UNL d   1      54.667  32.920  54.313  0.00  0.00     0.099 A 
ATOM     22  C   UNL d   1      54.197  33.402  54.777  0.00  0.00     0.021 A 
ATOM     23  C   UNL d   1      53.457  33.653  54.511  0.00  0.00     0.005 A 
ENDBRANCH   3  18
TORSDOF 5
ENDMDL
MODEL 2
REMARK VINA RESULT:      -7.0      1.428      6.001
REMARK  5 active torsions:
REMARK  status: ('A' for Active; 'I' for Inactive)
REMARK    1  A    between atoms: N_5  and  C_1 
REMARK       I    between atoms: C_9  and  N_5 
REMARK    2  A    between atoms: C_17  and  C_9 
REMARK    3  A    between atoms: C_12  and  C_10 
REMARK    4  A    between atoms: C_11  and  S_13 
REMARK    5  A    between atoms: S_13  and  C_17 
ROOT
ATOM      1  N   UNL d   1      48.891  35.269  53.017  0.00  0.00    -0.148 NA
ATOM      2  N   UNL d   1      49.604  34.877  53.152  0.00  0.00    -0.141 NA
ATOM      3  C   UNL d   1      48.542  35.250  52.265  0.00  0.00     0.104 A 
ATOM      4  C   UNL d   1      49.974  34.465  52.548  0.00  0.00     0.133 A 
ATOM      5  C   UNL d   1      48.913  34.835  51.654  0.00  0.00     0.023 A 
ATOM      6  C   UNL d   1      49.624  34.444  51.792  0.00  0.00     0.029 A 
ENDROOT
BRANCH   4   7
ATOM      7  S   UNL d   1      50.687  34.073  52.683  0.00  0.00    -0.061 SA
BRANCH   7   8
ATOM      8  C   UNL d   1      51.291  34.440  53.100  0.00  0.00     0.099 C 
BRANCH   8   9
ATOM      9  C   UNL d   1      51.942  33.996  53.352  0.00  0.00     0.288 C 
ATOM     10  N   UNL d   1      52.623  34.380  53.610  0.00  0.00    -0.181 NA
ATOM     11  O   UNL d   1      51.910  33.176  53.344  0.00  0.00    -0.265 OA
BRANCH  10  12
ATOM     12  C   UNL d   1      53.269  33.944  53.859  0.00  0.00     0.219 A 
ATOM     13  S   UNL d   1      53.618  33.974  54.610  0.00  0.00    -0.026 SA
ATOM     14  C   UNL d   1      54.243  33.451  54.618  0.00  0.00     0.135 A 
ATOM     15  C   UNL d   1      54.746  33.304  55.259  0.00  0.00     0.030 C 
ATOM     16  N   UNL d   1      54.289  33.095  53.878  0.00  0.00    -0.139 NA
ATOM     17  N   UNL d   1      53.687  33.399  53.406  0.00  0.00    -0.121 NA
ENDBRANCH  10  12
ENDBRANCH   8   9
ENDBRANCH   7   8
ENDBRANCH   4   7
BRANCH   3  18
ATOM     18  C   UNL d   1      47.829  35.642  52.131  0.00  0.00     0.039 A 
ATOM     19  C   UNL d   1      47.654  36.317  52.552  0.00  0.00     0.101 A 
ATOM     20  N   UNL d   1      46.948  36.709  52.421  0.00  0.00    -0.242 NA
ATOM     21  C   UNL d   1      46.410  36.417  51.858  0.00  0.00     0.099 A 
ATOM     22  C   UNL d   1      46.590  35.739  51.437  0.00  0.00     0.021 A 
ATOM     23  C   UNL d   1      47.302  35.339  51.565  0.00  0.00     0.005 A 
ENDBRANCH   3  18
TORSDOF 5
ENDMDL
MODEL 3
REMARK VINA RESULT:      -6.6      2.028      6.020
REMARK  5 active torsions:
REMARK  status: ('A' for Active; 'I' for Inactive)
REMARK    1  A    between atoms: N_5  and  C_1 
REMARK       I    between atoms: C_9  and  N_5 
REMARK    2  A    between atoms: C_17  and  C_9 
REMARK    3  A    between atoms: C_12  and  C_10 
REMARK    4  A    between atoms: C_11  and  S_13 
REMARK    5  A    between atoms: S_13  and  C_17 
ROOT
ATOM      1  N   UNL d   1      49.779  34.550  51.627  0.00  0.00    -0.148 NA
ATOM      2  N   UNL d   1      50.511  34.270  51.887  0.00  0.00    -0.141 NA
ATOM      3  C   UNL d   1      49.239  34.866  52.170  0.00  0.00     0.104 A 
ATOM      4  C   UNL d   1      50.711  34.301  52.680  0.00  0.00     0.133 A 
ATOM      5  C   UNL d   1      49.439  34.899  52.972  0.00  0.00     0.023 A 
ATOM      6  C   UNL d   1      50.169  34.619  53.228  0.00  0.00     0.029 A 
ENDROOT
BRANCH   4   7
ATOM      7  S   UNL d   1      51.443  34.021  52.939  0.00  0.00    -0.061 SA
BRANCH   7   8
ATOM      8  C   UNL d   1      51.822  33.415  52.536  0.00  0.00     0.099 C 
BRANCH   8   9
ATOM      9  C   UNL d   1      52.267  32.861  52.958  0.00  0.00     0.288 C 
ATOM     10  N   UNL d   1      52.516  32.169  52.589  0.00  0.00    -0.181 NA
ATOM     11  O   UNL d   1      52.461  32.999  53.745  0.00  0.00    -0.265 OA
BRANCH  10  12
ATOM     12  C   UNL d   1      52.957  31.618  53.003  0.00  0.00     0.219 A 
ATOM     13  S   UNL d   1      52.758  30.822  53.120  0.00  0.00    -0.026 SA
ATOM     14  C   UNL d   1      53.350  30.477  53.561  0.00  0.00     0.135 A 
ATOM     15  C   UNL d   1      53.377  29.688  53.806  0.00  0.00     0.030 C 
ATOM     16  N   UNL d   1      53.918  31.052  53.722  0.00  0.00    -0.139 NA
ATOM     17  N   UNL d   1      53.675  31.759  53.377  0.00  0.00    -0.121 NA
ENDBRANCH  10  12
ENDBRANCH   8   9
ENDBRANCH   7   8
ENDBRANCH   4   7
BRANCH   3  18
ATOM     18  C   UNL d   1      48.507  35.146  51.911  0.00  0.00     0.039 A 
ATOM     19  C   UNL d   1      48.164  34.823  51.247  0.00  0.00     0.101 A 
ATOM     20  N   UNL d   1      47.439  35.097  50.986  0.00  0.00    -0.242 NA
ATOM     21  C   UNL d   1      47.054  35.707  51.401  0.00  0.00     0.099 A 
ATOM     22  C   UNL d   1      47.402  36.029  52.068  0.00  0.00     0.021 A 
ATOM     23  C   UNL d   1      48.134  35.755  52.335  0.00  0.00     0.005 A 
ENDBRANCH   3  18
TORSDOF 5
ENDMDL
MODEL 4
REMARK VINA RESULT:      -5.2     10.311     11.261
REMARK  5 active torsions:
REMARK  status: ('A' for Active; 'I' for Inactive)
REMARK    1  A    between atoms: N_5  and  C_1 
REMARK       I    between atoms: C_9  and  N_5 
REMARK    2  A    between atoms: C_17  and  C_9 
REMARK    3  A    between atoms: C_12  and  C_10 
REMARK    4  A    between atoms: C_11  and  S_13 
REMARK    5  A    between atoms: S_13  and  C_17 
ROOT
ATOM      1  N   UNL d   1      45.403  29.127  58.251  0.00  0.00    -0.148 NA
ATOM      2  N   UNL d   1      45.542  28.434  57.826  0.00  0.00    -0.141 NA
ATOM      3  C   UNL d   1      44.869  29.126  58.885  0.00  0.00     0.104 A 
ATOM      4  C   UNL d   1      45.158  27.739  58.025  0.00  0.00     0.133 A 
ATOM      5  C   UNL d   1      44.480  28.425  59.088  0.00  0.00     0.023 A 
ATOM      6  C   UNL d   1      44.621  27.735  58.663  0.00  0.00     0.029 A 
ENDROOT
BRANCH   4   7
ATOM      7  S   UNL d   1      45.298  27.045  57.600  0.00  0.00    -0.061 SA
BRANCH   7   8
ATOM      8  C   UNL d   1      44.728  26.749  57.089  0.00  0.00     0.099 C 
BRANCH   8   9
ATOM      9  C   UNL d   1      44.916  26.119  56.589  0.00  0.00     0.288 C 
ATOM     10  N   UNL d   1      44.386  25.496  56.499  0.00  0.00    -0.181 NA
ATOM     11  O   UNL d   1      45.630  26.113  56.183  0.00  0.00    -0.265 OA
BRANCH  10  12
ATOM     12  C   UNL d   1      44.569  24.870  56.005  0.00  0.00     0.219 A 
ATOM     13  S   UNL d   1      44.388  24.816  55.198  0.00  0.00    -0.026 SA
ATOM     14  C   UNL d   1      44.672  24.102  54.924  0.00  0.00     0.135 A 
ATOM     15  C   UNL d   1      44.612  23.821  54.148  0.00  0.00     0.030 C 
ATOM     16  N   UNL d   1      45.028  23.709  55.553  0.00  0.00    -0.139 NA
ATOM     17  N   UNL d   1      44.966  24.183  56.223  0.00  0.00    -0.121 NA
ENDBRANCH  10  12
ENDBRANCH   8   9
ENDBRANCH   7   8
ENDBRANCH   4   7
BRANCH   3  18
ATOM     18  C   UNL d   1      44.730  29.819  59.310  0.00  0.00     0.039 A 
ATOM     19  C   UNL d   1      44.455  30.480  58.923  0.00  0.00     0.101 A 
ATOM     20  N   UNL d   1      44.315  31.170  59.340  0.00  0.00    -0.242 NA
ATOM     21  C   UNL d   1      44.454  31.193  60.160  0.00  0.00     0.099 A 
ATOM     22  C   UNL d   1      44.731  30.526  60.545  0.00  0.00     0.021 A 
ATOM     23  C   UNL d   1      44.873  29.828  60.128  0.00  0.00     0.005 A 
ENDBRANCH   3  18
TORSDOF 5
ENDMDL
