MODEL 1
REMARK VINA RESULT:     116.0      0.000      0.000
REMARK  7 active torsions:
REMARK  status: ('A' for Active; 'I' for Inactive)
REMARK    1  A    between atoms: S_3  and  C_1 
REMARK    2  A    between atoms: C_10  and  S_3 
REMARK    3  A    between atoms: N_11  and  C_4 
REMARK    4  A    between atoms: C_9  and  C_5 
REMARK    5  A    between atoms: C_20  and  N_11 
REMARK    6  A    between atoms: C_22  and  C_20 
REMARK    7  A    between atoms: C_23  and  C_22 
ROOT
ATOM      1  C   UNL d   1      61.471  44.379  50.920  0.00  0.00     0.042 A 
ATOM      2  C   UNL d   1      61.326  43.786  51.469  0.00  0.00     0.006 A 
ATOM      3  C   UNL d   1      62.032  44.272  50.319  0.00  0.00     0.006 A 
ATOM      4  C   UNL d   1      62.310  42.952  50.825  0.00  0.00     0.094 A 
ATOM      5  C   UNL d   1      62.454  43.564  50.264  0.00  0.00     0.024 A 
ATOM      6  C   UNL d   1      61.745  43.071  51.423  0.00  0.00     0.024 A 
ATOM      7  O   UNL d   1      62.731  42.239  50.775  0.00  0.00    -0.328 OA
ATOM      8  C   UNL d   1      63.155  41.507  50.733  0.00  0.00     0.181 C 
ENDROOT
BRANCH   1   9
ATOM      9  C   UNL d   1      61.057  45.094  50.960  0.00  0.00     0.185 A 
ATOM     10  N   UNL d   1      61.432  45.824  50.908  0.00  0.00    -0.207 NA
ATOM     11  C   UNL d   1      60.856  46.413  50.969  0.00  0.00     0.212 A 
ATOM     12  C   UNL d   1      60.134  46.037  51.058  0.00  0.00     0.213 A 
ATOM     13  O   UNL d   1      60.246  45.232  51.054  0.00  0.00    -0.269 OA
BRANCH  11  14
ATOM     14  S   UNL d   1      60.866  47.252  50.958  0.00  0.00     0.230 S 
ATOM     15  O   UNL d   1      61.189  46.957  50.160  0.00  0.00    -0.215 OA
ATOM     16  O   UNL d   1      60.563  47.555  51.709  0.00  0.00    -0.215 OA
BRANCH  14  17
ATOM     17  C   UNL d   1      60.876  48.073  50.949  0.00  0.00     0.090 A 
ATOM     18  C   UNL d   1      60.875  48.487  51.653  0.00  0.00     0.011 A 
ATOM     19  C   UNL d   1      60.885  49.304  51.647  0.00  0.00     0.001 A 
ATOM     20  C   UNL d   1      60.896  49.707  50.937  0.00  0.00     0.000 A 
ATOM     21  C   UNL d   1      60.896  49.293  50.224  0.00  0.00     0.001 A 
ATOM     22  C   UNL d   1      60.887  48.477  50.230  0.00  0.00     0.011 A 
ENDBRANCH  14  17
ENDBRANCH  11  14
BRANCH  12  23
ATOM     23  N   UNL d   1      59.420  46.456  51.136  0.00  0.00    -0.219 NA
BRANCH  23  24
ATOM     24  C   UNL d   1      58.632  46.294  50.990  0.00  0.00     0.101 C 
BRANCH  24  25
ATOM     25  C   UNL d   1      58.250  47.019  51.039  0.00  0.00     0.021 C 
BRANCH  25  26
ATOM     26  C   UNL d   1      57.618  47.194  50.522  0.00  0.00     0.002 C 
ATOM     27  C   UNL d   1      57.096  47.818  50.688  0.00  0.00     0.000 C 
ENDBRANCH  25  26
ENDBRANCH  24  25
ENDBRANCH  23  24
ENDBRANCH  12  23
ENDBRANCH   1   9
TORSDOF 7
ENDMDL
MODEL 2
REMARK VINA RESULT:     116.3      1.692      4.976
REMARK  7 active torsions:
REMARK  status: ('A' for Active; 'I' for Inactive)
REMARK    1  A    between atoms: S_3  and  C_1 
REMARK    2  A    between atoms: C_10  and  S_3 
REMARK    3  A    between atoms: N_11  and  C_4 
REMARK    4  A    between atoms: C_9  and  C_5 
REMARK    5  A    between atoms: C_20  and  N_11 
REMARK    6  A    between atoms: C_22  and  C_20 
REMARK    7  A    between atoms: C_23  and  C_22 
ROOT
ATOM      1  C   UNL d   1      61.011  46.471  50.819  0.00  0.00     0.042 A 
ATOM      2  C   UNL d   1      61.087  47.040  50.232  0.00  0.00     0.006 A 
ATOM      3  C   UNL d   1      60.881  46.692  51.607  0.00  0.00     0.006 A 
ATOM      4  C   UNL d   1      60.903  48.078  51.215  0.00  0.00     0.094 A 
ATOM      5  C   UNL d   1      60.826  47.490  51.814  0.00  0.00     0.024 A 
ATOM      6  C   UNL d   1      61.034  47.845  50.428  0.00  0.00     0.024 A 
ATOM      7  O   UNL d   1      60.849  48.881  51.416  0.00  0.00    -0.328 OA
ATOM      8  C   UNL d   1      60.796  49.704  51.610  0.00  0.00     0.181 C 
ENDROOT
BRANCH   1   9
ATOM      9  C   UNL d   1      61.063  45.668  50.630  0.00  0.00     0.185 A 
ATOM     10  N   UNL d   1      61.608  45.166  50.987  0.00  0.00    -0.207 NA
ATOM     11  C   UNL d   1      61.506  44.410  50.669  0.00  0.00     0.212 A 
ATOM     12  C   UNL d   1      60.899  44.457  50.122  0.00  0.00     0.213 A 
ATOM     13  O   UNL d   1      60.622  45.221  50.090  0.00  0.00    -0.269 OA
BRANCH  11  14
ATOM     14  S   UNL d   1      61.873  43.665  50.789  0.00  0.00     0.230 S 
ATOM     15  O   UNL d   1      61.310  43.816  51.488  0.00  0.00    -0.215 OA
ATOM     16  O   UNL d   1      62.415  43.501  50.135  0.00  0.00    -0.215 OA
BRANCH  14  17
ATOM     17  C   UNL d   1      62.233  42.936  50.906  0.00  0.00     0.090 A 
ATOM     18  C   UNL d   1      62.033  42.484  51.555  0.00  0.00     0.011 A 
ATOM     19  C   UNL d   1      62.389  41.758  51.674  0.00  0.00     0.001 A 
ATOM     20  C   UNL d   1      62.947  41.485  51.142  0.00  0.00     0.000 A 
ATOM     21  C   UNL d   1      63.152  41.939  50.486  0.00  0.00     0.001 A 
ATOM     22  C   UNL d   1      62.796  42.664  50.367  0.00  0.00     0.011 A 
ENDBRANCH  14  17
ENDBRANCH  11  14
BRANCH  12  23
ATOM     23  N   UNL d   1      60.639  43.799  49.687  0.00  0.00    -0.219 NA
BRANCH  23  24
ATOM     24  C   UNL d   1      60.323  43.682  48.941  0.00  0.00     0.101 C 
BRANCH  24  25
ATOM     25  C   UNL d   1      59.974  42.939  48.968  0.00  0.00     0.021 C 
BRANCH  25  26
ATOM     26  C   UNL d   1      59.154  42.857  48.833  0.00  0.00     0.002 C 
ATOM     27  C   UNL d   1      58.631  43.474  49.023  0.00  0.00     0.000 C 
ENDBRANCH  25  26
ENDBRANCH  24  25
ENDBRANCH  23  24
ENDBRANCH  12  23
ENDBRANCH   1   9
TORSDOF 7
ENDMDL
