MODEL 1
REMARK VINA RESULT:      72.0      0.000      0.000
REMARK  7 active torsions:
REMARK  status: ('A' for Active; 'I' for Inactive)
REMARK    1  A    between atoms: N_3  and  S_1 
REMARK    2  A    between atoms: C_6  and  S_1 
REMARK    3  A    between atoms: N_2  and  C_5 
REMARK    4  A    between atoms: C_4  and  N_3 
REMARK    5  A    between atoms: C_5  and  C_4 
REMARK    6  A    between atoms: C_10  and  C_5 
REMARK    7  A    between atoms: C_22  and  N_7 
ROOT
ATOM      1  C   UNL d   1     -58.098 -98.909 -43.484  0.00  0.00     0.086 C 
ENDROOT
BRANCH   1   2
ATOM      2  N   UNL d   1     -58.559 -98.931 -42.798  0.00  0.00    -0.300 N 
ATOM      3  C   UNL d   1     -58.219 -98.758 -42.071  0.00  0.00     0.100 A 
ATOM      4  C   UNL d   1     -58.676 -98.779 -41.381  0.00  0.00     0.100 A 
ATOM      5  N   UNL d   1     -59.475 -98.975 -41.426  0.00  0.00    -0.300 N 
ATOM      6  C   UNL d   1     -59.815 -99.149 -42.160  0.00  0.00     0.100 A 
ATOM      7  C   UNL d   1     -59.359 -99.127 -42.843  0.00  0.00     0.100 A 
BRANCH   5   8
ATOM      8  C   UNL d   1     -59.940 -98.998 -40.740  0.00  0.00     0.080 C 
ATOM      9  C   UNL d   1     -59.957 -99.684 -40.276  0.00  0.00     0.021 C 
ENDBRANCH   5   8
ENDBRANCH   1   2
BRANCH   1  10
ATOM     10  C   UNL d   1     -57.272 -98.937 -43.430  0.00  0.00     0.130 C 
BRANCH  10  11
ATOM     11  N   UNL d   1     -56.867 -99.612 -43.685  0.00  0.00    -0.155 NA
BRANCH  11  12
ATOM     12  S   UNL d   1     -56.083 -99.555 -43.925  0.00  0.00     0.285 S 
ATOM     13  O   UNL d   1     -55.296 -99.496 -44.165  0.00  0.00    -0.198 OA
ATOM     14  O   UNL d   1     -56.069 -98.758 -43.680  0.00  0.00    -0.198 OA
BRANCH  12  15
ATOM     15  C   UNL d   1     -56.103-100.351 -44.168  0.00  0.00     0.105 A 
ATOM     16  C   UNL d   1     -56.795-100.791 -44.092  0.00  0.00     0.013 A 
ATOM     17  C   UNL d   1     -56.812-101.576 -44.332  0.00  0.00     0.001 A 
ATOM     18  C   UNL d   1     -56.135-101.925 -44.650  0.00  0.00     0.000 A 
ATOM     19  C   UNL d   1     -55.443-101.485 -44.726  0.00  0.00     0.001 A 
ATOM     20  C   UNL d   1     -56.150-102.722 -44.895  0.00  0.00     0.000 C 
ATOM     21  C   UNL d   1     -55.427-100.700 -44.486  0.00  0.00     0.013 A 
ENDBRANCH  12  15
ENDBRANCH  11  12
ENDBRANCH  10  11
ENDBRANCH   1  10
BRANCH   1  22
ATOM     22  C   UNL d   1     -58.463 -98.858 -44.230  0.00  0.00     0.037 A 
ATOM     23  C   UNL d   1     -59.288 -98.828 -44.283  0.00  0.00     0.100 A 
ATOM     24  N   UNL d   1     -59.649 -98.778 -45.022  0.00  0.00    -0.242 NA
ATOM     25  C   UNL d   1     -59.183 -98.757 -45.707  0.00  0.00     0.099 A 
ATOM     26  C   UNL d   1     -58.364 -98.787 -45.649  0.00  0.00     0.021 A 
ATOM     27  C   UNL d   1     -58.004 -98.837 -44.911  0.00  0.00     0.005 A 
ENDBRANCH   1  22
TORSDOF 7
ENDMDL
