MODEL 1
REMARK VINA RESULT:      -3.2      0.000      0.000
REMARK  2 active torsions:
REMARK  status: ('A' for Active; 'I' for Inactive)
REMARK    1  A    between atoms: N_2  and  S_1 
REMARK    2  A    between atoms: C_3  and  S_1 
ROOT
ATOM      1  S   UNL d   1      57.241  -0.672  31.456  0.00  0.00     0.274 S 
ATOM      2  O   UNL d   1      57.853  -0.904  31.972  0.00  0.00    -0.200 OA
ATOM      3  O   UNL d   1      56.636  -0.438  30.936  0.00  0.00    -0.200 OA
ENDROOT
BRANCH   1   4
ATOM      4  N   UNL d   1      56.677  -0.972  31.991  0.00  0.00    -0.212 N 
ATOM      5  C   UNL d   1      56.332  -1.710  32.072  0.00  0.00     0.193 A 
ATOM      6  N   UNL d   1      55.802  -1.680  32.713  0.00  0.00    -0.223 NA
ATOM      7  C   UNL d   1      55.828  -0.909  33.024  0.00  0.00     0.100 A 
ATOM      8  C   UNL d   1      56.366  -0.486  32.575  0.00  0.00     0.094 A 
ATOM      9  C   UNL d   1      55.427  -0.560  33.654  0.00  0.00     0.021 A 
ATOM     10  C   UNL d   1      56.510   0.319  32.761  0.00  0.00     0.020 A 
ATOM     11  C   UNL d   1      56.109   0.682  33.397  0.00  0.00     0.002 A 
ATOM     12  C   UNL d   1      55.569   0.227  33.835  0.00  0.00     0.002 A 
ENDBRANCH   1   4
BRANCH   1  13
ATOM     13  C   UNL d   1      57.810  -0.375  30.926  0.00  0.00     0.122 A 
ATOM     14  C   UNL d   1      58.103  -0.847  30.330  0.00  0.00     0.093 A 
ATOM     15  N   UNL d   1      57.837  -1.624  30.246  0.00  0.00    -0.243 NA
ATOM     16  C   UNL d   1      58.672  -0.550  29.801  0.00  0.00     0.018 A 
ATOM     17  C   UNL d   1      58.130  -2.093  29.651  0.00  0.00     0.099 A 
ATOM     18  C   UNL d   1      58.702  -1.813  29.108  0.00  0.00     0.021 A 
ATOM     19  C   UNL d   1      58.964  -1.040  29.195  0.00  0.00     0.003 A 
ATOM     20  C   UNL d   1      58.938   0.207  29.873  0.00  0.00     0.002 A 
ATOM     21  C   UNL d   1      58.649   0.681  30.467  0.00  0.00     0.001 A 
ATOM     22  C   UNL d   1      58.077   0.400  31.007  0.00  0.00     0.014 A 
ENDBRANCH   1  13
TORSDOF 2
ENDMDL
MODEL 2
REMARK VINA RESULT:      -2.8      1.060      1.848
REMARK  2 active torsions:
REMARK  status: ('A' for Active; 'I' for Inactive)
REMARK    1  A    between atoms: N_2  and  S_1 
REMARK    2  A    between atoms: C_3  and  S_1 
ROOT
ATOM      1  S   UNL d   1      57.862  -0.257  30.979  0.00  0.00     0.274 S 
ATOM      2  O   UNL d   1      58.423  -0.702  31.405  0.00  0.00    -0.200 OA
ATOM      3  O   UNL d   1      57.304   0.185  30.549  0.00  0.00    -0.200 OA
ENDROOT
BRANCH   1   4
ATOM      4  N   UNL d   1      57.535   0.014  31.696  0.00  0.00    -0.212 N 
ATOM      5  C   UNL d   1      57.675   0.682  32.148  0.00  0.00     0.193 A 
ATOM      6  N   UNL d   1      57.177   0.655  32.814  0.00  0.00    -0.223 NA
ATOM      7  C   UNL d   1      56.727  -0.042  32.763  0.00  0.00     0.100 A 
ATOM      8  C   UNL d   1      56.955  -0.425  32.076  0.00  0.00     0.094 A 
ATOM      9  C   UNL d   1      56.150  -0.359  33.258  0.00  0.00     0.021 A 
ATOM     10  C   UNL d   1      56.591  -1.154  31.875  0.00  0.00     0.020 A 
ATOM     11  C   UNL d   1      56.005  -1.482  32.371  0.00  0.00     0.002 A 
ATOM     12  C   UNL d   1      55.795  -1.070  33.061  0.00  0.00     0.002 A 
ENDBRANCH   1   4
BRANCH   1  13
ATOM     13  C   UNL d   1      58.193  -0.532  30.268  0.00  0.00     0.122 A 
ATOM     14  C   UNL d   1      58.894  -0.221  29.993  0.00  0.00     0.093 A 
ATOM     15  N   UNL d   1      59.282   0.371  30.419  0.00  0.00    -0.243 NA
ATOM     16  C   UNL d   1      59.226  -0.496  29.281  0.00  0.00     0.018 A 
ATOM     17  C   UNL d   1      59.981   0.681  30.144  0.00  0.00     0.099 A 
ATOM     18  C   UNL d   1      60.330   0.417  29.430  0.00  0.00     0.021 A 
ATOM     19  C   UNL d   1      59.942  -0.171  29.010  0.00  0.00     0.003 A 
ATOM     20  C   UNL d   1      58.856  -1.072  28.857  0.00  0.00     0.002 A 
ATOM     21  C   UNL d   1      58.156  -1.387  29.127  0.00  0.00     0.001 A 
ATOM     22  C   UNL d   1      57.809  -1.122  29.840  0.00  0.00     0.014 A 
ENDBRANCH   1  13
TORSDOF 2
ENDMDL
MODEL 3
REMARK VINA RESULT:      -2.8      1.102      3.750
REMARK  2 active torsions:
REMARK  status: ('A' for Active; 'I' for Inactive)
REMARK    1  A    between atoms: N_2  and  S_1 
REMARK    2  A    between atoms: C_3  and  S_1 
ROOT
ATOM      1  S   UNL d   1      57.703   0.081  31.299  0.00  0.00     0.274 S 
ATOM      2  O   UNL d   1      57.158   0.682  31.110  0.00  0.00    -0.200 OA
ATOM      3  O   UNL d   1      58.245  -0.519  31.494  0.00  0.00    -0.200 OA
ENDROOT
BRANCH   1   4
ATOM      4  N   UNL d   1      57.952   0.058  30.504  0.00  0.00    -0.212 N 
ATOM      5  C   UNL d   1      57.564  -0.139  29.810  0.00  0.00     0.193 A 
ATOM      6  N   UNL d   1      58.100  -0.058  29.180  0.00  0.00    -0.223 NA
ATOM      7  C   UNL d   1      58.827   0.193  29.499  0.00  0.00     0.100 A 
ATOM      8  C   UNL d   1      58.723   0.260  30.308  0.00  0.00     0.094 A 
ATOM      9  C   UNL d   1      59.551   0.362  29.144  0.00  0.00     0.021 A 
ATOM     10  C   UNL d   1      59.370   0.506  30.784  0.00  0.00     0.020 A 
ATOM     11  C   UNL d   1      60.107   0.679  30.433  0.00  0.00     0.002 A 
ATOM     12  C   UNL d   1      60.181   0.602  29.609  0.00  0.00     0.002 A 
ENDBRANCH   1   4
BRANCH   1  13
ATOM     13  C   UNL d   1      57.450   0.109  32.091  0.00  0.00     0.122 A 
ATOM     14  C   UNL d   1      56.885  -0.412  32.361  0.00  0.00     0.093 A 
ATOM     15  N   UNL d   1      56.559  -0.973  31.850  0.00  0.00    -0.243 NA
ATOM     16  C   UNL d   1      56.632  -0.384  33.153  0.00  0.00     0.018 A 
ATOM     17  C   UNL d   1      55.995  -1.492  32.121  0.00  0.00     0.099 A 
ATOM     18  C   UNL d   1      55.727  -1.480  32.914  0.00  0.00     0.021 A 
ATOM     19  C   UNL d   1      56.055  -0.920  33.418  0.00  0.00     0.003 A 
ATOM     20  C   UNL d   1      56.943   0.160  33.659  0.00  0.00     0.002 A 
ATOM     21  C   UNL d   1      57.508   0.682  33.395  0.00  0.00     0.001 A 
ATOM     22  C   UNL d   1      57.773   0.668  32.603  0.00  0.00     0.014 A 
ENDBRANCH   1  13
TORSDOF 2
ENDMDL
MODEL 4
REMARK VINA RESULT:      -2.6      0.752      1.042
REMARK  2 active torsions:
REMARK  status: ('A' for Active; 'I' for Inactive)
REMARK    1  A    between atoms: N_2  and  S_1 
REMARK    2  A    between atoms: C_3  and  S_1 
ROOT
ATOM      1  S   UNL d   1      57.686  -0.543  30.791  0.00  0.00     0.274 S 
ATOM      2  O   UNL d   1      57.041  -0.273  30.337  0.00  0.00    -0.200 OA
ATOM      3  O   UNL d   1      58.333  -0.811  31.238  0.00  0.00    -0.200 OA
ENDROOT
BRANCH   1   4
ATOM      4  N   UNL d   1      57.163  -0.764  31.401  0.00  0.00    -0.212 N 
ATOM      5  C   UNL d   1      56.619  -1.372  31.468  0.00  0.00     0.193 A 
ATOM      6  N   UNL d   1      56.254  -1.314  32.213  0.00  0.00    -0.223 NA
ATOM      7  C   UNL d   1      56.584  -0.658  32.604  0.00  0.00     0.100 A 
ATOM      8  C   UNL d   1      57.138  -0.330  32.098  0.00  0.00     0.094 A 
ATOM      9  C   UNL d   1      56.440  -0.335  33.348  0.00  0.00     0.021 A 
ATOM     10  C   UNL d   1      57.566   0.348  32.345  0.00  0.00     0.020 A 
ATOM     11  C   UNL d   1      57.427   0.682  33.097  0.00  0.00     0.002 A 
ATOM     12  C   UNL d   1      56.859   0.327  33.588  0.00  0.00     0.002 A 
ENDBRANCH   1   4
BRANCH   1  13
ATOM     13  C   UNL d   1      58.201  -0.321  30.177  0.00  0.00     0.122 A 
ATOM     14  C   UNL d   1      58.517  -0.883  29.680  0.00  0.00     0.093 A 
ATOM     15  N   UNL d   1      58.326  -1.681  29.780  0.00  0.00    -0.243 NA
ATOM     16  C   UNL d   1      59.032  -0.661  29.066  0.00  0.00     0.018 A 
ATOM     17  C   UNL d   1      58.641  -2.241  29.284  0.00  0.00     0.099 A 
ATOM     18  C   UNL d   1      59.162  -2.037  28.661  0.00  0.00     0.021 A 
ATOM     19  C   UNL d   1      59.348  -1.243  28.564  0.00  0.00     0.003 A 
ATOM     20  C   UNL d   1      59.224   0.114  28.959  0.00  0.00     0.002 A 
ATOM     21  C   UNL d   1      58.913   0.680  29.453  0.00  0.00     0.001 A 
ATOM     22  C   UNL d   1      58.393   0.474  30.074  0.00  0.00     0.014 A 
ENDBRANCH   1  13
TORSDOF 2
ENDMDL
MODEL 5
REMARK VINA RESULT:      -2.0      1.061      3.930
REMARK  2 active torsions:
REMARK  status: ('A' for Active; 'I' for Inactive)
REMARK    1  A    between atoms: N_2  and  S_1 
REMARK    2  A    between atoms: C_3  and  S_1 
ROOT
ATOM      1  S   UNL d   1      56.975  -0.242  32.564  0.00  0.00     0.274 S 
ATOM      2  O   UNL d   1      57.031  -1.006  32.892  0.00  0.00    -0.200 OA
ATOM      3  O   UNL d   1      56.918   0.523  32.243  0.00  0.00    -0.200 OA
ENDROOT
BRANCH   1   4
ATOM      4  N   UNL d   1      57.103  -0.560  31.804  0.00  0.00    -0.212 N 
ATOM      5  C   UNL d   1      56.773  -1.197  31.410  0.00  0.00     0.193 A 
ATOM      6  N   UNL d   1      57.122  -1.247  30.657  0.00  0.00    -0.223 NA
ATOM      7  C   UNL d   1      57.674  -0.628  30.595  0.00  0.00     0.100 A 
ATOM      8  C   UNL d   1      57.653  -0.215  31.302  0.00  0.00     0.094 A 
ATOM      9  C   UNL d   1      58.179  -0.404  29.984  0.00  0.00     0.021 A 
ATOM     10  C   UNL d   1      58.158   0.448  31.403  0.00  0.00     0.020 A 
ATOM     11  C   UNL d   1      58.673   0.682  30.789  0.00  0.00     0.002 A 
ATOM     12  C   UNL d   1      58.671   0.244  30.083  0.00  0.00     0.002 A 
ENDBRANCH   1   4
BRANCH   1  13
ATOM     13  C   UNL d   1      56.848   0.067  33.325  0.00  0.00     0.122 A 
ATOM     14  C   UNL d   1      56.091   0.210  33.591  0.00  0.00     0.093 A 
ATOM     15  N   UNL d   1      55.443   0.047  33.106  0.00  0.00    -0.243 NA
ATOM     16  C   UNL d   1      55.964   0.520  34.352  0.00  0.00     0.018 A 
ATOM     17  C   UNL d   1      54.689   0.189  33.371  0.00  0.00     0.099 A 
ATOM     18  C   UNL d   1      54.540   0.501  34.134  0.00  0.00     0.021 A 
ATOM     19  C   UNL d   1      55.187   0.661  34.613  0.00  0.00     0.003 A 
ATOM     20  C   UNL d   1      56.589   0.682  34.834  0.00  0.00     0.002 A 
ATOM     21  C   UNL d   1      57.346   0.542  34.574  0.00  0.00     0.001 A 
ATOM     22  C   UNL d   1      57.492   0.231  33.812  0.00  0.00     0.014 A 
ENDBRANCH   1  13
TORSDOF 2
ENDMDL
MODEL 6
REMARK VINA RESULT:      -1.2      8.591      9.212
REMARK  2 active torsions:
REMARK  status: ('A' for Active; 'I' for Inactive)
REMARK    1  A    between atoms: N_2  and  S_1 
REMARK    2  A    between atoms: C_3  and  S_1 
ROOT
ATOM      1  S   UNL d   1      59.391  -9.428  33.808  0.00  0.00     0.274 S 
ATOM      2  O   UNL d   1      60.116  -9.818  33.936  0.00  0.00    -0.200 OA
ATOM      3  O   UNL d   1      58.668  -9.040  33.673  0.00  0.00    -0.200 OA
ENDROOT
BRANCH   1   4
ATOM      4  N   UNL d   1      59.304  -9.320  34.630  0.00  0.00    -0.212 N 
ATOM      5  C   UNL d   1      59.000  -9.799  35.219  0.00  0.00     0.193 A 
ATOM      6  N   UNL d   1      59.060  -9.392  35.942  0.00  0.00    -0.223 NA
ATOM      7  C   UNL d   1      59.406  -8.652  35.786  0.00  0.00     0.100 A 
ATOM      8  C   UNL d   1      59.551  -8.620  34.980  0.00  0.00     0.094 A 
ATOM      9  C   UNL d   1      59.599  -8.022  36.281  0.00  0.00     0.021 A 
ATOM     10  C   UNL d   1      59.903  -7.931  34.656  0.00  0.00     0.020 A 
ATOM     11  C   UNL d   1      60.102  -7.288  35.149  0.00  0.00     0.002 A 
ATOM     12  C   UNL d   1      59.943  -7.350  35.962  0.00  0.00     0.002 A 
ENDBRANCH   1   4
BRANCH   1  13
ATOM     13  C   UNL d   1      59.484  -9.540  32.989  0.00  0.00     0.122 A 
ATOM     14  C   UNL d   1      58.832  -9.623  32.508  0.00  0.00     0.093 A 
ATOM     15  N   UNL d   1      58.072  -9.597  32.830  0.00  0.00    -0.243 NA
ATOM     16  C   UNL d   1      58.925  -9.734  31.689  0.00  0.00     0.018 A 
ATOM     17  C   UNL d   1      57.422  -9.680  32.350  0.00  0.00     0.099 A 
ATOM     18  C   UNL d   1      57.495  -9.793  31.523  0.00  0.00     0.021 A 
ATOM     19  C   UNL d   1      58.252  -9.818  31.207  0.00  0.00     0.003 A 
ATOM     20  C   UNL d   1      59.661  -9.761  31.364  0.00  0.00     0.002 A 
ATOM     21  C   UNL d   1      60.316  -9.678  31.840  0.00  0.00     0.001 A 
ATOM     22  C   UNL d   1      60.241  -9.566  32.664  0.00  0.00     0.014 A 
ENDBRANCH   1  13
TORSDOF 2
ENDMDL
