MODEL 1
REMARK VINA RESULT:      62.0      0.000      0.000
REMARK  3 active torsions:
REMARK  status: ('A' for Active; 'I' for Inactive)
REMARK    1  A    between atoms: C_4  and  C_1 
REMARK    2  A    between atoms: N_7  and  C_4 
REMARK    3  A    between atoms: C_9  and  N_7 
ROOT
ATOM      1  C   UNL d   1     -57.885 -99.020 -45.433  0.00  0.00     0.139 A 
ATOM      2  N   UNL d   1     -58.616 -99.364 -45.356  0.00  0.00    -0.236 NA
ATOM      3  S   UNL d   1     -57.783 -98.770 -46.207  0.00  0.00    -0.064 SA
ATOM      4  C   UNL d   1     -58.991 -99.334 -46.100  0.00  0.00     0.088 A 
ATOM      5  C   UNL d   1     -58.475 -98.966 -46.625  0.00  0.00     0.049 A 
ATOM      6  C   UNL d   1     -59.730 -99.593 -46.360  0.00  0.00     0.020 A 
ATOM      7  C   UNL d   1     -58.694 -98.854 -47.418  0.00  0.00     0.008 A 
ATOM      8  C   UNL d   1     -59.433 -99.113 -47.679  0.00  0.00     0.001 A 
ATOM      9  C   UNL d   1     -59.952 -99.484 -47.146  0.00  0.00     0.002 A 
ENDROOT
BRANCH   1  10
ATOM     10  C   UNL d   1     -57.335 -98.938 -44.817  0.00  0.00     0.159 C 
ATOM     11  S   UNL d   1     -57.593 -98.781 -44.046  0.00  0.00    -0.055 SA
BRANCH  10  12
ATOM     12  N   UNL d   1     -56.528 -99.014 -44.972  0.00  0.00    -0.233 NA
BRANCH  12  13
ATOM     13  C   UNL d   1     -56.028 -99.355 -44.405  0.00  0.00     0.082 A 
ATOM     14  C   UNL d   1     -55.964 -99.001 -43.663  0.00  0.00     0.019 A 
ATOM     15  C   UNL d   1     -55.470 -99.331 -43.094  0.00  0.00     0.002 A 
ATOM     16  C   UNL d   1     -55.041-100.014 -43.269  0.00  0.00     0.000 A 
ATOM     17  C   UNL d   1     -55.109-100.367 -44.017  0.00  0.00     0.002 A 
ATOM     18  C   UNL d   1     -55.602-100.038 -44.587  0.00  0.00     0.019 A 
ENDBRANCH  12  13
ENDBRANCH  10  12
ENDBRANCH   1  10
TORSDOF 3
ENDMDL
