MODEL 1
REMARK VINA RESULT:      71.6      0.000      0.000
REMARK  9 active torsions:
REMARK  status: ('A' for Active; 'I' for Inactive)
REMARK       I    between atoms: C_2  and  N_1 
REMARK    1  A    between atoms: C_3  and  C_2 
REMARK    2  A    between atoms: C_15  and  C_4 
REMARK       I    between atoms: C_5  and  N_9 
REMARK    3  A    between atoms: C_6  and  C_5 
REMARK       I    between atoms: N_21  and  C_6 
REMARK    4  A    between atoms: N_9  and  C_15 
REMARK    5  A    between atoms: C_25  and  N_21 
REMARK    6  A    between atoms: N_23  and  C_26 
REMARK    7  A    between atoms: C_27  and  N_23 
REMARK    8  A    between atoms: C_28  and  N_23 
REMARK    9  A    between atoms: C_26  and  C_25 
ROOT
ATOM      1  N   UNL d   1      59.656  49.395  51.278  0.00  0.00    -0.250 N 
ATOM      2  C   UNL d   1      59.311  49.361  50.526  0.00  0.00     0.266 C 
ATOM      3  C   UNL d   1      60.459  49.322  51.463  0.00  0.00     0.190 A 
ATOM      4  O   UNL d   1      59.792  49.241  49.862  0.00  0.00    -0.267 OA
ATOM      5  O   UNL d   1      60.554  49.391  52.275  0.00  0.00    -0.285 OA
ATOM      6  C   UNL d   1      59.259  49.511  51.994  0.00  0.00     0.112 A 
ATOM      7  C   UNL d   1      59.810  49.508  52.605  0.00  0.00     0.144 A 
ENDROOT
BRANCH   3   8
ATOM      8  C   UNL d   1      61.066  49.198  50.907  0.00  0.00     0.146 C 
BRANCH   8   9
ATOM      9  N   UNL d   1      61.303  48.430  50.727  0.00  0.00    -0.199 NA
ATOM     10  C   UNL d   1      61.846  48.301  50.125  0.00  0.00     0.337 C 
ATOM     11  O   UNL d   1      62.159  48.935  49.696  0.00  0.00    -0.260 OA
BRANCH  10  12
ATOM     12  C   UNL d   1      62.084  47.532  49.945  0.00  0.00     0.337 C 
ATOM     13  O   UNL d   1      62.783  47.233  50.259  0.00  0.00    -0.260 OA
ATOM     14  N   UNL d   1      61.622  47.068  49.453  0.00  0.00    -0.201 NA
BRANCH  14  15
ATOM     15  C   UNL d   1      61.670  46.293  49.150  0.00  0.00     0.121 C 
BRANCH  15  16
ATOM     16  C   UNL d   1      61.051  45.755  49.214  0.00  0.00     0.101 C 
BRANCH  16  17
ATOM     17  N   UNL d   1      61.210  44.961  49.344  0.00  0.00    -0.301 N 
BRANCH  17  18
ATOM     18  C   UNL d   1      61.965  44.660  49.282  0.00  0.00     0.080 C 
ATOM     19  C   UNL d   1      62.329  44.261  49.917  0.00  0.00     0.021 C 
ENDBRANCH  17  18
BRANCH  17  20
ATOM     20  C   UNL d   1      60.576  44.443  49.549  0.00  0.00     0.080 C 
ATOM     21  C   UNL d   1      59.951  44.324  49.008  0.00  0.00     0.021 C 
ENDBRANCH  17  20
ENDBRANCH  16  17
ENDBRANCH  15  16
ENDBRANCH  14  15
ENDBRANCH  10  12
ENDBRANCH   8   9
ENDBRANCH   3   8
BRANCH   2  22
ATOM     22  C   UNL d   1      58.495  49.447  50.453  0.00  0.00     0.059 A 
ATOM     23  C   UNL d   1      58.130  49.456  49.724  0.00  0.00     0.031 A 
ATOM     24  C   UNL d   1      57.313  49.542  49.651  0.00  0.00     0.119 A 
ATOM     25  O   UNL d   1      56.805  49.570  49.004  0.00  0.00    -0.300 OA
ATOM     26  C   UNL d   1      56.854  49.621  50.346  0.00  0.00     0.119 A 
ATOM     27  C   UNL d   1      56.033  49.666  49.299  0.00  0.00     0.304 A 
ATOM     28  O   UNL d   1      56.064  49.698  50.114  0.00  0.00    -0.300 OA
ATOM     29  C   UNL d   1      57.212  49.614  51.089  0.00  0.00     0.026 A 
ATOM     30  C   UNL d   1      58.031  49.527  51.145  0.00  0.00     0.007 A 
ENDBRANCH   2  22
TORSDOF 9
ENDMDL
