MODEL 1
REMARK VINA RESULT:     128.7      0.000      0.000
REMARK  3 active torsions:
REMARK  status: ('A' for Active; 'I' for Inactive)
REMARK    1  A    between atoms: N_10  and  C_3 
REMARK    2  A    between atoms: C_13  and  C_5 
REMARK    3  A    between atoms: C_12  and  C_9 
ROOT
ATOM      1  N   UNL d   1     -56.429-100.852 -42.859  0.00  0.00    -0.196 N 
ATOM      2  C   UNL d   1     -56.648-100.564 -43.595  0.00  0.00     0.167 A 
ATOM      3  C   UNL d   1     -55.786-101.363 -42.786  0.00  0.00     0.152 A 
ATOM      4  N   UNL d   1     -56.944-100.542 -42.300  0.00  0.00    -0.163 NA
ATOM      5  C   UNL d   1     -57.300-100.074 -43.494  0.00  0.00     0.055 A 
ATOM      6  N   UNL d   1     -56.228-100.782 -44.270  0.00  0.00    -0.231 NA
ATOM      7  C   UNL d   1     -55.364-101.582 -43.462  0.00  0.00     0.052 A 
ATOM      8  C   UNL d   1     -57.485-100.058 -42.698  0.00  0.00     0.104 A 
ATOM      9  C   UNL d   1     -55.584-101.294 -44.198  0.00  0.00     0.063 A 
ATOM     10  C   UNL d   1     -58.102 -99.633 -42.362  0.00  0.00     0.023 C 
ENDROOT
BRANCH   3  11
ATOM     11  N   UNL d   1     -55.566-101.651 -42.051  0.00  0.00    -0.286 N 
ATOM     12  C   UNL d   1     -55.974-102.285 -41.713  0.00  0.00     0.101 A 
ATOM     13  C   UNL d   1     -55.753-102.575 -40.973  0.00  0.00     0.100 A 
ATOM     14  N   UNL d   1     -55.124-102.233 -40.567  0.00  0.00    -0.299 N 
ATOM     15  C   UNL d   1     -54.715-101.601 -40.900  0.00  0.00     0.100 A 
ATOM     16  C   UNL d   1     -54.903-102.523 -39.827  0.00  0.00     0.100 C 
ATOM     17  C   UNL d   1     -54.936-101.311 -41.641  0.00  0.00     0.101 A 
ENDBRANCH   3  11
BRANCH   9  18
ATOM     18  C   UNL d   1     -55.145-101.525 -44.880  0.00  0.00     0.036 C 
ATOM     19  C   UNL d   1     -54.711-101.754 -45.553  0.00  0.00     0.006 C 
ATOM     20  C   UNL d   1     -55.393-100.833 -45.274  0.00  0.00     0.006 C 
ATOM     21  C   UNL d   1     -54.899-102.217 -44.482  0.00  0.00     0.006 C 
ENDBRANCH   9  18
BRANCH   5  22
ATOM     22  C   UNL d   1     -57.753 -99.637 -44.027  0.00  0.00     0.004 A 
ATOM     23  C   UNL d   1     -58.567 -99.534 -43.905  0.00  0.00     0.000 A 
ATOM     24  C   UNL d   1     -59.015 -99.097 -44.439  0.00  0.00     0.000 A 
ATOM     25  C   UNL d   1     -58.660 -98.755 -45.104  0.00  0.00     0.000 A 
ATOM     26  C   UNL d   1     -57.841 -98.858 -45.228  0.00  0.00     0.000 A 
ATOM     27  C   UNL d   1     -57.396 -99.297 -44.689  0.00  0.00     0.000 A 
ENDBRANCH   5  22
TORSDOF 3
ENDMDL
