MODEL 1
REMARK VINA RESULT:      -9.5      0.000      0.000
REMARK  6 active torsions:
REMARK  status: ('A' for Active; 'I' for Inactive)
REMARK    1  A    between atoms: C_8  and  C_1 
REMARK    2  A    between atoms: C_6  and  O_10 
REMARK    3  A    between atoms: C_7  and  C_6 
REMARK    4  A    between atoms: C_18  and  C_8 
REMARK    5  A    between atoms: O_10  and  C_12 
REMARK    6  A    between atoms: O_20  and  C_13 
ROOT
ATOM      1  C   UNL d   1      53.309  32.305  53.291  0.00  0.00     0.139 A 
ATOM      2  C   UNL d   1      52.784  33.531  53.387  0.00  0.00     0.064 A 
ATOM      3  C   UNL d   1      53.390  33.039  53.665  0.00  0.00     0.220 A 
ATOM      4  C   UNL d   1      52.330  33.106  52.843  0.00  0.00     0.105 A 
ATOM      5  O   UNL d   1      52.655  32.347  52.784  0.00  0.00    -0.304 OA
ATOM      6  C   UNL d   1      51.689  33.468  52.481  0.00  0.00     0.050 A 
ATOM      7  C   UNL d   1      52.593  34.314  53.564  0.00  0.00     0.007 A 
ATOM      8  C   UNL d   1      51.502  34.244  52.659  0.00  0.00     0.105 A 
ATOM      9  O   UNL d   1      53.971  33.239  54.216  0.00  0.00    -0.284 OA
ATOM     10  C   UNL d   1      51.946  34.671  53.196  0.00  0.00     0.025 A 
ENDROOT
BRANCH   8  11
ATOM     11  O   UNL d   1      50.856  34.601  52.292  0.00  0.00    -0.273 OA
BRANCH  11  12
ATOM     12  C   UNL d   1      50.083  34.441  52.544  0.00  0.00     0.302 C 
ATOM     13  O   UNL d   1      49.966  34.059  53.267  0.00  0.00    -0.259 OA
BRANCH  12  14
ATOM     14  C   UNL d   1      49.434  34.654  52.089  0.00  0.00     0.086 A 
ATOM     15  C   UNL d   1      48.854  35.163  52.411  0.00  0.00     0.099 A 
ATOM     16  C   UNL d   1      48.207  35.376  51.956  0.00  0.00     0.024 A 
ATOM     17  C   UNL d   1      48.119  35.098  51.189  0.00  0.00     0.002 A 
ATOM     18  C   UNL d   1      48.702  34.587  50.866  0.00  0.00     0.000 A 
ATOM     19  C   UNL d   1      49.354  34.371  51.319  0.00  0.00     0.007 A 
BRANCH  15  20
ATOM     20  O   UNL d   1      48.949  35.439  53.184  0.00  0.00    -0.328 OA
ATOM     21  C   UNL d   1      48.381  35.952  53.498  0.00  0.00     0.181 C 
ENDBRANCH  15  20
ENDBRANCH  12  14
ENDBRANCH  11  12
ENDBRANCH   8  11
BRANCH   1  22
ATOM     22  C   UNL d   1      53.794  31.645  53.401  0.00  0.00     0.028 C 
BRANCH  22  23
ATOM     23  C   UNL d   1      53.462  30.892  53.485  0.00  0.00     0.005 A 
ATOM     24  C   UNL d   1      53.396  30.561  54.233  0.00  0.00     0.021 A 
ATOM     25  C   UNL d   1      53.067  29.813  54.324  0.00  0.00     0.099 A 
ATOM     26  N   UNL d   1      52.801  29.390  53.659  0.00  0.00    -0.242 NA
ATOM     27  C   UNL d   1      52.870  29.729  52.905  0.00  0.00     0.099 A 
ATOM     28  C   UNL d   1      53.201  30.481  52.822  0.00  0.00     0.021 A 
ENDBRANCH  22  23
ENDBRANCH   1  22
TORSDOF 6
ENDMDL
MODEL 2
REMARK VINA RESULT:      -8.6      1.638      2.384
REMARK  6 active torsions:
REMARK  status: ('A' for Active; 'I' for Inactive)
REMARK    1  A    between atoms: C_8  and  C_1 
REMARK    2  A    between atoms: C_6  and  O_10 
REMARK    3  A    between atoms: C_7  and  C_6 
REMARK    4  A    between atoms: C_18  and  C_8 
REMARK    5  A    between atoms: O_10  and  C_12 
REMARK    6  A    between atoms: O_20  and  C_13 
ROOT
ATOM      1  C   UNL d   1      52.864  32.932  53.695  0.00  0.00     0.139 A 
ATOM      2  C   UNL d   1      51.953  33.322  52.799  0.00  0.00     0.064 A 
ATOM      3  C   UNL d   1      52.575  32.793  52.932  0.00  0.00     0.220 A 
ATOM      4  C   UNL d   1      51.855  33.788  53.474  0.00  0.00     0.105 A 
ATOM      5  O   UNL d   1      52.419  33.546  54.029  0.00  0.00    -0.304 OA
ATOM      6  C   UNL d   1      51.269  34.362  53.488  0.00  0.00     0.050 A 
ATOM      7  C   UNL d   1      51.464  33.436  52.143  0.00  0.00     0.007 A 
ATOM      8  C   UNL d   1      50.787  34.472  52.838  0.00  0.00     0.105 A 
ATOM      9  O   UNL d   1      52.861  32.227  52.403  0.00  0.00    -0.284 OA
ATOM     10  C   UNL d   1      50.878  34.016  52.165  0.00  0.00     0.025 A 
ENDROOT
BRANCH   8  11
ATOM     11  O   UNL d   1      50.201  35.052  52.858  0.00  0.00    -0.273 OA
BRANCH  11  12
ATOM     12  C   UNL d   1      49.402  34.848  52.769  0.00  0.00     0.302 C 
ATOM     13  O   UNL d   1      49.204  34.080  52.538  0.00  0.00    -0.259 OA
BRANCH  12  14
ATOM     14  C   UNL d   1      48.806  35.396  52.906  0.00  0.00     0.086 A 
ATOM     15  C   UNL d   1      48.246  35.555  52.306  0.00  0.00     0.099 A 
ATOM     16  C   UNL d   1      47.652  36.102  52.443  0.00  0.00     0.024 A 
ATOM     17  C   UNL d   1      47.598  36.496  53.161  0.00  0.00     0.002 A 
ATOM     18  C   UNL d   1      48.160  36.336  53.764  0.00  0.00     0.000 A 
ATOM     19  C   UNL d   1      48.759  35.788  53.630  0.00  0.00     0.007 A 
BRANCH  15  20
ATOM     20  O   UNL d   1      48.307  35.155  51.586  0.00  0.00    -0.328 OA
ATOM     21  C   UNL d   1      47.730  35.281  51.008  0.00  0.00     0.181 C 
ENDBRANCH  15  20
ENDBRANCH  12  14
ENDBRANCH  11  12
ENDBRANCH   8  11
BRANCH   1  22
ATOM     22  C   UNL d   1      53.486  32.531  54.062  0.00  0.00     0.028 C 
BRANCH  22  23
ATOM     23  C   UNL d   1      54.063  32.949  54.483  0.00  0.00     0.005 A 
ATOM     24  C   UNL d   1      54.014  32.990  55.301  0.00  0.00     0.021 A 
ATOM     25  C   UNL d   1      54.584  33.405  55.726  0.00  0.00     0.099 A 
ATOM     26  N   UNL d   1      55.210  33.781  55.329  0.00  0.00    -0.242 NA
ATOM     27  C   UNL d   1      55.255  33.736  54.502  0.00  0.00     0.099 A 
ATOM     28  C   UNL d   1      54.678  33.318  54.082  0.00  0.00     0.021 A 
ENDBRANCH  22  23
ENDBRANCH   1  22
TORSDOF 6
ENDMDL
MODEL 3
REMARK VINA RESULT:      -8.5      2.126      5.783
REMARK  6 active torsions:
REMARK  status: ('A' for Active; 'I' for Inactive)
REMARK    1  A    between atoms: C_8  and  C_1 
REMARK    2  A    between atoms: C_6  and  O_10 
REMARK    3  A    between atoms: C_7  and  C_6 
REMARK    4  A    between atoms: C_18  and  C_8 
REMARK    5  A    between atoms: O_10  and  C_12 
REMARK    6  A    between atoms: O_20  and  C_13 
ROOT
ATOM      1  C   UNL d   1      48.577  35.592  52.642  0.00  0.00     0.139 A 
ATOM      2  C   UNL d   1      49.452  34.670  52.227  0.00  0.00     0.064 A 
ATOM      3  C   UNL d   1      48.805  35.130  51.993  0.00  0.00     0.220 A 
ATOM      4  C   UNL d   1      49.627  34.844  53.016  0.00  0.00     0.105 A 
ATOM      5  O   UNL d   1      49.085  35.415  53.272  0.00  0.00    -0.304 OA
ATOM      6  C   UNL d   1      50.251  34.461  53.386  0.00  0.00     0.050 A 
ATOM      7  C   UNL d   1      49.903  34.114  51.816  0.00  0.00     0.007 A 
ATOM      8  C   UNL d   1      50.695  33.911  52.977  0.00  0.00     0.105 A 
ATOM      9  O   UNL d   1      48.447  35.132  51.250  0.00  0.00    -0.284 OA
ATOM     10  C   UNL d   1      50.529  33.733  52.196  0.00  0.00     0.025 A 
ENDROOT
BRANCH   8  11
ATOM     11  O   UNL d   1      51.321  33.530  53.355  0.00  0.00    -0.273 OA
BRANCH  11  12
ATOM     12  C   UNL d   1      52.106  33.702  53.154  0.00  0.00     0.302 C 
ATOM     13  O   UNL d   1      52.268  34.375  52.703  0.00  0.00    -0.259 OA
BRANCH  12  14
ATOM     14  C   UNL d   1      52.723  33.217  53.394  0.00  0.00     0.086 A 
ATOM     15  C   UNL d   1      53.240  33.475  53.998  0.00  0.00     0.099 A 
ATOM     16  C   UNL d   1      53.856  32.991  54.237  0.00  0.00     0.024 A 
ATOM     17  C   UNL d   1      53.973  32.255  53.893  0.00  0.00     0.002 A 
ATOM     18  C   UNL d   1      53.453  31.995  53.286  0.00  0.00     0.000 A 
ATOM     19  C   UNL d   1      52.833  32.479  53.043  0.00  0.00     0.007 A 
BRANCH  15  20
ATOM     20  O   UNL d   1      53.116  34.217  54.339  0.00  0.00    -0.328 OA
ATOM     21  C   UNL d   1      53.624  34.470  54.942  0.00  0.00     0.181 C 
ENDBRANCH  15  20
ENDBRANCH  12  14
ENDBRANCH  11  12
ENDBRANCH   8  11
BRANCH   1  22
ATOM     22  C   UNL d   1      47.954  36.134  52.660  0.00  0.00     0.028 C 
BRANCH  22  23
ATOM     23  C   UNL d   1      47.477  36.200  53.332  0.00  0.00     0.005 A 
ATOM     24  C   UNL d   1      46.750  35.818  53.349  0.00  0.00     0.021 A 
ATOM     25  C   UNL d   1      46.270  35.879  54.015  0.00  0.00     0.099 A 
ATOM     26  N   UNL d   1      46.519  36.326  54.670  0.00  0.00    -0.242 NA
ATOM     27  C   UNL d   1      47.254  36.709  54.648  0.00  0.00     0.099 A 
ATOM     28  C   UNL d   1      47.730  36.643  53.976  0.00  0.00     0.021 A 
ENDBRANCH  22  23
ENDBRANCH   1  22
TORSDOF 6
ENDMDL
MODEL 4
REMARK VINA RESULT:      -7.3      2.218      3.526
REMARK  6 active torsions:
REMARK  status: ('A' for Active; 'I' for Inactive)
REMARK    1  A    between atoms: C_8  and  C_1 
REMARK    2  A    between atoms: C_6  and  O_10 
REMARK    3  A    between atoms: C_7  and  C_6 
REMARK    4  A    between atoms: C_18  and  C_8 
REMARK    5  A    between atoms: O_10  and  C_12 
REMARK    6  A    between atoms: O_20  and  C_13 
ROOT
ATOM      1  C   UNL d   1      51.573  34.221  52.843  0.00  0.00     0.139 A 
ATOM      2  C   UNL d   1      50.425  34.456  52.199  0.00  0.00     0.064 A 
ATOM      3  C   UNL d   1      51.211  34.217  52.098  0.00  0.00     0.220 A 
ATOM      4  C   UNL d   1      50.298  34.609  53.001  0.00  0.00     0.105 A 
ATOM      5  O   UNL d   1      51.009  34.463  53.399  0.00  0.00    -0.304 OA
ATOM      6  C   UNL d   1      49.558  34.857  53.253  0.00  0.00     0.050 A 
ATOM      7  C   UNL d   1      49.811  34.554  51.656  0.00  0.00     0.007 A 
ATOM      8  C   UNL d   1      48.952  34.953  52.713  0.00  0.00     0.105 A 
ATOM      9  O   UNL d   1      51.574  34.010  51.386  0.00  0.00    -0.284 OA
ATOM     10  C   UNL d   1      49.069  34.804  51.918  0.00  0.00     0.025 A 
ENDROOT
BRANCH   8  11
ATOM     11  O   UNL d   1      48.210  35.203  52.974  0.00  0.00    -0.273 OA
BRANCH  11  12
ATOM     12  C   UNL d   1      48.065  36.003  53.132  0.00  0.00     0.302 C 
ATOM     13  O   UNL d   1      48.569  36.575  52.815  0.00  0.00    -0.259 OA
BRANCH  12  14
ATOM     14  C   UNL d   1      47.430  36.236  53.596  0.00  0.00     0.086 A 
ATOM     15  C   UNL d   1      46.699  36.422  53.234  0.00  0.00     0.099 A 
ATOM     16  C   UNL d   1      46.066  36.655  53.698  0.00  0.00     0.024 A 
ATOM     17  C   UNL d   1      46.137  36.708  54.514  0.00  0.00     0.002 A 
ATOM     18  C   UNL d   1      46.870  36.521  54.878  0.00  0.00     0.000 A 
ATOM     19  C   UNL d   1      47.509  36.287  54.415  0.00  0.00     0.007 A 
BRANCH  15  20
ATOM     20  O   UNL d   1      46.635  36.366  52.412  0.00  0.00    -0.328 OA
ATOM     21  C   UNL d   1      45.903  36.515  52.057  0.00  0.00     0.181 C 
ENDBRANCH  15  20
ENDBRANCH  12  14
ENDBRANCH  11  12
ENDBRANCH   8  11
BRANCH   1  22
ATOM     22  C   UNL d   1      52.357  34.019  53.005  0.00  0.00     0.028 C 
BRANCH  22  23
ATOM     23  C   UNL d   1      52.724  34.292  53.695  0.00  0.00     0.005 A 
ATOM     24  C   UNL d   1      52.929  35.084  53.756  0.00  0.00     0.021 A 
ATOM     25  C   UNL d   1      53.295  35.362  54.439  0.00  0.00     0.099 A 
ATOM     26  N   UNL d   1      53.457  34.843  55.067  0.00  0.00    -0.242 NA
ATOM     27  C   UNL d   1      53.248  34.043  55.000  0.00  0.00     0.099 A 
ATOM     28  C   UNL d   1      52.881  33.771  54.311  0.00  0.00     0.021 A 
ENDBRANCH  22  23
ENDBRANCH   1  22
TORSDOF 6
ENDMDL
