MODEL 1
REMARK VINA RESULT:      -4.6      0.000      0.000
REMARK  4 active torsions:
REMARK  status: ('A' for Active; 'I' for Inactive)
REMARK    1  A    between atoms: C_6  and  C_1 
REMARK    2  A    between atoms: C_16  and  C_6 
REMARK    3  A    between atoms: C_9  and  O_12 
REMARK    4  A    between atoms: O_12  and  C_10 
ROOT
ATOM      1  C   UNL d   1      58.246  -0.752  29.614  0.00  0.00     0.139 A 
ATOM      2  C   UNL d   1      57.660   0.027  30.528  0.00  0.00     0.064 A 
ATOM      3  C   UNL d   1      58.016   0.025  29.780  0.00  0.00     0.220 A 
ATOM      4  C   UNL d   1      57.668  -0.742  30.822  0.00  0.00     0.105 A 
ATOM      5  O   UNL d   1      58.031  -1.229  30.259  0.00  0.00    -0.304 OA
ATOM      6  C   UNL d   1      57.346  -0.902  31.564  0.00  0.00     0.050 A 
ATOM      7  C   UNL d   1      57.328   0.635  30.976  0.00  0.00     0.007 A 
ATOM      8  C   UNL d   1      57.018  -0.293  32.004  0.00  0.00     0.105 A 
ATOM      9  O   UNL d   1      58.122   0.682  29.292  0.00  0.00    -0.284 OA
ATOM     10  C   UNL d   1      57.004   0.475  31.721  0.00  0.00     0.025 A 
ENDROOT
BRANCH   1  11
ATOM     11  C   UNL d   1      58.622  -1.009  28.929  0.00  0.00     0.028 C 
BRANCH  11  12
ATOM     12  C   UNL d   1      59.122  -1.673  28.944  0.00  0.00     0.005 A 
ATOM     13  C   UNL d   1      58.804  -2.413  28.791  0.00  0.00     0.021 A 
ATOM     14  C   UNL d   1      59.291  -3.078  28.803  0.00  0.00     0.099 A 
ATOM     15  N   UNL d   1      60.097  -2.995  28.970  0.00  0.00    -0.242 NA
ATOM     16  C   UNL d   1      60.412  -2.248  29.124  0.00  0.00     0.099 A 
ATOM     17  C   UNL d   1      59.924  -1.587  29.111  0.00  0.00     0.021 A 
ENDBRANCH  11  12
ENDBRANCH   1  11
BRANCH   8  18
ATOM     18  O   UNL d   1      56.695  -0.457  32.747  0.00  0.00    -0.273 OA
BRANCH  18  19
ATOM     19  C   UNL d   1      55.938  -0.795  32.810  0.00  0.00     0.300 C 
ATOM     20  O   UNL d   1      55.822  -1.578  32.585  0.00  0.00    -0.259 OA
ATOM     21  C   UNL d   1      55.309  -0.343  33.097  0.00  0.00     0.074 C 
ENDBRANCH  18  19
ENDBRANCH   8  18
TORSDOF 4
ENDMDL
MODEL 2
REMARK VINA RESULT:      -3.6      2.185      4.510
REMARK  4 active torsions:
REMARK  status: ('A' for Active; 'I' for Inactive)
REMARK    1  A    between atoms: C_6  and  C_1 
REMARK    2  A    between atoms: C_16  and  C_6 
REMARK    3  A    between atoms: C_9  and  O_12 
REMARK    4  A    between atoms: O_12  and  C_10 
ROOT
ATOM      1  C   UNL d   1      57.401   0.631  32.358  0.00  0.00     0.139 A 
ATOM      2  C   UNL d   1      58.435   0.652  31.513  0.00  0.00     0.064 A 
ATOM      3  C   UNL d   1      58.227   0.656  32.315  0.00  0.00     0.220 A 
ATOM      4  C   UNL d   1      57.745   0.624  31.065  0.00  0.00     0.105 A 
ATOM      5  O   UNL d   1      57.101   0.611  31.584  0.00  0.00    -0.304 OA
ATOM      6  C   UNL d   1      57.790   0.614  30.242  0.00  0.00     0.050 A 
ATOM      7  C   UNL d   1      59.170   0.670  31.138  0.00  0.00     0.007 A 
ATOM      8  C   UNL d   1      58.523   0.632  29.874  0.00  0.00     0.105 A 
ATOM      9  O   UNL d   1      58.750   0.682  32.952  0.00  0.00    -0.284 OA
ATOM     10  C   UNL d   1      59.216   0.660  30.310  0.00  0.00     0.025 A 
ENDROOT
BRANCH   1  11
ATOM     11  C   UNL d   1      56.953   0.626  33.049  0.00  0.00     0.028 C 
BRANCH  11  12
ATOM     12  C   UNL d   1      56.317   0.099  33.137  0.00  0.00     0.005 A 
ATOM     13  C   UNL d   1      55.567   0.402  33.272  0.00  0.00     0.021 A 
ATOM     14  C   UNL d   1      54.929  -0.113  33.362  0.00  0.00     0.099 A 
ATOM     15  N   UNL d   1      55.048  -0.930  33.315  0.00  0.00    -0.242 NA
ATOM     16  C   UNL d   1      55.805  -1.228  33.179  0.00  0.00     0.099 A 
ATOM     17  C   UNL d   1      56.439  -0.714  33.090  0.00  0.00     0.021 A 
ENDBRANCH  11  12
ENDBRANCH   1  11
BRANCH   8  18
ATOM     18  O   UNL d   1      58.564   0.622  29.049  0.00  0.00    -0.273 OA
BRANCH  18  19
ATOM     19  C   UNL d   1      58.877  -0.039  28.653  0.00  0.00     0.300 C 
ATOM     20  O   UNL d   1      58.383  -0.667  28.456  0.00  0.00    -0.259 OA
ATOM     21  C   UNL d   1      59.680  -0.061  28.461  0.00  0.00     0.074 C 
ENDBRANCH  18  19
ENDBRANCH   8  18
TORSDOF 4
ENDMDL
MODEL 3
REMARK VINA RESULT:      -1.7      8.080      9.033
REMARK  4 active torsions:
REMARK  status: ('A' for Active; 'I' for Inactive)
REMARK    1  A    between atoms: C_6  and  C_1 
REMARK    2  A    between atoms: C_16  and  C_6 
REMARK    3  A    between atoms: C_9  and  O_12 
REMARK    4  A    between atoms: O_12  and  C_10 
ROOT
ATOM      1  C   UNL d   1      58.762  -9.743  29.813  0.00  0.00     0.139 A 
ATOM      2  C   UNL d   1      59.585  -9.766  30.865  0.00  0.00     0.064 A 
ATOM      3  C   UNL d   1      59.558  -9.748  30.037  0.00  0.00     0.220 A 
ATOM      4  C   UNL d   1      58.813  -9.771  31.150  0.00  0.00     0.105 A 
ATOM      5  O   UNL d   1      58.299  -9.757  30.503  0.00  0.00    -0.304 OA
ATOM      6  C   UNL d   1      58.676  -9.788  31.963  0.00  0.00     0.050 A 
ATOM      7  C   UNL d   1      60.219  -9.777  31.392  0.00  0.00     0.007 A 
ATOM      8  C   UNL d   1      59.310  -9.800  32.482  0.00  0.00     0.105 A 
ATOM      9  O   UNL d   1      60.209  -9.738  29.531  0.00  0.00    -0.284 OA
ATOM     10  C   UNL d   1      60.082  -9.794  32.210  0.00  0.00     0.025 A 
ENDROOT
BRANCH   1  11
ATOM     11  C   UNL d   1      58.477  -9.727  29.041  0.00  0.00     0.028 C 
BRANCH  11  12
ATOM     12  C   UNL d   1      57.741  -9.380  28.869  0.00  0.00     0.005 A 
ATOM     13  C   UNL d   1      57.719  -8.596  28.629  0.00  0.00     0.021 A 
ATOM     14  C   UNL d   1      56.995  -8.242  28.455  0.00  0.00     0.099 A 
ATOM     15  N   UNL d   1      56.296  -8.679  28.523  0.00  0.00    -0.242 NA
ATOM     16  C   UNL d   1      56.325  -9.468  28.765  0.00  0.00     0.099 A 
ATOM     17  C   UNL d   1      57.048  -9.818  28.937  0.00  0.00     0.021 A 
ENDBRANCH  11  12
ENDBRANCH   1  11
BRANCH   8  18
ATOM     18  O   UNL d   1      59.169  -9.817  33.297  0.00  0.00    -0.273 OA
BRANCH  18  19
ATOM     19  C   UNL d   1      59.607  -9.329  33.808  0.00  0.00     0.300 C 
ATOM     20  O   UNL d   1      59.564  -8.511  33.727  0.00  0.00    -0.259 OA
ATOM     21  C   UNL d   1      60.081  -9.669  34.393  0.00  0.00     0.074 C 
ENDBRANCH  18  19
ENDBRANCH   8  18
TORSDOF 4
ENDMDL
