MODEL 1
REMARK VINA RESULT:      25.2      0.000      0.000
REMARK  1 active torsions:
REMARK  status: ('A' for Active; 'I' for Inactive)
REMARK    1  A    between atoms: C_10  and  C_4 
ROOT
ATOM      1  N   UNL d   1      46.406 -19.125  42.725  0.00  0.00    -0.202 N 
ATOM      2  C   UNL d   1      46.168 -18.339  42.808  0.00  0.00     0.166 A 
ATOM      3  N   UNL d   1      46.608 -19.412  43.482  0.00  0.00    -0.163 NA
ATOM      4  C   UNL d   1      46.223 -18.139  43.616  0.00  0.00     0.055 A 
ATOM      5  C   UNL d   1      46.408 -19.479  41.976  0.00  0.00     0.143 A 
ATOM      6  C   UNL d   1      46.493 -18.803  44.016  0.00  0.00     0.104 A 
ATOM      7  N   UNL d   1      45.935 -17.908  42.149  0.00  0.00    -0.227 NA
ATOM      8  C   UNL d   1      46.173 -19.043  41.313  0.00  0.00     0.050 A 
ATOM      9  C   UNL d   1      45.934 -18.251  41.400  0.00  0.00     0.086 A 
ATOM     10 CL   UNL d   1      46.645 -20.263  41.889  0.00  0.00    -0.061 Cl
ATOM     11  C   UNL d   1      46.626 -18.848  44.829  0.00  0.00     0.023 C 
ATOM     12  C   UNL d   1      45.700 -17.819  40.741  0.00  0.00     0.021 C 
ENDROOT
BRANCH   4  13
ATOM     13  C   UNL d   1      46.039 -17.406  43.949  0.00  0.00     0.004 A 
ATOM     14  C   UNL d   1      46.364 -16.716  43.633  0.00  0.00     0.001 A 
ATOM     15  C   UNL d   1      46.179 -15.989  43.967  0.00  0.00     0.011 A 
ATOM     16  C   UNL d   1      45.671 -15.942  44.615  0.00  0.00     0.058 A 
ATOM     17  C   UNL d   1      45.347 -16.628  44.931  0.00  0.00     0.011 A 
ATOM     18 CL   UNL d   1      45.490 -15.215  44.944  0.00  0.00    -0.082 Cl
ATOM     19  C   UNL d   1      45.527 -17.364  44.602  0.00  0.00     0.001 A 
ENDBRANCH   4  13
TORSDOF 1
ENDMDL
