MODEL 1
REMARK VINA RESULT:       1.3      0.000      0.000
REMARK  3 active torsions:
REMARK  status: ('A' for Active; 'I' for Inactive)
REMARK    1  A    between atoms: C_7  and  N_1 
REMARK    2  A    between atoms: C_8  and  C_2 
REMARK    3  A    between atoms: N_4  and  C_9 
ROOT
ATOM      1  N   UNL d   1     -41.537-121.074 -51.760  0.00  0.00    -0.211 N 
ATOM      2  C   UNL d   1     -41.452-121.126 -52.581  0.00  0.00     0.105 A 
ATOM      3  N   UNL d   1     -41.338-120.300 -51.531  0.00  0.00    -0.060 NA
ATOM      4  N   UNL d   1     -41.131-119.877 -52.211  0.00  0.00    -0.127 NA
ATOM      5  C   UNL d   1     -41.203-120.391 -52.856  0.00  0.00     0.143 A 
ENDROOT
BRANCH   1   6
ATOM      6  C   UNL d   1     -41.776-121.680 -51.257  0.00  0.00     0.085 A 
ATOM      7  C   UNL d   1     -42.519-121.650 -50.899  0.00  0.00     0.021 A 
ATOM      8  C   UNL d   1     -42.763-122.254 -50.395  0.00  0.00     0.025 A 
ATOM      9  C   UNL d   1     -42.258-122.893 -50.247  0.00  0.00     0.127 A 
ATOM     10  C   UNL d   1     -41.516-122.926 -50.602  0.00  0.00     0.025 A 
ATOM     11  C   UNL d   1     -41.274-122.320 -51.106  0.00  0.00     0.021 A 
BRANCH   9  12
ATOM     12  N   UNL d   1     -42.503-123.499 -49.740  0.00  0.00    -0.114 N 
ATOM     13  O   UNL d   1     -43.261-123.817 -49.821  0.00  0.00    -0.532 OA
ATOM     14  O   UNL d   1     -41.999-123.781 -49.163  0.00  0.00    -0.532 OA
ENDBRANCH   9  12
ENDBRANCH   1   6
BRANCH   2  15
ATOM     15  C   UNL d   1     -41.593-121.796 -53.041  0.00  0.00     0.019 A 
ATOM     16  C   UNL d   1     -42.201-121.792 -53.600  0.00  0.00     0.002 A 
ATOM     17  C   UNL d   1     -42.343-122.458 -54.059  0.00  0.00     0.011 A 
ATOM     18  C   UNL d   1     -41.875-123.139 -53.964  0.00  0.00     0.058 A 
ATOM     19  C   UNL d   1     -41.263-123.142 -53.401  0.00  0.00     0.011 A 
ATOM     20 CL   UNL d   1     -42.018-123.804 -54.423  0.00  0.00    -0.082 Cl
ATOM     21  C   UNL d   1     -41.123-122.475 -52.943  0.00  0.00     0.002 A 
ENDBRANCH   2  15
TORSDOF 3
ENDMDL
