MODEL 1
REMARK VINA RESULT:      -3.7      0.000      0.000
REMARK  6 active torsions:
REMARK  status: ('A' for Active; 'I' for Inactive)
REMARK    1  A    between atoms: N_3  and  C_1 
REMARK    2  A    between atoms: C_5  and  C_2 
REMARK    3  A    between atoms: C_7  and  C_5 
REMARK    4  A    between atoms: C_8  and  C_5 
REMARK    5  A    between atoms: O_15  and  C_7 
REMARK    6  A    between atoms: C_19  and  O_15 
ROOT
ATOM      1  C   UNL d   1     -39.582  15.042  19.783  0.00  0.00     0.166 A 
ATOM      2  C   UNL d   1     -40.393  14.993  19.640  0.00  0.00     0.122 A 
ATOM      3  N   UNL d   1     -39.060  15.249  19.172  0.00  0.00    -0.225 NA
ATOM      4  N   UNL d   1     -40.682  15.152  18.881  0.00  0.00    -0.241 NA
ATOM      5  C   UNL d   1     -39.358  15.406  18.416  0.00  0.00     0.101 A 
ATOM      6  C   UNL d   1     -40.165  15.358  18.274  0.00  0.00     0.099 A 
ATOM      7  C   UNL d   1     -38.842  15.610  17.816  0.00  0.00     0.021 A 
ATOM      8  C   UNL d   1     -40.458  15.516  17.519  0.00  0.00     0.021 A 
ATOM      9  C   UNL d   1     -39.942  15.720  16.915  0.00  0.00     0.002 A 
ATOM     10  C   UNL d   1     -39.131  15.769  17.058  0.00  0.00     0.002 A 
ENDROOT
BRANCH   2  11
ATOM     11  C   UNL d   1     -40.914  14.786  20.250  0.00  0.00     0.105 C 
BRANCH  11  12
ATOM     12  C   UNL d   1     -41.297  14.056  20.237  0.00  0.00     0.303 C 
ATOM     13  O   UNL d   1     -41.154  13.530  19.621  0.00  0.00    -0.259 OA
BRANCH  12  14
ATOM     14  O   UNL d   1     -41.820  13.854  20.837  0.00  0.00    -0.273 OA
BRANCH  14  15
ATOM     15  C   UNL d   1     -42.376  13.336  21.148  0.00  0.00     0.103 A 
ATOM     16  C   UNL d   1     -43.174  13.444  20.968  0.00  0.00     0.025 A 
ATOM     17  C   UNL d   1     -43.733  12.926  21.279  0.00  0.00     0.002 A 
ATOM     18  C   UNL d   1     -43.497  12.311  21.762  0.00  0.00     0.000 A 
ATOM     19  C   UNL d   1     -42.707  12.205  21.940  0.00  0.00     0.002 A 
ATOM     20  C   UNL d   1     -42.138  12.722  21.631  0.00  0.00     0.025 A 
ENDBRANCH  14  15
ENDBRANCH  12  14
ENDBRANCH  11  12
BRANCH  11  21
ATOM     21  C   UNL d   1     -41.055  15.311  20.879  0.00  0.00     0.129 C 
ATOM     22  N   UNL d   1     -41.786  15.922  20.890  0.00  0.00    -0.146 N 
ENDBRANCH  11  21
ENDBRANCH   2  11
BRANCH   1  23
ATOM     23  N   UNL d   1     -39.284  14.884  20.538  0.00  0.00    -0.284 N 
ATOM     24  C   UNL d   1     -39.269  15.484  21.112  0.00  0.00     0.106 A 
ATOM     25  C   UNL d   1     -38.972  15.320  21.862  0.00  0.00     0.118 A 
ATOM     26  C   UNL d   1     -38.957  15.922  22.433  0.00  0.00     0.028 C 
ATOM     27  O   UNL d   1     -38.690  14.570  22.052  0.00  0.00    -0.304 OA
ATOM     28  C   UNL d   1     -38.706  13.970  21.478  0.00  0.00     0.118 A 
ATOM     29  C   UNL d   1     -39.003  14.122  20.716  0.00  0.00     0.106 A 
ATOM     30  C   UNL d   1     -38.425  13.208  21.655  0.00  0.00     0.028 C 
ENDBRANCH   1  23
TORSDOF 6
ENDMDL
MODEL 2
REMARK VINA RESULT:      -1.6      1.177      3.011
REMARK  6 active torsions:
REMARK  status: ('A' for Active; 'I' for Inactive)
REMARK    1  A    between atoms: N_3  and  C_1 
REMARK    2  A    between atoms: C_5  and  C_2 
REMARK    3  A    between atoms: C_7  and  C_5 
REMARK    4  A    between atoms: C_8  and  C_5 
REMARK    5  A    between atoms: O_15  and  C_7 
REMARK    6  A    between atoms: C_19  and  O_15 
ROOT
ATOM      1  C   UNL d   1     -38.855  15.013  20.078  0.00  0.00     0.166 A 
ATOM      2  C   UNL d   1     -39.654  15.131  20.247  0.00  0.00     0.122 A 
ATOM      3  N   UNL d   1     -38.279  15.151  20.658  0.00  0.00    -0.225 NA
ATOM      4  N   UNL d   1     -39.876  15.389  21.001  0.00  0.00    -0.241 NA
ATOM      5  C   UNL d   1     -38.510  15.409  21.409  0.00  0.00     0.101 A 
ATOM      6  C   UNL d   1     -39.305  15.527  21.578  0.00  0.00     0.099 A 
ATOM      7  C   UNL d   1     -37.940  15.545  21.979  0.00  0.00     0.021 A 
ATOM      8  C   UNL d   1     -39.531  15.785  22.329  0.00  0.00     0.021 A 
ATOM      9  C   UNL d   1     -38.961  15.922  22.902  0.00  0.00     0.002 A 
ATOM     10  C   UNL d   1     -38.162  15.804  22.733  0.00  0.00     0.002 A 
ENDROOT
BRANCH   2  11
ATOM     11  C   UNL d   1     -40.231  14.992  19.667  0.00  0.00     0.105 C 
BRANCH  11  12
ATOM     12  C   UNL d   1     -40.718  14.329  19.719  0.00  0.00     0.303 C 
ATOM     13  O   UNL d   1     -40.727  13.778  19.107  0.00  0.00    -0.259 OA
BRANCH  12  14
ATOM     14  O   UNL d   1     -41.193  14.217  20.379  0.00  0.00    -0.273 OA
BRANCH  14  15
ATOM     15  C   UNL d   1     -41.810  13.823  20.749  0.00  0.00     0.103 A 
ATOM     16  C   UNL d   1     -42.531  14.211  20.856  0.00  0.00     0.025 A 
ATOM     17  C   UNL d   1     -43.152  13.819  21.227  0.00  0.00     0.002 A 
ATOM     18  C   UNL d   1     -43.053  13.050  21.486  0.00  0.00     0.000 A 
ATOM     19  C   UNL d   1     -42.340  12.666  21.380  0.00  0.00     0.002 A 
ATOM     20  C   UNL d   1     -41.710  13.055  21.008  0.00  0.00     0.025 A 
ENDBRANCH  14  15
ENDBRANCH  12  14
ENDBRANCH  11  12
BRANCH  11  21
ATOM     21  C   UNL d   1     -40.322  15.519  19.031  0.00  0.00     0.129 C 
ATOM     22  N   UNL d   1     -41.156  15.919  18.806  0.00  0.00    -0.146 N 
ENDBRANCH  11  21
ENDBRANCH   2  11
BRANCH   1  23
ATOM     23  N   UNL d   1     -38.626  14.755  19.326  0.00  0.00    -0.284 N 
ATOM     24  C   UNL d   1     -38.539  13.943  19.174  0.00  0.00     0.106 A 
ATOM     25  C   UNL d   1     -38.310  13.693  18.424  0.00  0.00     0.118 A 
ATOM     26  C   UNL d   1     -38.224  12.882  18.276  0.00  0.00     0.028 C 
ATOM     27  O   UNL d   1     -38.165  14.237  17.822  0.00  0.00    -0.304 OA
ATOM     28  C   UNL d   1     -38.252  15.048  17.974  0.00  0.00     0.118 A 
ATOM     29  C   UNL d   1     -38.483  15.315  18.728  0.00  0.00     0.106 A 
ATOM     30  C   UNL d   1     -38.110  15.608  17.376  0.00  0.00     0.028 C 
ENDBRANCH   1  23
TORSDOF 6
ENDMDL
MODEL 3
REMARK VINA RESULT:      -0.8      5.687      9.063
REMARK  6 active torsions:
REMARK  status: ('A' for Active; 'I' for Inactive)
REMARK    1  A    between atoms: N_3  and  C_1 
REMARK    2  A    between atoms: C_5  and  C_2 
REMARK    3  A    between atoms: C_7  and  C_5 
REMARK    4  A    between atoms: C_8  and  C_5 
REMARK    5  A    between atoms: O_15  and  C_7 
REMARK    6  A    between atoms: C_19  and  O_15 
ROOT
ATOM      1  C   UNL d   1     -49.171  13.293  22.730  0.00  0.00     0.166 A 
ATOM      2  C   UNL d   1     -48.612  13.857  22.509  0.00  0.00     0.122 A 
ATOM      3  N   UNL d   1     -49.885  13.525  23.084  0.00  0.00    -0.225 NA
ATOM      4  N   UNL d   1     -48.767  14.658  22.644  0.00  0.00    -0.241 NA
ATOM      5  C   UNL d   1     -50.032  14.329  23.215  0.00  0.00     0.101 A 
ATOM      6  C   UNL d   1     -49.476  14.891  22.995  0.00  0.00     0.099 A 
ATOM      7  C   UNL d   1     -50.736  14.556  23.563  0.00  0.00     0.021 A 
ATOM      8  C   UNL d   1     -49.627  15.691  23.127  0.00  0.00     0.021 A 
ATOM      9  C   UNL d   1     -50.332  15.922  23.477  0.00  0.00     0.002 A 
ATOM     10  C   UNL d   1     -50.891  15.357  23.698  0.00  0.00     0.002 A 
ENDROOT
BRANCH   2  11
ATOM     11  C   UNL d   1     -47.899  13.624  22.156  0.00  0.00     0.105 C 
BRANCH  11  12
ATOM     12  C   UNL d   1     -47.192  13.677  22.578  0.00  0.00     0.303 C 
ATOM     13  O   UNL d   1     -47.205  13.877  23.376  0.00  0.00    -0.259 OA
BRANCH  12  14
ATOM     14  O   UNL d   1     -46.477  13.531  22.202  0.00  0.00    -0.273 OA
BRANCH  14  15
ATOM     15  C   UNL d   1     -45.717  13.218  22.221  0.00  0.00     0.103 A 
ATOM     16  C   UNL d   1     -45.586  12.498  22.600  0.00  0.00     0.025 A 
ATOM     17  C   UNL d   1     -44.826  12.182  22.620  0.00  0.00     0.002 A 
ATOM     18  C   UNL d   1     -44.208  12.582  22.266  0.00  0.00     0.000 A 
ATOM     19  C   UNL d   1     -44.338  13.295  21.890  0.00  0.00     0.002 A 
ATOM     20  C   UNL d   1     -45.101  13.619  21.866  0.00  0.00     0.025 A 
ENDBRANCH  14  15
ENDBRANCH  12  14
ENDBRANCH  11  12
BRANCH  11  21
ATOM     21  C   UNL d   1     -47.890  13.337  21.376  0.00  0.00     0.129 C 
ATOM     22  N   UNL d   1     -47.828  13.905  20.615  0.00  0.00    -0.146 N 
ENDBRANCH  11  21
ENDBRANCH   2  11
BRANCH   1  23
ATOM     23  N   UNL d   1     -49.023  12.490  22.599  0.00  0.00    -0.284 N 
ATOM     24  C   UNL d   1     -49.178  12.154  21.856  0.00  0.00     0.106 A 
ATOM     25  C   UNL d   1     -49.028  11.354  21.732  0.00  0.00     0.118 A 
ATOM     26  C   UNL d   1     -49.184  11.023  20.988  0.00  0.00     0.028 C 
ATOM     27  O   UNL d   1     -48.726  10.882  22.336  0.00  0.00    -0.304 OA
ATOM     28  C   UNL d   1     -48.572  11.217  23.079  0.00  0.00     0.118 A 
ATOM     29  C   UNL d   1     -48.719  12.025  23.218  0.00  0.00     0.106 A 
ATOM     30  C   UNL d   1     -48.267  10.752  23.698  0.00  0.00     0.028 C 
ENDBRANCH   1  23
TORSDOF 6
ENDMDL
