MODEL 1
REMARK VINA RESULT:      -4.6      0.000      0.000
REMARK  6 active torsions:
REMARK  status: ('A' for Active; 'I' for Inactive)
REMARK       I    between atoms: C_2  and  N_1 
REMARK    1  A    between atoms: C_4  and  N_1 
REMARK    2  A    between atoms: C_11  and  N_1 
REMARK    3  A    between atoms: C_3  and  C_2 
REMARK    4  A    between atoms: C_5  and  C_4 
REMARK       I    between atoms: N_10  and  C_5 
REMARK    5  A    between atoms: C_21  and  N_10 
REMARK    6  A    between atoms: C_13  and  C_11 
ROOT
ATOM      1  N   UNL d   1     -39.701  14.499  19.794  0.00  0.00    -0.281 N 
ATOM      2  C   UNL d   1     -39.540  14.573  18.988  0.00  0.00     0.263 C 
ATOM      3  O   UNL d   1     -40.108  14.406  18.433  0.00  0.00    -0.267 OA
ENDROOT
BRANCH   1   4
ATOM      4  C   UNL d   1     -40.905  14.095  20.418  0.00  0.00     0.181 A 
ATOM      5  C   UNL d   1     -41.531  14.112  20.741  0.00  0.00     0.007 A 
ATOM      6  C   UNL d   1     -41.857  14.834  20.907  0.00  0.00    -0.002 A 
ATOM      7  C   UNL d   1     -41.466  15.520  20.703  0.00  0.00    -0.001 A 
ATOM      8  C   UNL d   1     -40.737  15.473  20.326  0.00  0.00    -0.002 A 
ATOM      9  C   UNL d   1     -40.411  14.750  20.160  0.00  0.00     0.007 A 
BRANCH   4  10
ATOM     10  C   UNL d   1     -42.054  13.505  21.014  0.00  0.00     0.282 C 
ATOM     11  N   UNL d   1     -42.710  13.079  20.748  0.00  0.00    -0.210 NA
ATOM     12  O   UNL d   1     -41.959  13.678  21.812  0.00  0.00    -0.268 OA
BRANCH  11  13
ATOM     13  C   UNL d   1     -43.278  12.823  21.289  0.00  0.00     0.084 A 
ATOM     14  C   UNL d   1     -44.021  13.150  21.391  0.00  0.00     0.019 A 
ATOM     15  C   UNL d   1     -44.399  12.734  21.974  0.00  0.00     0.002 A 
ATOM     16  C   UNL d   1     -43.890  12.144  22.237  0.00  0.00     0.002 A 
ATOM     17  C   UNL d   1     -43.206  12.206  21.812  0.00  0.00     0.019 A 
ENDBRANCH  11  13
ENDBRANCH   4  10
ENDBRANCH   1   4
BRANCH   1  18
ATOM     18  C   UNL d   1     -39.051  14.693  20.331  0.00  0.00     0.104 C 
BRANCH  18  19
ATOM     19  C   UNL d   1     -38.607  14.049  20.723  0.00  0.00     0.117 A 
ATOM     20  O   UNL d   1     -38.359  13.402  20.391  0.00  0.00    -0.304 OA
ATOM     21  C   UNL d   1     -37.942  12.922  20.994  0.00  0.00     0.123 A 
ATOM     22  C   UNL d   1     -37.940  13.280  21.693  0.00  0.00     0.029 A 
ATOM     23  C   UNL d   1     -38.369  14.031  21.561  0.00  0.00     0.028 A 
ENDBRANCH  18  19
ENDBRANCH   1  18
BRANCH   2  24
ATOM     24  C   UNL d   1     -38.950  14.783  18.231  0.00  0.00     0.076 A 
ATOM     25  C   UNL d   1     -39.352  14.129  17.773  0.00  0.00     0.107 A 
ATOM     26  N   UNL d   1     -39.114  13.948  16.962  0.00  0.00    -0.206 NA
ATOM     27  C   UNL d   1     -38.495  14.397  16.603  0.00  0.00     0.279 A 
ATOM     28  C   UNL d   1     -38.087  15.042  17.031  0.00  0.00     0.063 A 
ATOM     29  O   UNL d   1     -38.262  14.207  15.785  0.00  0.00    -0.265 OA
ATOM     30  C   UNL d   1     -38.321  15.229  17.846  0.00  0.00     0.011 A 
ENDBRANCH   2  24
TORSDOF 6
ENDMDL
MODEL 2
REMARK VINA RESULT:      -3.4      4.299      8.451
REMARK  6 active torsions:
REMARK  status: ('A' for Active; 'I' for Inactive)
REMARK       I    between atoms: C_2  and  N_1 
REMARK    1  A    between atoms: C_4  and  N_1 
REMARK    2  A    between atoms: C_11  and  N_1 
REMARK    3  A    between atoms: C_3  and  C_2 
REMARK    4  A    between atoms: C_5  and  C_4 
REMARK       I    between atoms: N_10  and  C_5 
REMARK    5  A    between atoms: C_21  and  N_10 
REMARK    6  A    between atoms: C_13  and  C_11 
ROOT
ATOM      1  N   UNL d   1     -47.610  13.228  22.581  0.00  0.00    -0.281 N 
ATOM      2  C   UNL d   1     -48.220  13.517  22.107  0.00  0.00     0.263 C 
ATOM      3  O   UNL d   1     -48.061  13.867  21.393  0.00  0.00    -0.267 OA
ENDROOT
BRANCH   1   4
ATOM      4  C   UNL d   1     -46.217  13.243  22.331  0.00  0.00     0.181 A 
ATOM      5  C   UNL d   1     -45.538  13.432  22.330  0.00  0.00     0.007 A 
ATOM      6  C   UNL d   1     -45.327  14.101  22.736  0.00  0.00    -0.002 A 
ATOM      7  C   UNL d   1     -45.888  14.538  23.133  0.00  0.00    -0.001 A 
ATOM      8  C   UNL d   1     -46.674  14.296  23.119  0.00  0.00    -0.002 A 
ATOM      9  C   UNL d   1     -46.886  13.628  22.713  0.00  0.00     0.007 A 
BRANCH   4  10
ATOM     10  C   UNL d   1     -44.847  13.095  21.976  0.00  0.00     0.282 C 
ATOM     11  N   UNL d   1     -44.331  12.464  21.850  0.00  0.00    -0.210 NA
ATOM     12  O   UNL d   1     -44.590  13.872  21.898  0.00  0.00    -0.268 OA
BRANCH  11  13
ATOM     13  C   UNL d   1     -43.546  12.612  21.643  0.00  0.00     0.084 A 
ATOM     14  C   UNL d   1     -43.286  12.880  20.916  0.00  0.00     0.019 A 
ATOM     15  C   UNL d   1     -42.481  12.950  20.948  0.00  0.00     0.002 A 
ATOM     16  C   UNL d   1     -42.235  12.725  21.700  0.00  0.00     0.002 A 
ATOM     17  C   UNL d   1     -42.894  12.519  22.119  0.00  0.00     0.019 A 
ENDBRANCH  11  13
ENDBRANCH   4  10
ENDBRANCH   1   4
BRANCH   1  18
ATOM     18  C   UNL d   1     -47.849  12.867  23.330  0.00  0.00     0.104 C 
BRANCH  18  19
ATOM     19  C   UNL d   1     -47.923  11.996  23.387  0.00  0.00     0.117 A 
ATOM     20  O   UNL d   1     -47.393  11.482  23.175  0.00  0.00    -0.304 OA
ATOM     21  C   UNL d   1     -47.706  10.679  23.332  0.00  0.00     0.123 A 
ATOM     22  C   UNL d   1     -48.428  10.708  23.641  0.00  0.00     0.029 A 
ATOM     23  C   UNL d   1     -48.612  11.561  23.695  0.00  0.00     0.028 A 
ENDBRANCH  18  19
ENDBRANCH   1  18
BRANCH   2  24
ATOM     24  C   UNL d   1     -49.167  13.691  21.913  0.00  0.00     0.076 A 
ATOM     25  C   UNL d   1     -49.013  14.556  22.080  0.00  0.00     0.107 A 
ATOM     26  N   UNL d   1     -49.649  15.137  22.020  0.00  0.00    -0.206 NA
ATOM     27  C   UNL d   1     -50.423  14.881  21.801  0.00  0.00     0.279 A 
ATOM     28  C   UNL d   1     -50.600  14.041  21.632  0.00  0.00     0.063 A 
ATOM     29  O   UNL d   1     -51.059  15.475  21.743  0.00  0.00    -0.265 OA
ATOM     30  C   UNL d   1     -49.964  13.452  21.691  0.00  0.00     0.011 A 
ENDBRANCH   2  24
TORSDOF 6
ENDMDL
MODEL 3
REMARK VINA RESULT:      -3.0      4.053      8.225
REMARK  6 active torsions:
REMARK  status: ('A' for Active; 'I' for Inactive)
REMARK       I    between atoms: C_2  and  N_1 
REMARK    1  A    between atoms: C_4  and  N_1 
REMARK    2  A    between atoms: C_11  and  N_1 
REMARK    3  A    between atoms: C_3  and  C_2 
REMARK    4  A    between atoms: C_5  and  C_4 
REMARK       I    between atoms: N_10  and  C_5 
REMARK    5  A    between atoms: C_21  and  N_10 
REMARK    6  A    between atoms: C_13  and  C_11 
ROOT
ATOM      1  N   UNL d   1     -47.233  12.968  22.887  0.00  0.00    -0.281 N 
ATOM      2  C   UNL d   1     -47.934  13.224  22.532  0.00  0.00     0.263 C 
ATOM      3  O   UNL d   1     -47.920  13.628  21.829  0.00  0.00    -0.267 OA
ENDROOT
BRANCH   1   4
ATOM      4  C   UNL d   1     -45.904  13.134  22.431  0.00  0.00     0.181 A 
ATOM      5  C   UNL d   1     -45.281  13.422  22.272  0.00  0.00     0.007 A 
ATOM      6  C   UNL d   1     -45.169  14.207  22.434  0.00  0.00    -0.002 A 
ATOM      7  C   UNL d   1     -45.766  14.648  22.773  0.00  0.00    -0.001 A 
ATOM      8  C   UNL d   1     -46.484  14.287  22.948  0.00  0.00    -0.002 A 
ATOM      9  C   UNL d   1     -46.596  13.502  22.786  0.00  0.00     0.007 A 
BRANCH   4  10
ATOM     10  C   UNL d   1     -44.574  13.109  21.925  0.00  0.00     0.282 C 
ATOM     11  N   UNL d   1     -44.066  12.537  21.616  0.00  0.00    -0.210 NA
ATOM     12  O   UNL d   1     -44.334  13.893  21.996  0.00  0.00    -0.268 OA
BRANCH  11  13
ATOM     13  C   UNL d   1     -43.306  12.751  21.375  0.00  0.00     0.084 A 
ATOM     14  C   UNL d   1     -43.105  13.050  20.640  0.00  0.00     0.019 A 
ATOM     15  C   UNL d   1     -42.308  13.185  20.635  0.00  0.00     0.002 A 
ATOM     16  C   UNL d   1     -42.008  12.970  21.370  0.00  0.00     0.002 A 
ATOM     17  C   UNL d   1     -42.627  12.705  21.817  0.00  0.00     0.019 A 
ENDBRANCH  11  13
ENDBRANCH   4  10
ENDBRANCH   1   4
BRANCH   1  18
ATOM     18  C   UNL d   1     -47.319  12.543  23.635  0.00  0.00     0.104 C 
BRANCH  18  19
ATOM     19  C   UNL d   1     -47.233  11.672  23.651  0.00  0.00     0.117 A 
ATOM     20  O   UNL d   1     -47.804  11.159  23.626  0.00  0.00    -0.304 OA
ATOM     21  C   UNL d   1     -47.458  10.355  23.655  0.00  0.00     0.123 A 
ATOM     22  C   UNL d   1     -46.674  10.383  23.697  0.00  0.00     0.029 A 
ATOM     23  C   UNL d   1     -46.480  11.235  23.697  0.00  0.00     0.028 A 
ENDBRANCH  18  19
ENDBRANCH   1  18
BRANCH   2  24
ATOM     24  C   UNL d   1     -48.911  13.316  22.496  0.00  0.00     0.076 A 
ATOM     25  C   UNL d   1     -48.876  13.047  21.644  0.00  0.00     0.107 A 
ATOM     26  N   UNL d   1     -49.597  12.977  21.174  0.00  0.00    -0.206 NA
ATOM     27  C   UNL d   1     -50.341  13.166  21.528  0.00  0.00     0.279 A 
ATOM     28  C   UNL d   1     -50.401  13.430  22.359  0.00  0.00     0.063 A 
ATOM     29  O   UNL d   1     -51.063  13.092  21.046  0.00  0.00    -0.265 OA
ATOM     30  C   UNL d   1     -49.679  13.503  22.837  0.00  0.00     0.011 A 
ENDBRANCH   2  24
TORSDOF 6
ENDMDL
MODEL 4
REMARK VINA RESULT:      -2.5      1.061      4.950
REMARK  6 active torsions:
REMARK  status: ('A' for Active; 'I' for Inactive)
REMARK       I    between atoms: C_2  and  N_1 
REMARK    1  A    between atoms: C_4  and  N_1 
REMARK    2  A    between atoms: C_11  and  N_1 
REMARK    3  A    between atoms: C_3  and  C_2 
REMARK    4  A    between atoms: C_5  and  C_4 
REMARK       I    between atoms: N_10  and  C_5 
REMARK    5  A    between atoms: C_21  and  N_10 
REMARK    6  A    between atoms: C_13  and  C_11 
ROOT
ATOM      1  N   UNL d   1     -40.724  14.036  20.613  0.00  0.00    -0.281 N 
ATOM      2  C   UNL d   1     -41.391  13.564  20.734  0.00  0.00     0.263 C 
ATOM      3  O   UNL d   1     -41.810  13.269  20.106  0.00  0.00    -0.267 OA
ENDROOT
BRANCH   1   4
ATOM      4  C   UNL d   1     -40.147  14.447  19.389  0.00  0.00     0.181 A 
ATOM      5  C   UNL d   1     -39.969  14.836  18.829  0.00  0.00     0.007 A 
ATOM      6  C   UNL d   1     -40.262  15.589  18.776  0.00  0.00    -0.002 A 
ATOM      7  C   UNL d   1     -40.749  15.884  19.360  0.00  0.00    -0.001 A 
ATOM      8  C   UNL d   1     -40.941  15.410  20.003  0.00  0.00    -0.002 A 
ATOM      9  C   UNL d   1     -40.648  14.656  20.056  0.00  0.00     0.007 A 
BRANCH   4  10
ATOM     10  C   UNL d   1     -39.484  14.682  18.151  0.00  0.00     0.282 C 
ATOM     11  N   UNL d   1     -38.871  15.167  17.888  0.00  0.00    -0.210 NA
ATOM     12  O   UNL d   1     -39.869  14.170  17.635  0.00  0.00    -0.268 OA
BRANCH  11  13
ATOM     13  C   UNL d   1     -38.639  15.141  17.096  0.00  0.00     0.084 A 
ATOM     14  C   UNL d   1     -38.799  15.711  16.532  0.00  0.00     0.019 A 
ATOM     15  C   UNL d   1     -38.473  15.469  15.833  0.00  0.00     0.002 A 
ATOM     16  C   UNL d   1     -38.107  14.743  15.959  0.00  0.00     0.002 A 
ATOM     17  C   UNL d   1     -38.214  14.550  16.737  0.00  0.00     0.019 A 
ENDBRANCH  11  13
ENDBRANCH   4  10
ENDBRANCH   1   4
BRANCH   1  18
ATOM     18  C   UNL d   1     -40.324  14.318  21.327  0.00  0.00     0.104 C 
BRANCH  18  19
ATOM     19  C   UNL d   1     -39.572  13.946  21.577  0.00  0.00     0.117 A 
ATOM     20  O   UNL d   1     -39.321  13.250  21.371  0.00  0.00    -0.304 OA
ATOM     21  C   UNL d   1     -38.545  13.110  21.753  0.00  0.00     0.123 A 
ATOM     22  C   UNL d   1     -38.326  13.725  22.191  0.00  0.00     0.029 A 
ATOM     23  C   UNL d   1     -38.977  14.303  22.103  0.00  0.00     0.028 A 
ENDBRANCH  18  19
ENDBRANCH   1  18
BRANCH   2  24
ATOM     24  C   UNL d   1     -42.041  13.103  21.307  0.00  0.00     0.076 A 
ATOM     25  C   UNL d   1     -42.687  13.399  20.764  0.00  0.00     0.107 A 
ATOM     26  N   UNL d   1     -43.515  13.203  20.915  0.00  0.00    -0.206 NA
ATOM     27  C   UNL d   1     -43.711  12.727  21.585  0.00  0.00     0.279 A 
ATOM     28  C   UNL d   1     -43.098  12.426  22.131  0.00  0.00     0.063 A 
ATOM     29  O   UNL d   1     -44.549  12.535  21.729  0.00  0.00    -0.265 OA
ATOM     30  C   UNL d   1     -42.264  12.619  21.985  0.00  0.00     0.011 A 
ENDBRANCH   2  24
TORSDOF 6
ENDMDL
MODEL 5
REMARK VINA RESULT:      -2.0      1.085      5.005
REMARK  6 active torsions:
REMARK  status: ('A' for Active; 'I' for Inactive)
REMARK       I    between atoms: C_2  and  N_1 
REMARK    1  A    between atoms: C_4  and  N_1 
REMARK    2  A    between atoms: C_11  and  N_1 
REMARK    3  A    between atoms: C_3  and  C_2 
REMARK    4  A    between atoms: C_5  and  C_4 
REMARK       I    between atoms: N_10  and  C_5 
REMARK    5  A    between atoms: C_21  and  N_10 
REMARK    6  A    between atoms: C_13  and  C_11 
ROOT
ATOM      1  N   UNL d   1     -40.581  14.464  20.010  0.00  0.00    -0.281 N 
ATOM      2  C   UNL d   1     -41.304  14.124  20.217  0.00  0.00     0.263 C 
ATOM      3  O   UNL d   1     -41.744  13.720  19.668  0.00  0.00    -0.267 OA
ENDROOT
BRANCH   1   4
ATOM      4  C   UNL d   1     -39.932  14.459  18.753  0.00  0.00     0.181 A 
ATOM      5  C   UNL d   1     -39.694  14.658  18.120  0.00  0.00     0.007 A 
ATOM      6  C   UNL d   1     -39.885  15.400  17.856  0.00  0.00    -0.002 A 
ATOM      7  C   UNL d   1     -40.340  15.897  18.315  0.00  0.00    -0.001 A 
ATOM      8  C   UNL d   1     -40.604  15.640  19.049  0.00  0.00    -0.002 A 
ATOM      9  C   UNL d   1     -40.414  14.898  19.314  0.00  0.00     0.007 A 
BRANCH   4  10
ATOM     10  C   UNL d   1     -39.221  14.271  17.534  0.00  0.00     0.282 C 
ATOM     11  N   UNL d   1     -38.444  14.374  17.277  0.00  0.00    -0.210 NA
ATOM     12  O   UNL d   1     -39.802  13.992  17.022  0.00  0.00    -0.268 OA
BRANCH  11  13
ATOM     13  C   UNL d   1     -38.243  14.195  16.497  0.00  0.00     0.084 A 
ATOM     14  C   UNL d   1     -38.126  13.445  16.194  0.00  0.00     0.019 A 
ATOM     15  C   UNL d   1     -37.939  13.518  15.410  0.00  0.00     0.002 A 
ATOM     16  C   UNL d   1     -37.940  14.319  15.221  0.00  0.00     0.002 A 
ATOM     17  C   UNL d   1     -38.127  14.726  15.894  0.00  0.00     0.019 A 
ENDBRANCH  11  13
ENDBRANCH   4  10
ENDBRANCH   1   4
BRANCH   1  18
ATOM     18  C   UNL d   1     -40.163  14.881  20.643  0.00  0.00     0.104 C 
BRANCH  18  19
ATOM     19  C   UNL d   1     -39.547  14.461  21.104  0.00  0.00     0.117 A 
ATOM     20  O   UNL d   1     -39.240  13.778  20.933  0.00  0.00    -0.304 OA
ATOM     21  C   UNL d   1     -38.649  13.577  21.548  0.00  0.00     0.123 A 
ATOM     22  C   UNL d   1     -38.599  14.142  22.092  0.00  0.00     0.029 A 
ATOM     23  C   UNL d   1     -39.177  14.747  21.838  0.00  0.00     0.028 A 
ENDBRANCH  18  19
ENDBRANCH   1  18
BRANCH   2  24
ATOM     24  C   UNL d   1     -42.019  13.913  20.856  0.00  0.00     0.076 A 
ATOM     25  C   UNL d   1     -42.062  13.097  20.495  0.00  0.00     0.107 A 
ATOM     26  N   UNL d   1     -42.626  12.513  20.791  0.00  0.00    -0.206 NA
ATOM     27  C   UNL d   1     -43.139  12.721  21.429  0.00  0.00     0.279 A 
ATOM     28  C   UNL d   1     -43.116  13.513  21.799  0.00  0.00     0.063 A 
ATOM     29  O   UNL d   1     -43.704  12.126  21.722  0.00  0.00    -0.265 OA
ATOM     30  C   UNL d   1     -42.551  14.104  21.506  0.00  0.00     0.011 A 
ENDBRANCH   2  24
TORSDOF 6
ENDMDL
MODEL 6
REMARK VINA RESULT:      -1.9      2.653      4.583
REMARK  6 active torsions:
REMARK  status: ('A' for Active; 'I' for Inactive)
REMARK       I    between atoms: C_2  and  N_1 
REMARK    1  A    between atoms: C_4  and  N_1 
REMARK    2  A    between atoms: C_11  and  N_1 
REMARK    3  A    between atoms: C_3  and  C_2 
REMARK    4  A    between atoms: C_5  and  C_4 
REMARK       I    between atoms: N_10  and  C_5 
REMARK    5  A    between atoms: C_21  and  N_10 
REMARK    6  A    between atoms: C_13  and  C_11 
ROOT
ATOM      1  N   UNL d   1     -38.635  13.840  19.300  0.00  0.00    -0.281 N 
ATOM      2  C   UNL d   1     -38.734  13.789  20.118  0.00  0.00     0.263 C 
ATOM      3  O   UNL d   1     -39.365  14.145  20.483  0.00  0.00    -0.267 OA
ENDROOT
BRANCH   1   4
ATOM      4  C   UNL d   1     -39.454  14.498  18.353  0.00  0.00     0.181 A 
ATOM      5  C   UNL d   1     -39.705  14.978  17.902  0.00  0.00     0.007 A 
ATOM      6  C   UNL d   1     -39.284  15.663  17.799  0.00  0.00    -0.002 A 
ATOM      7  C   UNL d   1     -38.590  15.787  18.208  0.00  0.00    -0.001 A 
ATOM      8  C   UNL d   1     -38.319  15.210  18.728  0.00  0.00    -0.002 A 
ATOM      9  C   UNL d   1     -38.740  14.526  18.832  0.00  0.00     0.007 A 
BRANCH   4  10
ATOM     10  C   UNL d   1     -40.394  15.002  17.411  0.00  0.00     0.282 C 
ATOM     11  N   UNL d   1     -41.215  15.074  17.371  0.00  0.00    -0.210 NA
ATOM     12  O   UNL d   1     -39.917  15.262  16.793  0.00  0.00    -0.268 OA
BRANCH  11  13
ATOM     13  C   UNL d   1     -41.565  15.410  16.704  0.00  0.00     0.084 A 
ATOM     14  C   UNL d   1     -42.356  15.604  16.625  0.00  0.00     0.019 A 
ATOM     15  C   UNL d   1     -42.464  15.919  15.888  0.00  0.00     0.002 A 
ATOM     16  C   UNL d   1     -41.737  15.922  15.502  0.00  0.00     0.002 A 
ATOM     17  C   UNL d   1     -41.192  15.608  16.010  0.00  0.00     0.019 A 
ENDBRANCH  11  13
ENDBRANCH   4  10
ENDBRANCH   1   4
BRANCH   1  18
ATOM     18  C   UNL d   1     -37.940  13.439  18.976  0.00  0.00     0.104 C 
BRANCH  18  19
ATOM     19  C   UNL d   1     -38.036  12.672  18.565  0.00  0.00     0.117 A 
ATOM     20  O   UNL d   1     -38.039  11.978  18.895  0.00  0.00    -0.304 OA
ATOM     21  C   UNL d   1     -38.150  11.373  18.270  0.00  0.00     0.123 A 
ATOM     22  C   UNL d   1     -38.214  11.704  17.560  0.00  0.00     0.029 A 
ATOM     23  C   UNL d   1     -38.145  12.563  17.707  0.00  0.00     0.028 A 
ENDBRANCH  18  19
ENDBRANCH   1  18
BRANCH   2  24
ATOM     24  C   UNL d   1     -38.462  13.490  21.013  0.00  0.00     0.076 A 
ATOM     25  C   UNL d   1     -39.177  13.917  21.341  0.00  0.00     0.107 A 
ATOM     26  N   UNL d   1     -39.342  13.913  22.189  0.00  0.00    -0.206 NA
ATOM     27  C   UNL d   1     -38.821  13.499  22.709  0.00  0.00     0.279 A 
ATOM     28  C   UNL d   1     -38.117  13.075  22.414  0.00  0.00     0.063 A 
ATOM     29  O   UNL d   1     -38.997  13.500  23.563  0.00  0.00    -0.265 OA
ATOM     30  C   UNL d   1     -37.944  13.075  21.562  0.00  0.00     0.011 A 
ENDBRANCH   2  24
TORSDOF 6
ENDMDL
