MODEL 1
REMARK VINA RESULT:      -8.3      0.000      0.000
REMARK  5 active torsions:
REMARK  status: ('A' for Active; 'I' for Inactive)
REMARK    1  A    between atoms: C_7  and  N_2 
REMARK    2  A    between atoms: C_15  and  C_7 
REMARK    3  A    between atoms: C_8  and  O_14 
REMARK    4  A    between atoms: O_17  and  C_9 
REMARK    5  A    between atoms: O_14  and  C_15 
ROOT
ATOM      1  C   UNL d   1      53.005  32.952  52.756  0.00  0.00     0.110 C 
ENDROOT
BRANCH   1   2
ATOM      2  N   UNL d   1      52.659  33.642  53.056  0.00  0.00    -0.266 N 
ATOM      3  C   UNL d   1      51.971  34.034  52.803  0.00  0.00     0.296 A 
ATOM      4  S   UNL d   1      51.864  34.701  53.287  0.00  0.00    -0.025 SA
ATOM      5  O   UNL d   1      51.486  33.798  52.179  0.00  0.00    -0.259 OA
ATOM      6  C   UNL d   1      52.485  34.717  53.836  0.00  0.00     0.050 A 
ATOM      7  C   UNL d   1      52.673  35.245  54.454  0.00  0.00     0.008 A 
ATOM      8  C   UNL d   1      52.974  34.068  53.695  0.00  0.00     0.074 A 
ATOM      9  C   UNL d   1      53.341  35.118  54.919  0.00  0.00     0.001 A 
ATOM     10  C   UNL d   1      53.827  34.467  54.775  0.00  0.00     0.002 A 
ATOM     11  C   UNL d   1      53.646  33.944  54.167  0.00  0.00     0.018 A 
ENDBRANCH   1   2
BRANCH   1  12
ATOM     12  C   UNL d   1      52.711  32.216  52.972  0.00  0.00     0.142 C 
BRANCH  12  13
ATOM     13  O   UNL d   1      52.999  31.526  52.600  0.00  0.00    -0.304 OA
BRANCH  13  14
ATOM     14  C   UNL d   1      53.021  30.813  53.021  0.00  0.00     0.100 A 
ATOM     15  C   UNL d   1      52.338  30.387  53.139  0.00  0.00     0.027 A 
ATOM     16  C   UNL d   1      52.360  29.675  53.559  0.00  0.00     0.026 A 
ATOM     17  C   UNL d   1      53.080  29.401  53.859  0.00  0.00     0.094 A 
ATOM     18  C   UNL d   1      53.767  29.845  53.733  0.00  0.00     0.026 A 
ATOM     19  C   UNL d   1      53.734  30.548  53.315  0.00  0.00     0.027 A 
BRANCH  17  20
ATOM     20  O   UNL d   1      53.108  28.696  54.277  0.00  0.00    -0.328 OA
ATOM     21  C   UNL d   1      53.399  28.684  55.049  0.00  0.00     0.181 C 
ENDBRANCH  17  20
ENDBRANCH  13  14
ENDBRANCH  12  13
ENDBRANCH   1  12
TORSDOF 5
ENDMDL
MODEL 2
REMARK VINA RESULT:      -7.9      1.945      4.301
REMARK  5 active torsions:
REMARK  status: ('A' for Active; 'I' for Inactive)
REMARK    1  A    between atoms: C_7  and  N_2 
REMARK    2  A    between atoms: C_15  and  C_7 
REMARK    3  A    between atoms: C_8  and  O_14 
REMARK    4  A    between atoms: O_17  and  C_9 
REMARK    5  A    between atoms: O_14  and  C_15 
ROOT
ATOM      1  C   UNL d   1      52.856  33.577  52.849  0.00  0.00     0.110 C 
ENDROOT
BRANCH   1   2
ATOM      2  N   UNL d   1      53.170  32.977  53.326  0.00  0.00    -0.266 N 
ATOM      3  C   UNL d   1      53.139  32.153  53.217  0.00  0.00     0.296 A 
ATOM      4  S   UNL d   1      53.538  31.796  53.853  0.00  0.00    -0.025 SA
ATOM      5  O   UNL d   1      52.774  31.766  52.587  0.00  0.00    -0.259 OA
ATOM      6  C   UNL d   1      53.813  32.400  54.350  0.00  0.00     0.050 A 
ATOM      7  C   UNL d   1      54.245  32.385  55.063  0.00  0.00     0.008 A 
ATOM      8  C   UNL d   1      53.588  33.125  54.028  0.00  0.00     0.074 A 
ATOM      9  C   UNL d   1      54.445  33.089  55.442  0.00  0.00     0.001 A 
ATOM     10  C   UNL d   1      54.217  33.812  55.116  0.00  0.00     0.002 A 
ATOM     11  C   UNL d   1      53.791  33.832  54.413  0.00  0.00     0.018 A 
ENDBRANCH   1   2
BRANCH   1  12
ATOM     12  C   UNL d   1      52.043  33.676  52.792  0.00  0.00     0.142 C 
BRANCH  12  13
ATOM     13  O   UNL d   1      51.729  34.380  52.470  0.00  0.00    -0.304 OA
BRANCH  13  14
ATOM     14  C   UNL d   1      50.923  34.423  52.288  0.00  0.00     0.100 A 
ATOM     15  C   UNL d   1      50.383  34.610  52.867  0.00  0.00     0.027 A 
ATOM     16  C   UNL d   1      49.577  34.653  52.685  0.00  0.00     0.026 A 
ATOM     17  C   UNL d   1      49.325  34.504  51.912  0.00  0.00     0.094 A 
ATOM     18  C   UNL d   1      49.886  34.314  51.332  0.00  0.00     0.026 A 
ATOM     19  C   UNL d   1      50.681  34.275  51.523  0.00  0.00     0.027 A 
BRANCH  17  20
ATOM     20  O   UNL d   1      48.528  34.545  51.725  0.00  0.00    -0.328 OA
ATOM     21  C   UNL d   1      48.290  34.818  50.984  0.00  0.00     0.181 C 
ENDBRANCH  17  20
ENDBRANCH  13  14
ENDBRANCH  12  13
ENDBRANCH   1  12
TORSDOF 5
ENDMDL
MODEL 3
REMARK VINA RESULT:      -7.9      0.945      1.788
REMARK  5 active torsions:
REMARK  status: ('A' for Active; 'I' for Inactive)
REMARK    1  A    between atoms: C_7  and  N_2 
REMARK    2  A    between atoms: C_15  and  C_7 
REMARK    3  A    between atoms: C_8  and  O_14 
REMARK    4  A    between atoms: O_17  and  C_9 
REMARK    5  A    between atoms: O_14  and  C_15 
ROOT
ATOM      1  C   UNL d   1      52.759  32.897  52.635  0.00  0.00     0.110 C 
ENDROOT
BRANCH   1   2
ATOM      2  N   UNL d   1      52.458  33.570  53.012  0.00  0.00    -0.266 N 
ATOM      3  C   UNL d   1      52.829  34.073  53.559  0.00  0.00     0.296 A 
ATOM      4  S   UNL d   1      52.288  34.668  53.770  0.00  0.00    -0.025 SA
ATOM      5  O   UNL d   1      53.601  33.991  53.840  0.00  0.00    -0.259 OA
ATOM      6  C   UNL d   1      51.585  34.529  53.352  0.00  0.00     0.050 A 
ATOM      7  C   UNL d   1      50.855  34.931  53.333  0.00  0.00     0.008 A 
ATOM      8  C   UNL d   1      51.688  33.855  52.887  0.00  0.00     0.074 A 
ATOM      9  C   UNL d   1      50.243  34.659  52.855  0.00  0.00     0.001 A 
ATOM     10  C   UNL d   1      50.350  33.985  52.391  0.00  0.00     0.002 A 
ATOM     11  C   UNL d   1      51.068  33.584  52.405  0.00  0.00     0.018 A 
ENDBRANCH   1   2
BRANCH   1  12
ATOM     12  C   UNL d   1      52.872  32.203  53.059  0.00  0.00     0.142 C 
BRANCH  12  13
ATOM     13  O   UNL d   1      53.032  31.489  52.656  0.00  0.00    -0.304 OA
BRANCH  13  14
ATOM     14  C   UNL d   1      53.080  30.781  53.082  0.00  0.00     0.100 A 
ATOM     15  C   UNL d   1      53.709  30.646  53.580  0.00  0.00     0.027 A 
ATOM     16  C   UNL d   1      53.758  29.939  54.006  0.00  0.00     0.026 A 
ATOM     17  C   UNL d   1      53.163  29.371  53.922  0.00  0.00     0.094 A 
ATOM     18  C   UNL d   1      52.528  29.521  53.412  0.00  0.00     0.026 A 
ATOM     19  C   UNL d   1      52.490  30.224  52.995  0.00  0.00     0.027 A 
BRANCH  17  20
ATOM     20  O   UNL d   1      53.206  28.667  54.342  0.00  0.00    -0.328 OA
ATOM     21  C   UNL d   1      53.395  28.675  55.145  0.00  0.00     0.181 C 
ENDBRANCH  17  20
ENDBRANCH  13  14
ENDBRANCH  12  13
ENDBRANCH   1  12
TORSDOF 5
ENDMDL
MODEL 4
REMARK VINA RESULT:      -7.5      1.906      4.610
REMARK  5 active torsions:
REMARK  status: ('A' for Active; 'I' for Inactive)
REMARK    1  A    between atoms: C_7  and  N_2 
REMARK    2  A    between atoms: C_15  and  C_7 
REMARK    3  A    between atoms: C_8  and  O_14 
REMARK    4  A    between atoms: O_17  and  C_9 
REMARK    5  A    between atoms: O_14  and  C_15 
ROOT
ATOM      1  C   UNL d   1      53.005  32.993  52.901  0.00  0.00     0.110 C 
ENDROOT
BRANCH   1   2
ATOM      2  N   UNL d   1      53.295  32.438  53.442  0.00  0.00    -0.266 N 
ATOM      3  C   UNL d   1      53.716  32.566  54.147  0.00  0.00     0.296 A 
ATOM      4  S   UNL d   1      53.878  31.825  54.487  0.00  0.00    -0.025 SA
ATOM      5  O   UNL d   1      53.932  33.303  54.450  0.00  0.00    -0.259 OA
ATOM      6  C   UNL d   1      53.557  31.244  53.991  0.00  0.00     0.050 A 
ATOM      7  C   UNL d   1      53.543  30.411  54.039  0.00  0.00     0.008 A 
ATOM      8  C   UNL d   1      53.198  31.618  53.349  0.00  0.00     0.074 A 
ATOM      9  C   UNL d   1      53.174  29.968  53.451  0.00  0.00     0.001 A 
ATOM     10  C   UNL d   1      52.817  30.346  52.811  0.00  0.00     0.002 A 
ATOM     11  C   UNL d   1      52.828  31.167  52.759  0.00  0.00     0.018 A 
ENDBRANCH   1   2
BRANCH   1  12
ATOM     12  C   UNL d   1      52.290  33.372  53.042  0.00  0.00     0.142 C 
BRANCH  12  13
ATOM     13  O   UNL d   1      52.074  34.038  52.587  0.00  0.00    -0.304 OA
BRANCH  13  14
ATOM     14  C   UNL d   1      51.273  34.205  52.460  0.00  0.00     0.100 A 
ATOM     15  C   UNL d   1      50.802  34.441  53.080  0.00  0.00     0.027 A 
ATOM     16  C   UNL d   1      50.001  34.607  52.954  0.00  0.00     0.026 A 
ATOM     17  C   UNL d   1      49.684  34.531  52.194  0.00  0.00     0.094 A 
ATOM     18  C   UNL d   1      50.175  34.290  51.572  0.00  0.00     0.026 A 
ATOM     19  C   UNL d   1      50.966  34.128  51.708  0.00  0.00     0.027 A 
BRANCH  17  20
ATOM     20  O   UNL d   1      48.891  34.695  52.063  0.00  0.00    -0.328 OA
ATOM     21  C   UNL d   1      48.627  34.874  51.302  0.00  0.00     0.181 C 
ENDBRANCH  17  20
ENDBRANCH  13  14
ENDBRANCH  12  13
ENDBRANCH   1  12
TORSDOF 5
ENDMDL
MODEL 5
REMARK VINA RESULT:      -7.3      2.272      4.685
REMARK  5 active torsions:
REMARK  status: ('A' for Active; 'I' for Inactive)
REMARK    1  A    between atoms: C_7  and  N_2 
REMARK    2  A    between atoms: C_15  and  C_7 
REMARK    3  A    between atoms: C_8  and  O_14 
REMARK    4  A    between atoms: O_17  and  C_9 
REMARK    5  A    between atoms: O_14  and  C_15 
ROOT
ATOM      1  C   UNL d   1      52.198  34.202  52.950  0.00  0.00     0.110 C 
ENDROOT
BRANCH   1   2
ATOM      2  N   UNL d   1      52.699  34.210  53.609  0.00  0.00    -0.266 N 
ATOM      3  C   UNL d   1      52.884  34.841  54.118  0.00  0.00     0.296 A 
ATOM      4  S   UNL d   1      53.415  34.559  54.692  0.00  0.00    -0.025 SA
ATOM      5  O   UNL d   1      52.588  35.609  54.058  0.00  0.00    -0.259 OA
ATOM      6  C   UNL d   1      53.556  33.757  54.535  0.00  0.00     0.050 A 
ATOM      7  C   UNL d   1      54.032  33.186  54.914  0.00  0.00     0.008 A 
ATOM      8  C   UNL d   1      53.117  33.542  53.870  0.00  0.00     0.074 A 
ATOM      9  C   UNL d   1      54.062  32.416  54.627  0.00  0.00     0.001 A 
ATOM     10  C   UNL d   1      53.622  32.204  53.962  0.00  0.00     0.002 A 
ATOM     11  C   UNL d   1      53.151  32.763  53.585  0.00  0.00     0.018 A 
ENDBRANCH   1   2
BRANCH   1  12
ATOM     12  C   UNL d   1      51.400  34.377  53.037  0.00  0.00     0.142 C 
BRANCH  12  13
ATOM     13  O   UNL d   1      50.835  34.009  52.544  0.00  0.00    -0.304 OA
BRANCH  13  14
ATOM     14  C   UNL d   1      50.109  34.382  52.405  0.00  0.00     0.100 A 
ATOM     15  C   UNL d   1      49.722  34.760  53.011  0.00  0.00     0.027 A 
ATOM     16  C   UNL d   1      48.996  35.133  52.873  0.00  0.00     0.026 A 
ATOM     17  C   UNL d   1      48.669  35.118  52.114  0.00  0.00     0.094 A 
ATOM     18  C   UNL d   1      49.074  34.729  51.505  0.00  0.00     0.026 A 
ATOM     19  C   UNL d   1      49.792  34.363  51.653  0.00  0.00     0.027 A 
BRANCH  17  20
ATOM     20  O   UNL d   1      47.950  35.485  51.969  0.00  0.00    -0.328 OA
ATOM     21  C   UNL d   1      47.688  36.090  52.466  0.00  0.00     0.181 C 
ENDBRANCH  17  20
ENDBRANCH  13  14
ENDBRANCH  12  13
ENDBRANCH   1  12
TORSDOF 5
ENDMDL
MODEL 6
REMARK VINA RESULT:      -6.5      1.734      4.669
REMARK  5 active torsions:
REMARK  status: ('A' for Active; 'I' for Inactive)
REMARK    1  A    between atoms: C_7  and  N_2 
REMARK    2  A    between atoms: C_15  and  C_7 
REMARK    3  A    between atoms: C_8  and  O_14 
REMARK    4  A    between atoms: O_17  and  C_9 
REMARK    5  A    between atoms: O_14  and  C_15 
ROOT
ATOM      1  C   UNL d   1      53.953  31.363  53.501  0.00  0.00     0.110 C 
ENDROOT
BRANCH   1   2
ATOM      2  N   UNL d   1      53.440  30.727  53.374  0.00  0.00    -0.266 N 
ATOM      3  C   UNL d   1      52.883  30.617  52.767  0.00  0.00     0.296 A 
ATOM      4  S   UNL d   1      52.508  29.886  52.891  0.00  0.00    -0.025 SA
ATOM      5  O   UNL d   1      52.734  31.147  52.151  0.00  0.00    -0.259 OA
ATOM      6  C   UNL d   1      52.835  29.547  53.574  0.00  0.00     0.050 A 
ATOM      7  C   UNL d   1      52.685  28.828  53.969  0.00  0.00     0.008 A 
ATOM      8  C   UNL d   1      53.407  30.062  53.871  0.00  0.00     0.074 A 
ATOM      9  C   UNL d   1      53.105  28.635  54.651  0.00  0.00     0.001 A 
ATOM     10  C   UNL d   1      53.676  29.153  54.945  0.00  0.00     0.002 A 
ATOM     11  C   UNL d   1      53.827  29.863  54.559  0.00  0.00     0.018 A 
ENDBRANCH   1   2
BRANCH   1  12
ATOM     12  C   UNL d   1      53.653  32.109  53.665  0.00  0.00     0.142 C 
BRANCH  12  13
ATOM     13  O   UNL d   1      54.173  32.753  53.782  0.00  0.00    -0.304 OA
BRANCH  13  14
ATOM     14  C   UNL d   1      53.891  33.448  54.131  0.00  0.00     0.100 A 
ATOM     15  C   UNL d   1      54.052  33.607  54.912  0.00  0.00     0.027 A 
ATOM     16  C   UNL d   1      53.770  34.303  55.262  0.00  0.00     0.026 A 
ATOM     17  C   UNL d   1      53.324  34.833  54.811  0.00  0.00     0.094 A 
ATOM     18  C   UNL d   1      53.168  34.659  54.016  0.00  0.00     0.026 A 
ATOM     19  C   UNL d   1      53.451  33.968  53.681  0.00  0.00     0.027 A 
BRANCH  17  20
ATOM     20  O   UNL d   1      53.042  35.524  55.151  0.00  0.00    -0.328 OA
ATOM     21  C   UNL d   1      53.022  36.223  54.713  0.00  0.00     0.181 C 
ENDBRANCH  17  20
ENDBRANCH  13  14
ENDBRANCH  12  13
ENDBRANCH   1  12
TORSDOF 5
ENDMDL
MODEL 7
REMARK VINA RESULT:      -6.4      3.894      5.342
REMARK  5 active torsions:
REMARK  status: ('A' for Active; 'I' for Inactive)
REMARK    1  A    between atoms: C_7  and  N_2 
REMARK    2  A    between atoms: C_15  and  C_7 
REMARK    3  A    between atoms: C_8  and  O_14 
REMARK    4  A    between atoms: O_17  and  C_9 
REMARK    5  A    between atoms: O_14  and  C_15 
ROOT
ATOM      1  C   UNL d   1      48.861  35.532  52.311  0.00  0.00     0.110 C 
ENDROOT
BRANCH   1   2
ATOM      2  N   UNL d   1      48.193  35.841  52.689  0.00  0.00    -0.266 N 
ATOM      3  C   UNL d   1      48.137  36.212  53.431  0.00  0.00     0.296 A 
ATOM      4  S   UNL d   1      47.341  36.421  53.554  0.00  0.00    -0.025 SA
ATOM      5  O   UNL d   1      48.765  36.348  53.949  0.00  0.00    -0.259 OA
ATOM      6  C   UNL d   1      46.911  36.177  52.889  0.00  0.00     0.050 A 
ATOM      7  C   UNL d   1      46.101  36.233  52.694  0.00  0.00     0.008 A 
ATOM      8  C   UNL d   1      47.432  35.821  52.358  0.00  0.00     0.074 A 
ATOM      9  C   UNL d   1      45.827  35.935  51.977  0.00  0.00     0.001 A 
ATOM     10  C   UNL d   1      46.351  35.579  51.449  0.00  0.00     0.002 A 
ATOM     11  C   UNL d   1      47.149  35.522  51.636  0.00  0.00     0.018 A 
ENDBRANCH   1   2
BRANCH   1  12
ATOM     12  C   UNL d   1      49.332  34.978  52.693  0.00  0.00     0.142 C 
BRANCH  12  13
ATOM     13  O   UNL d   1      49.821  34.467  52.248  0.00  0.00    -0.304 OA
BRANCH  13  14
ATOM     14  C   UNL d   1      50.509  34.158  52.590  0.00  0.00     0.100 A 
ATOM     15  C   UNL d   1      50.460  33.540  53.116  0.00  0.00     0.027 A 
ATOM     16  C   UNL d   1      51.147  33.230  53.458  0.00  0.00     0.026 A 
ATOM     17  C   UNL d   1      51.882  33.555  53.262  0.00  0.00     0.094 A 
ATOM     18  C   UNL d   1      51.916  34.185  52.725  0.00  0.00     0.026 A 
ATOM     19  C   UNL d   1      51.231  34.483  52.393  0.00  0.00     0.027 A 
BRANCH  17  20
ATOM     20  O   UNL d   1      52.567  33.253  53.597  0.00  0.00    -0.328 OA
ATOM     21  C   UNL d   1      52.890  32.549  53.315  0.00  0.00     0.181 C 
ENDBRANCH  17  20
ENDBRANCH  13  14
ENDBRANCH  12  13
ENDBRANCH   1  12
TORSDOF 5
ENDMDL
MODEL 8
REMARK VINA RESULT:      -6.1      1.988      4.611
REMARK  5 active torsions:
REMARK  status: ('A' for Active; 'I' for Inactive)
REMARK    1  A    between atoms: C_7  and  N_2 
REMARK    2  A    between atoms: C_15  and  C_7 
REMARK    3  A    between atoms: C_8  and  O_14 
REMARK    4  A    between atoms: O_17  and  C_9 
REMARK    5  A    between atoms: O_14  and  C_15 
ROOT
ATOM      1  C   UNL d   1      53.232  31.664  53.492  0.00  0.00     0.110 C 
ENDROOT
BRANCH   1   2
ATOM      2  N   UNL d   1      53.186  30.842  53.410  0.00  0.00    -0.266 N 
ATOM      3  C   UNL d   1      53.077  30.390  52.721  0.00  0.00     0.296 A 
ATOM      4  S   UNL d   1      53.070  29.588  52.938  0.00  0.00    -0.025 SA
ATOM      5  O   UNL d   1      52.990  30.693  51.958  0.00  0.00    -0.259 OA
ATOM      6  C   UNL d   1      53.176  29.548  53.759  0.00  0.00     0.050 A 
ATOM      7  C   UNL d   1      53.217  28.904  54.289  0.00  0.00     0.008 A 
ATOM      8  C   UNL d   1      53.247  30.316  54.051  0.00  0.00     0.074 A 
ATOM      9  C   UNL d   1      53.327  29.036  55.093  0.00  0.00     0.001 A 
ATOM     10  C   UNL d   1      53.398  29.806  55.381  0.00  0.00     0.002 A 
ATOM     11  C   UNL d   1      53.358  30.444  54.864  0.00  0.00     0.018 A 
ENDBRANCH   1   2
BRANCH   1  12
ATOM     12  C   UNL d   1      52.637  32.143  53.190  0.00  0.00     0.142 C 
BRANCH  12  13
ATOM     13  O   UNL d   1      52.587  32.944  53.422  0.00  0.00    -0.304 OA
BRANCH  13  14
ATOM     14  C   UNL d   1      51.942  33.401  53.176  0.00  0.00     0.100 A 
ATOM     15  C   UNL d   1      52.032  33.942  52.575  0.00  0.00     0.027 A 
ATOM     16  C   UNL d   1      51.388  34.400  52.328  0.00  0.00     0.026 A 
ATOM     17  C   UNL d   1      50.655  34.303  52.697  0.00  0.00     0.094 A 
ATOM     18  C   UNL d   1      50.578  33.749  53.308  0.00  0.00     0.026 A 
ATOM     19  C   UNL d   1      51.221  33.301  53.544  0.00  0.00     0.027 A 
BRANCH  17  20
ATOM     20  O   UNL d   1      50.013  34.753  52.457  0.00  0.00    -0.328 OA
ATOM     21  C   UNL d   1      49.491  34.461  51.889  0.00  0.00     0.181 C 
ENDBRANCH  17  20
ENDBRANCH  13  14
ENDBRANCH  12  13
ENDBRANCH   1  12
TORSDOF 5
ENDMDL
