MODEL 1
REMARK VINA RESULT:      -5.2      0.000      0.000
REMARK  6 active torsions:
REMARK  status: ('A' for Active; 'I' for Inactive)
REMARK    1  A    between atoms: C_7  and  C_1 
REMARK    2  A    between atoms: N_6  and  C_3 
REMARK    3  A    between atoms: N_8  and  N_6 
REMARK    4  A    between atoms: O_12  and  C_7 
REMARK    5  A    between atoms: C_9  and  N_8 
REMARK    6  A    between atoms: C_18  and  O_12 
ROOT
ATOM      1  C   UNL d   1      56.416  -0.421  32.579  0.00  0.00     0.084 A 
ATOM      2  N   UNL d   1      56.661  -1.383  31.751  0.00  0.00    -0.225 NA
ATOM      3  C   UNL d   1      57.023  -0.712  31.449  0.00  0.00     0.184 A 
ATOM      4  C   UNL d   1      56.282  -1.195  32.460  0.00  0.00     0.088 A 
ATOM      5  C   UNL d   1      56.863  -0.103  31.982  0.00  0.00     0.044 A 
ATOM      6  C   UNL d   1      55.841  -1.675  32.975  0.00  0.00     0.021 C 
ATOM      7  C   UNL d   1      57.119   0.681  31.907  0.00  0.00     0.003 C 
ENDROOT
BRANCH   3   8
ATOM      8  N   UNL d   1      57.465  -0.569  30.784  0.00  0.00    -0.129 NA
BRANCH   8   9
ATOM      9  N   UNL d   1      57.887  -1.174  30.401  0.00  0.00    -0.147 NA
BRANCH   9  10
ATOM     10  C   UNL d   1      58.439  -1.025  29.789  0.00  0.00     0.103 A 
ATOM     11  C   UNL d   1      58.669  -1.618  29.270  0.00  0.00     0.019 A 
ATOM     12  C   UNL d   1      58.338  -2.427  29.348  0.00  0.00     0.002 C 
ATOM     13  C   UNL d   1      59.206  -1.474  28.675  0.00  0.00     0.002 A 
ATOM     14  C   UNL d   1      59.515  -0.724  28.600  0.00  0.00     0.000 A 
ATOM     15  C   UNL d   1      59.312  -0.122  29.090  0.00  0.00     0.002 A 
ATOM     16  C   UNL d   1      58.772  -0.278  29.684  0.00  0.00     0.021 A 
ENDBRANCH   9  10
ENDBRANCH   8   9
ENDBRANCH   3   8
BRANCH   1  17
ATOM     17  C   UNL d   1      56.115  -0.008  33.258  0.00  0.00     0.302 C 
ATOM     18  O   UNL d   1      56.614   0.041  33.942  0.00  0.00    -0.259 OA
BRANCH  17  19
ATOM     19  O   UNL d   1      55.372   0.327  33.243  0.00  0.00    -0.271 OA
BRANCH  19  20
ATOM     20  C   UNL d   1      55.040   0.608  33.962  0.00  0.00     0.126 C 
ATOM     21  C   UNL d   1      54.204   0.680  34.024  0.00  0.00     0.029 C 
ENDBRANCH  19  20
ENDBRANCH  17  19
ENDBRANCH   1  17
TORSDOF 6
ENDMDL
MODEL 2
REMARK VINA RESULT:      -4.7      1.933      4.733
REMARK  6 active torsions:
REMARK  status: ('A' for Active; 'I' for Inactive)
REMARK    1  A    between atoms: C_7  and  C_1 
REMARK    2  A    between atoms: N_6  and  C_3 
REMARK    3  A    between atoms: N_8  and  N_6 
REMARK    4  A    between atoms: O_12  and  C_7 
REMARK    5  A    between atoms: C_9  and  N_8 
REMARK    6  A    between atoms: C_18  and  O_12 
ROOT
ATOM      1  C   UNL d   1      58.385  -0.635  29.706  0.00  0.00     0.084 A 
ATOM      2  N   UNL d   1      57.643  -1.400  30.437  0.00  0.00    -0.225 NA
ATOM      3  C   UNL d   1      57.514  -0.632  30.692  0.00  0.00     0.184 A 
ATOM      4  C   UNL d   1      58.190  -1.397  29.819  0.00  0.00     0.088 A 
ATOM      5  C   UNL d   1      57.990  -0.149  30.222  0.00  0.00     0.044 A 
ATOM      6  C   UNL d   1      58.502  -2.027  29.376  0.00  0.00     0.021 C 
ATOM      7  C   UNL d   1      58.044   0.675  30.278  0.00  0.00     0.003 C 
ENDROOT
BRANCH   3   8
ATOM      8  N   UNL d   1      57.045  -0.308  31.268  0.00  0.00    -0.129 NA
BRANCH   8   9
ATOM      9  N   UNL d   1      56.748  -0.763  31.898  0.00  0.00    -0.147 NA
BRANCH   9  10
ATOM     10  C   UNL d   1      56.241  -0.449  32.485  0.00  0.00     0.103 A 
ATOM     11  C   UNL d   1      55.792  -0.940  32.966  0.00  0.00     0.019 A 
ATOM     12  C   UNL d   1      55.837  -1.811  32.874  0.00  0.00     0.002 C 
ATOM     13  C   UNL d   1      55.299  -0.635  33.537  0.00  0.00     0.002 A 
ATOM     14  C   UNL d   1      55.254   0.174  33.626  0.00  0.00     0.000 A 
ATOM     15  C   UNL d   1      55.679   0.681  33.172  0.00  0.00     0.002 A 
ATOM     16  C   UNL d   1      56.172   0.365  32.602  0.00  0.00     0.021 A 
ENDBRANCH   9  10
ENDBRANCH   8   9
ENDBRANCH   3   8
BRANCH   1  17
ATOM     17  C   UNL d   1      58.942  -0.392  29.111  0.00  0.00     0.302 C 
ATOM     18  O   UNL d   1      58.656   0.100  28.483  0.00  0.00    -0.259 OA
BRANCH  17  19
ATOM     19  O   UNL d   1      59.721  -0.630  29.151  0.00  0.00    -0.271 OA
BRANCH  19  20
ATOM     20  C   UNL d   1      60.247  -0.393  28.541  0.00  0.00     0.126 C 
ATOM     21  C   UNL d   1      60.995  -0.068  28.752  0.00  0.00     0.029 C 
ENDBRANCH  19  20
ENDBRANCH  17  19
ENDBRANCH   1  17
TORSDOF 6
ENDMDL
MODEL 3
REMARK VINA RESULT:      -2.8      8.755      9.380
REMARK  6 active torsions:
REMARK  status: ('A' for Active; 'I' for Inactive)
REMARK    1  A    between atoms: C_7  and  C_1 
REMARK    2  A    between atoms: N_6  and  C_3 
REMARK    3  A    between atoms: N_8  and  N_6 
REMARK    4  A    between atoms: O_12  and  C_7 
REMARK    5  A    between atoms: C_9  and  N_8 
REMARK    6  A    between atoms: C_18  and  O_12 
ROOT
ATOM      1  C   UNL d   1      59.633  -9.318  33.820  0.00  0.00     0.084 A 
ATOM      2  N   UNL d   1      59.912  -9.679  32.611  0.00  0.00    -0.225 NA
ATOM      3  C   UNL d   1      59.095  -9.649  32.666  0.00  0.00     0.184 A 
ATOM      4  C   UNL d   1      60.245  -9.471  33.336  0.00  0.00     0.088 A 
ATOM      5  C   UNL d   1      58.924  -9.418  33.440  0.00  0.00     0.044 A 
ATOM      6  C   UNL d   1      61.042  -9.417  33.565  0.00  0.00     0.021 C 
ATOM      7  C   UNL d   1      58.165  -9.313  33.753  0.00  0.00     0.003 C 
ENDROOT
BRANCH   3   8
ATOM      8  N   UNL d   1      58.496  -9.794  32.140  0.00  0.00    -0.129 NA
BRANCH   8   9
ATOM      9  N   UNL d   1      58.630  -9.818  31.320  0.00  0.00    -0.147 NA
BRANCH   9  10
ATOM     10  C   UNL d   1      58.009  -9.799  30.758  0.00  0.00     0.103 A 
ATOM     11  C   UNL d   1      58.166  -9.762  29.953  0.00  0.00     0.019 A 
ATOM     12  C   UNL d   1      58.993  -9.740  29.663  0.00  0.00     0.002 C 
ATOM     13  C   UNL d   1      57.562  -9.743  29.406  0.00  0.00     0.002 A 
ATOM     14  C   UNL d   1      56.792  -9.763  29.671  0.00  0.00     0.000 A 
ATOM     15  C   UNL d   1      56.605  -9.800  30.450  0.00  0.00     0.002 A 
ATOM     16  C   UNL d   1      57.218  -9.818  30.991  0.00  0.00     0.021 A 
ENDBRANCH   9  10
ENDBRANCH   8   9
ENDBRANCH   3   8
BRANCH   1  17
ATOM     17  C   UNL d   1      59.742  -9.082  34.629  0.00  0.00     0.302 C 
ATOM     18  O   UNL d   1      60.014  -9.668  35.177  0.00  0.00    -0.259 OA
BRANCH  17  19
ATOM     19  O   UNL d   1      59.588  -8.315  34.861  0.00  0.00    -0.271 OA
BRANCH  19  20
ATOM     20  C   UNL d   1      59.861  -8.057  35.611  0.00  0.00     0.126 C 
ATOM     21  C   UNL d   1      59.756  -7.250  35.828  0.00  0.00     0.029 C 
ENDBRANCH  19  20
ENDBRANCH  17  19
ENDBRANCH   1  17
TORSDOF 6
ENDMDL
