MODEL 1
REMARK VINA RESULT:     -10.9      0.000      0.000
REMARK  2 active torsions:
REMARK  status: ('A' for Active; 'I' for Inactive)
REMARK    1  A    between atoms: S_2  and  C_1 
REMARK    2  A    between atoms: N_3  and  S_2 
ROOT
ATOM      1  C   UNL d   1      53.313  33.251  53.919  0.00  0.00     0.125 A 
ATOM      2  C   UNL d   1      53.512  33.584  54.680  0.00  0.00    -0.009 A 
ATOM      3  C   UNL d   1      53.609  32.867  53.360  0.00  0.00     0.031 A 
ATOM      4  C   UNL d   1      53.772  33.392  54.468  0.00  0.00    -0.009 A 
ATOM      5  C   UNL d   1      54.637  33.213  54.646  0.00  0.00    -0.007 A 
ATOM      6  C   UNL d   1      54.410  32.698  53.519  0.00  0.00     0.045 A 
ATOM      7  C   UNL d   1      54.189  33.449  54.830  0.00  0.00    -0.007 A 
ATOM      8  C   UNL d   1      54.924  32.841  54.104  0.00  0.00    -0.022 A 
ATOM      9  C   UNL d   1      54.593  32.949  54.113  0.00  0.00    -0.022 A 
ATOM     10  C   UNL d   1      54.856  33.545  55.418  0.00  0.00    -0.001 A 
ENDROOT
BRANCH   1  11
ATOM     11  S   UNL d   1      52.571  33.106  53.193  0.00  0.00     0.142 S 
ATOM     12  O   UNL d   1      52.829  32.436  52.770  0.00  0.00    -0.233 OA
BRANCH  11  13
ATOM     13  N   UNL d   1      51.888  33.472  52.993  0.00  0.00    -0.251 N 
ATOM     14  C   UNL d   1      51.204  33.301  53.403  0.00  0.00     0.108 A 
ATOM     15  C   UNL d   1      50.481  33.701  53.178  0.00  0.00     0.100 A 
ATOM     16  N   UNL d   1      50.486  34.229  52.578  0.00  0.00    -0.299 N 
ATOM     17  C   UNL d   1      51.200  34.383  52.179  0.00  0.00     0.100 A 
ATOM     18  C   UNL d   1      49.682  34.503  52.521  0.00  0.00     0.100 C 
ATOM     19  C   UNL d   1      51.893  34.005  52.388  0.00  0.00     0.108 A 
ENDBRANCH  11  13
ENDBRANCH   1  11
TORSDOF 2
ENDMDL
MODEL 2
REMARK VINA RESULT:     -10.1      1.909      2.780
REMARK  2 active torsions:
REMARK  status: ('A' for Active; 'I' for Inactive)
REMARK    1  A    between atoms: S_2  and  C_1 
REMARK    2  A    between atoms: N_3  and  S_2 
ROOT
ATOM      1  C   UNL d   1      53.273  31.845  53.319  0.00  0.00     0.125 A 
ATOM      2  C   UNL d   1      52.614  31.436  52.961  0.00  0.00    -0.009 A 
ATOM      3  C   UNL d   1      53.903  31.718  53.685  0.00  0.00     0.031 A 
ATOM      4  C   UNL d   1      52.902  31.245  53.134  0.00  0.00    -0.009 A 
ATOM      5  C   UNL d   1      53.018  30.358  53.241  0.00  0.00    -0.007 A 
ATOM      6  C   UNL d   1      54.016  30.897  53.787  0.00  0.00     0.045 A 
ATOM      7  C   UNL d   1      52.695  30.739  53.039  0.00  0.00    -0.007 A 
ATOM      8  C   UNL d   1      53.629  30.234  53.596  0.00  0.00    -0.022 A 
ATOM      9  C   UNL d   1      53.511  30.551  53.514  0.00  0.00    -0.022 A 
ATOM     10  C   UNL d   1      52.355  29.926  52.881  0.00  0.00    -0.001 A 
ENDROOT
BRANCH   1  11
ATOM     11  S   UNL d   1      53.719  32.769  53.532  0.00  0.00     0.142 S 
ATOM     12  O   UNL d   1      54.534  32.633  53.414  0.00  0.00    -0.233 OA
BRANCH  11  13
ATOM     13  N   UNL d   1      53.459  33.490  53.759  0.00  0.00    -0.251 N 
ATOM     14  C   UNL d   1      53.556  33.730  54.532  0.00  0.00     0.108 A 
ATOM     15  C   UNL d   1      53.272  34.504  54.760  0.00  0.00     0.100 A 
ATOM     16  N   UNL d   1      52.920  34.977  54.219  0.00  0.00    -0.299 N 
ATOM     17  C   UNL d   1      52.835  34.704  53.437  0.00  0.00     0.100 A 
ATOM     18  C   UNL d   1      52.718  35.684  54.646  0.00  0.00     0.100 C 
ATOM     19  C   UNL d   1      53.104  33.966  53.213  0.00  0.00     0.108 A 
ENDBRANCH  11  13
ENDBRANCH   1  11
TORSDOF 2
ENDMDL
MODEL 3
REMARK VINA RESULT:      -9.8      1.823      3.484
REMARK  2 active torsions:
REMARK  status: ('A' for Active; 'I' for Inactive)
REMARK    1  A    between atoms: S_2  and  C_1 
REMARK    2  A    between atoms: N_3  and  S_2 
ROOT
ATOM      1  C   UNL d   1      52.279  33.065  53.094  0.00  0.00     0.125 A 
ATOM      2  C   UNL d   1      51.439  33.191  53.006  0.00  0.00    -0.009 A 
ATOM      3  C   UNL d   1      52.915  33.435  53.169  0.00  0.00     0.031 A 
ATOM      4  C   UNL d   1      51.687  33.487  53.038  0.00  0.00    -0.009 A 
ATOM      5  C   UNL d   1      51.525  34.373  53.037  0.00  0.00    -0.007 A 
ATOM      6  C   UNL d   1      52.772  34.256  53.169  0.00  0.00     0.045 A 
ATOM      7  C   UNL d   1      51.301  33.885  53.004  0.00  0.00    -0.007 A 
ATOM      8  C   UNL d   1      52.143  34.732  53.110  0.00  0.00    -0.022 A 
ATOM      9  C   UNL d   1      52.118  34.385  53.101  0.00  0.00    -0.022 A 
ATOM     10  C   UNL d   1      50.674  34.520  52.948  0.00  0.00    -0.001 A 
ENDROOT
BRANCH   1  11
ATOM     11  S   UNL d   1      53.057  32.366  53.165  0.00  0.00     0.142 S 
ATOM     12  O   UNL d   1      53.739  32.801  52.962  0.00  0.00    -0.233 OA
BRANCH  11  13
ATOM     13  N   UNL d   1      53.112  31.591  53.353  0.00  0.00    -0.251 N 
ATOM     14  C   UNL d   1      53.452  31.371  54.061  0.00  0.00     0.108 A 
ATOM     15  C   UNL d   1      53.505  30.538  54.250  0.00  0.00     0.100 A 
ATOM     16  N   UNL d   1      53.224  29.993  53.737  0.00  0.00    -0.299 N 
ATOM     17  C   UNL d   1      52.883  30.248  53.021  0.00  0.00     0.100 A 
ATOM     18  C   UNL d   1      53.373  29.243  54.111  0.00  0.00     0.100 C 
ATOM     19  C   UNL d   1      52.829  31.042  52.836  0.00  0.00     0.108 A 
ENDBRANCH  11  13
ENDBRANCH   1  11
TORSDOF 2
ENDMDL
MODEL 4
REMARK VINA RESULT:      -9.6      2.025      2.782
REMARK  2 active torsions:
REMARK  status: ('A' for Active; 'I' for Inactive)
REMARK    1  A    between atoms: S_2  and  C_1 
REMARK    2  A    between atoms: N_3  and  S_2 
ROOT
ATOM      1  C   UNL d   1      53.723  33.025  54.137  0.00  0.00     0.125 A 
ATOM      2  C   UNL d   1      53.150  33.631  54.322  0.00  0.00    -0.009 A 
ATOM      3  C   UNL d   1      54.423  32.829  54.275  0.00  0.00     0.031 A 
ATOM      4  C   UNL d   1      53.509  33.639  54.467  0.00  0.00    -0.009 A 
ATOM      5  C   UNL d   1      53.890  34.241  55.018  0.00  0.00    -0.007 A 
ATOM      6  C   UNL d   1      54.782  33.382  54.786  0.00  0.00     0.045 A 
ATOM      7  C   UNL d   1      53.439  34.108  54.755  0.00  0.00    -0.007 A 
ATOM      8  C   UNL d   1      54.569  34.050  55.153  0.00  0.00    -0.022 A 
ATOM      9  C   UNL d   1      54.352  33.871  54.948  0.00  0.00    -0.022 A 
ATOM     10  C   UNL d   1      53.319  34.865  55.217  0.00  0.00    -0.001 A 
ENDROOT
BRANCH   1  11
ATOM     11  S   UNL d   1      53.922  32.137  53.617  0.00  0.00     0.142 S 
ATOM     12  O   UNL d   1      54.676  32.263  53.283  0.00  0.00    -0.233 OA
BRANCH  11  13
ATOM     13  N   UNL d   1      53.536  31.448  53.495  0.00  0.00    -0.251 N 
ATOM     14  C   UNL d   1      53.756  30.783  53.913  0.00  0.00     0.108 A 
ATOM     15  C   UNL d   1      53.334  30.052  53.773  0.00  0.00     0.100 A 
ATOM     16  N   UNL d   1      52.736  30.031  53.242  0.00  0.00    -0.299 N 
ATOM     17  C   UNL d   1      52.534  30.726  52.830  0.00  0.00     0.100 A 
ATOM     18  C   UNL d   1      52.459  29.226  53.257  0.00  0.00     0.100 C 
ATOM     19  C   UNL d   1      52.934  31.427  52.960  0.00  0.00     0.108 A 
ENDBRANCH  11  13
ENDBRANCH   1  11
TORSDOF 2
ENDMDL
