MODEL 1
REMARK VINA RESULT:      15.1      0.000      0.000
REMARK  7 active torsions:
REMARK  status: ('A' for Active; 'I' for Inactive)
REMARK    1  A    between atoms: C_11  and  C_1 
REMARK    2  A    between atoms: C_15  and  N_3 
REMARK    3  A    between atoms: C_7  and  S_12 
REMARK    4  A    between atoms: C_13  and  C_11 
REMARK    5  A    between atoms: S_12  and  C_13 
REMARK    6  A    between atoms: C_20  and  C_15 
REMARK    7  A    between atoms: O_19  and  C_20 
ROOT
ATOM      1  C   UNL d   1      45.763 -17.374  44.458  0.00  0.00     0.057 A 
ATOM      2  C   UNL d   1      46.094 -17.600  43.748  0.00  0.00     0.067 A 
ATOM      3  N   UNL d   1      46.288 -18.392  43.826  0.00  0.00    -0.303 N 
ATOM      4  C   UNL d   1      45.755 -18.013  44.954  0.00  0.00     0.022 A 
ATOM      5  C   UNL d   1      46.077 -18.629  44.562  0.00  0.00     0.064 A 
ATOM      6  C   UNL d   1      46.210 -17.123  43.085  0.00  0.00     0.019 C 
ATOM      7  C   UNL d   1      46.178 -19.407  44.875  0.00  0.00     0.019 C 
ENDROOT
BRANCH   1   8
ATOM      8  C   UNL d   1      45.481 -16.607  44.634  0.00  0.00     0.203 C 
ATOM      9  O   UNL d   1      44.675 -16.494  44.751  0.00  0.00    -0.286 OA
BRANCH   8  10
ATOM     10  C   UNL d   1      46.001 -15.973  44.688  0.00  0.00     0.079 C 
BRANCH  10  11
ATOM     11  S   UNL d   1      45.728 -15.199  44.587  0.00  0.00    -0.056 SA
BRANCH  11  12
ATOM     12  C   UNL d   1      45.831 -14.373  44.562  0.00  0.00     0.164 A 
ATOM     13  S   UNL d   1      45.304 -13.845  44.201  0.00  0.00    -0.039 SA
ATOM     14  C   UNL d   1      45.615 -13.072  44.304  0.00  0.00     0.134 A 
ATOM     15  C   UNL d   1      45.267 -12.365  44.029  0.00  0.00     0.030 C 
ATOM     16  N   UNL d   1      46.333 -13.135  44.728  0.00  0.00    -0.140 NA
ATOM     17  N   UNL d   1      46.458 -13.948  44.884  0.00  0.00    -0.134 NA
ENDBRANCH  11  12
ENDBRANCH  10  11
ENDBRANCH   8  10
ENDBRANCH   1   8
BRANCH   3  18
ATOM     18  C   UNL d   1      46.645 -18.894  43.254  0.00  0.00     0.107 C 
BRANCH  18  19
ATOM     19  C   UNL d   1      46.178 -19.475  42.880  0.00  0.00     0.135 C 
BRANCH  19  20
ATOM     20  O   UNL d   1      46.380 -19.773  42.156  0.00  0.00    -0.325 OA
ATOM     21  C   UNL d   1      46.167 -19.455  41.585  0.00  0.00     0.182 C 
ENDBRANCH  19  20
ENDBRANCH  18  19
ENDBRANCH   3  18
TORSDOF 7
ENDMDL
