MODEL 1
REMARK VINA RESULT:      -5.3      0.000      0.000
REMARK  3 active torsions:
REMARK  status: ('A' for Active; 'I' for Inactive)
REMARK    1  A    between atoms: N_6  and  C_1 
REMARK    2  A    between atoms: C_7  and  C_2 
REMARK    3  A    between atoms: C_9  and  C_5 
ROOT
ATOM      1  C   UNL d   1      58.136  -0.728  30.164  0.00  0.00     0.189 A 
ATOM      2  C   UNL d   1      58.501  -0.057  30.539  0.00  0.00     0.144 A 
ATOM      3  O   UNL d   1      57.427  -0.881  30.607  0.00  0.00    -0.271 OA
ATOM      4  N   UNL d   1      58.040   0.176  31.168  0.00  0.00    -0.217 NA
ATOM      5  C   UNL d   1      57.406  -0.301  31.217  0.00  0.00     0.184 A 
ENDROOT
BRANCH   5   6
ATOM      6  C   UNL d   1      56.840  -0.206  31.792  0.00  0.00     0.041 A 
ATOM      7  C   UNL d   1      56.536   0.543  31.968  0.00  0.00     0.004 A 
ATOM      8  C   UNL d   1      55.964   0.612  32.556  0.00  0.00     0.011 A 
ATOM      9  C   UNL d   1      55.696  -0.029  32.959  0.00  0.00     0.058 A 
ATOM     10  C   UNL d   1      56.003  -0.779  32.780  0.00  0.00     0.011 A 
ATOM     11 CL   UNL d   1      55.121  -0.100  33.577  0.00  0.00    -0.082 Cl
ATOM     12  C   UNL d   1      56.582  -0.857  32.188  0.00  0.00     0.004 A 
ENDBRANCH   5   6
BRANCH   1  13
ATOM     13  N   UNL d   1      58.571  -0.938  29.582  0.00  0.00    -0.284 N 
ATOM     14  C   UNL d   1      59.145  -0.750  28.990  0.00  0.00     0.082 A 
ATOM     15  C   UNL d   1      59.400  -1.339  28.472  0.00  0.00     0.019 A 
ATOM     16  C   UNL d   1      59.097  -2.117  28.526  0.00  0.00     0.003 A 
ATOM     17  C   UNL d   1      58.539  -2.307  29.099  0.00  0.00     0.019 A 
ATOM     18  C   UNL d   1      58.268  -1.717  29.636  0.00  0.00     0.082 A 
ENDBRANCH   1  13
BRANCH   2  19
ATOM     19  C   UNL d   1      59.107   0.126  30.213  0.00  0.00     0.145 C 
ATOM     20  N   UNL d   1      59.998   0.682  30.388  0.00  0.00    -0.145 N 
ENDBRANCH   2  19
TORSDOF 3
ENDMDL
MODEL 2
REMARK VINA RESULT:      -4.9      1.367      1.539
REMARK  3 active torsions:
REMARK  status: ('A' for Active; 'I' for Inactive)
REMARK    1  A    between atoms: N_6  and  C_1 
REMARK    2  A    between atoms: C_7  and  C_2 
REMARK    3  A    between atoms: C_9  and  C_5 
ROOT
ATOM      1  C   UNL d   1      58.101   0.364  30.666  0.00  0.00     0.189 A 
ATOM      2  C   UNL d   1      58.544   0.394  31.392  0.00  0.00     0.144 A 
ATOM      3  O   UNL d   1      57.295   0.225  30.894  0.00  0.00    -0.271 OA
ATOM      4  N   UNL d   1      58.035   0.280  32.016  0.00  0.00    -0.217 NA
ATOM      5  C   UNL d   1      57.298   0.179  31.735  0.00  0.00     0.184 A 
ENDROOT
BRANCH   5   6
ATOM      6  C   UNL d   1      56.664   0.053  32.228  0.00  0.00     0.041 A 
ATOM      7  C   UNL d   1      56.349  -0.706  32.327  0.00  0.00     0.004 A 
ATOM      8  C   UNL d   1      55.707  -0.807  32.832  0.00  0.00     0.011 A 
ATOM      9  C   UNL d   1      55.382  -0.188  33.228  0.00  0.00     0.058 A 
ATOM     10  C   UNL d   1      55.701   0.572  33.127  0.00  0.00     0.011 A 
ATOM     11 CL   UNL d   1      54.732  -0.150  33.769  0.00  0.00    -0.082 Cl
ATOM     12  C   UNL d   1      56.350   0.681  32.618  0.00  0.00     0.004 A 
ENDBRANCH   5   6
BRANCH   1  13
ATOM     13  N   UNL d   1      58.582   0.471  30.091  0.00  0.00    -0.284 N 
ATOM     14  C   UNL d   1      59.369   0.590  29.807  0.00  0.00     0.082 A 
ATOM     15  C   UNL d   1      59.499   0.675  28.997  0.00  0.00     0.019 A 
ATOM     16  C   UNL d   1      58.860   0.645  28.457  0.00  0.00     0.003 A 
ATOM     17  C   UNL d   1      58.092   0.529  28.726  0.00  0.00     0.019 A 
ATOM     18  C   UNL d   1      57.944   0.441  29.551  0.00  0.00     0.082 A 
ENDBRANCH   1  13
BRANCH   2  19
ATOM     19  C   UNL d   1      59.237   0.510  31.270  0.00  0.00     0.145 C 
ATOM     20  N   UNL d   1      60.145   0.682  31.797  0.00  0.00    -0.145 N 
ENDBRANCH   2  19
TORSDOF 3
ENDMDL
MODEL 3
REMARK VINA RESULT:      -4.0      1.990      4.396
REMARK  3 active torsions:
REMARK  status: ('A' for Active; 'I' for Inactive)
REMARK    1  A    between atoms: N_6  and  C_1 
REMARK    2  A    between atoms: C_7  and  C_2 
REMARK    3  A    between atoms: C_9  and  C_5 
ROOT
ATOM      1  C   UNL d   1      56.659   0.284  32.729  0.00  0.00     0.189 A 
ATOM      2  C   UNL d   1      57.464   0.498  32.903  0.00  0.00     0.144 A 
ATOM      3  O   UNL d   1      56.647   0.082  31.905  0.00  0.00    -0.271 OA
ATOM      4  N   UNL d   1      57.907   0.429  32.223  0.00  0.00    -0.217 NA
ATOM      5  C   UNL d   1      57.437   0.185  31.631  0.00  0.00     0.184 A 
ENDROOT
BRANCH   5   6
ATOM      6  C   UNL d   1      57.722   0.065  30.879  0.00  0.00     0.041 A 
ATOM      7  C   UNL d   1      58.013  -0.674  30.649  0.00  0.00     0.004 A 
ATOM      8  C   UNL d   1      58.296  -0.770  29.882  0.00  0.00     0.011 A 
ATOM      9  C   UNL d   1      58.295  -0.163  29.355  0.00  0.00     0.058 A 
ATOM     10  C   UNL d   1      58.002   0.578  29.589  0.00  0.00     0.011 A 
ATOM     11 CL   UNL d   1      58.551  -0.122  28.549  0.00  0.00    -0.082 Cl
ATOM     12  C   UNL d   1      57.714   0.682  30.363  0.00  0.00     0.004 A 
ENDBRANCH   5   6
BRANCH   1  13
ATOM     13  N   UNL d   1      56.255   0.351  33.366  0.00  0.00    -0.284 N 
ATOM     14  C   UNL d   1      56.217   0.491  34.199  0.00  0.00     0.082 A 
ATOM     15  C   UNL d   1      55.485   0.478  34.579  0.00  0.00     0.019 A 
ATOM     16  C   UNL d   1      54.783   0.329  34.148  0.00  0.00     0.003 A 
ATOM     17  C   UNL d   1      54.812   0.192  33.338  0.00  0.00     0.019 A 
ATOM     18  C   UNL d   1      55.553   0.201  32.936  0.00  0.00     0.082 A 
ENDBRANCH   1  13
BRANCH   2  19
ATOM     19  C   UNL d   1      57.544   0.680  33.587  0.00  0.00     0.145 C 
ATOM     20  N   UNL d   1      58.279   0.678  34.356  0.00  0.00    -0.145 N 
ENDBRANCH   2  19
TORSDOF 3
ENDMDL
