MODEL 1
REMARK VINA RESULT:      48.9      0.000      0.000
REMARK  4 active torsions:
REMARK  status: ('A' for Active; 'I' for Inactive)
REMARK    1  A    between atoms: N_2  and  S_1 
REMARK    2  A    between atoms: C_3  and  S_1 
REMARK    3  A    between atoms: C_17  and  N_4 
REMARK    4  A    between atoms: C_16  and  C_17 
ROOT
ATOM      1  N   UNL d   1     -55.495-100.950 -44.366  0.00  0.00    -0.226 N 
ATOM      2  N   UNL d   1     -56.291 -99.544 -44.656  0.00  0.00    -0.300 N 
ATOM      3  C   UNL d   1     -56.298-100.885 -44.166  0.00  0.00     0.111 A 
ATOM      4  C   UNL d   1     -55.096-100.315 -44.709  0.00  0.00     0.111 A 
ATOM      5  C   UNL d   1     -55.500 -99.610 -44.853  0.00  0.00     0.100 A 
ATOM      6  C   UNL d   1     -56.697-100.168 -44.316  0.00  0.00     0.100 A 
ENDROOT
BRANCH   1   7
ATOM      7  S   UNL d   1     -55.103-101.656 -44.218  0.00  0.00     0.272 S 
ATOM      8  O   UNL d   1     -54.712-102.357 -44.071  0.00  0.00    -0.200 OA
ATOM      9  O   UNL d   1     -55.229-101.888 -44.991  0.00  0.00    -0.200 OA
BRANCH   7  10
ATOM     10  C   UNL d   1     -54.975-101.421 -43.438  0.00  0.00     0.106 A 
ATOM     11  C   UNL d   1     -54.919-101.998 -42.838  0.00  0.00     0.043 A 
ATOM     12  C   UNL d   1     -54.789-101.761 -42.050  0.00  0.00     0.141 A 
ATOM     13  F   UNL d   1     -54.733-102.327 -41.453  0.00  0.00    -0.204 F 
ATOM     14  C   UNL d   1     -54.718-100.950 -41.869  0.00  0.00     0.030 A 
ATOM     15  C   UNL d   1     -54.774-100.394 -42.463  0.00  0.00     0.003 A 
ATOM     16  C   UNL d   1     -54.903-100.630 -43.251  0.00  0.00     0.013 A 
ENDBRANCH   7  10
ENDBRANCH   1   7
BRANCH   2  17
ATOM     17  C   UNL d   1     -56.686 -98.834 -44.805  0.00  0.00     0.080 C 
BRANCH  17  18
ATOM     18  C   UNL d   1     -57.506 -98.825 -44.871  0.00  0.00     0.020 A 
ATOM     19  C   UNL d   1     -57.847 -98.798 -45.614  0.00  0.00     0.028 A 
ATOM     20  C   UNL d   1     -58.670 -98.788 -45.692  0.00  0.00     0.119 A 
ATOM     21  O   UNL d   1     -59.168 -98.762 -46.355  0.00  0.00    -0.300 OA
ATOM     22  C   UNL d   1     -59.139 -98.806 -45.014  0.00  0.00     0.119 A 
ATOM     23  C   UNL d   1     -59.951 -98.764 -46.081  0.00  0.00     0.304 A 
ATOM     24  O   UNL d   1     -59.934 -98.792 -45.248  0.00  0.00    -0.300 OA
ATOM     25  C   UNL d   1     -58.794 -98.834 -44.263  0.00  0.00     0.026 A 
ATOM     26  C   UNL d   1     -57.975 -98.843 -44.193  0.00  0.00     0.004 A 
ENDBRANCH  17  18
ENDBRANCH   2  17
TORSDOF 4
ENDMDL
