MODEL 1
REMARK VINA RESULT:      -4.4      0.000      0.000
REMARK  3 active torsions:
REMARK  status: ('A' for Active; 'I' for Inactive)
REMARK    1  A    between atoms: N_2  and  S_1 
REMARK    2  A    between atoms: C_5  and  S_1 
REMARK    3  A    between atoms: C_4  and  N_3 
ROOT
ATOM      1  N   UNL d   1     -41.912-122.778 -51.661  0.00  0.00    -0.226 N 
ATOM      2  N   UNL d   1     -42.187-122.992 -50.048  0.00  0.00    -0.301 N 
ATOM      3  C   UNL d   1     -42.348-122.225 -51.240  0.00  0.00     0.111 A 
ATOM      4  C   UNL d   1     -41.607-123.450 -51.276  0.00  0.00     0.111 A 
ATOM      5  C   UNL d   1     -42.485-122.332 -50.433  0.00  0.00     0.100 A 
ATOM      6  C   UNL d   1     -41.744-123.557 -50.469  0.00  0.00     0.100 A 
ENDROOT
BRANCH   1   7
ATOM      7  S   UNL d   1     -41.775-122.672 -52.468  0.00  0.00     0.271 S 
ATOM      8  O   UNL d   1     -42.031-123.441 -52.613  0.00  0.00    -0.200 OA
ATOM      9  O   UNL d   1     -41.519-121.900 -52.322  0.00  0.00    -0.200 OA
BRANCH   7  10
ATOM     10  C   UNL d   1     -41.638-122.565 -53.274  0.00  0.00     0.104 A 
ATOM     11  C   UNL d   1     -41.859-121.865 -53.641  0.00  0.00     0.015 A 
ATOM     12  C   UNL d   1     -41.722-121.759 -54.446  0.00  0.00     0.030 A 
ATOM     13  C   UNL d   1     -41.364-122.351 -54.885  0.00  0.00     0.140 A 
ATOM     14  C   UNL d   1     -41.136-123.063 -54.519  0.00  0.00     0.030 A 
ATOM     15  F   UNL d   1     -41.226-122.244 -55.692  0.00  0.00    -0.204 F 
ATOM     16  C   UNL d   1     -41.273-123.170 -53.714  0.00  0.00     0.015 A 
ENDBRANCH   7  10
ENDBRANCH   1   7
BRANCH   2  17
ATOM     17  C   UNL d   1     -42.323-123.098 -49.246  0.00  0.00     0.064 A 
ATOM     18  C   UNL d   1     -42.986-123.509 -48.990  0.00  0.00     0.016 A 
ATOM     19  C   UNL d   1     -43.123-123.616 -48.184  0.00  0.00     0.001 A 
ATOM     20  C   UNL d   1     -43.518-123.817 -49.544  0.00  0.00     0.002 C 
ATOM     21  C   UNL d   1     -42.597-123.312 -47.635  0.00  0.00     0.000 A 
ATOM     22  C   UNL d   1     -41.923-122.894 -47.884  0.00  0.00     0.001 A 
ATOM     23  C   UNL d   1     -41.786-122.787 -48.691  0.00  0.00     0.016 A 
ATOM     24  C   UNL d   1     -41.123-122.376 -48.946  0.00  0.00     0.002 C 
ENDBRANCH   2  17
TORSDOF 3
ENDMDL
MODEL 2
REMARK VINA RESULT:      -4.2      1.997      4.961
REMARK  3 active torsions:
REMARK  status: ('A' for Active; 'I' for Inactive)
REMARK    1  A    between atoms: N_2  and  S_1 
REMARK    2  A    between atoms: C_5  and  S_1 
REMARK    3  A    between atoms: C_4  and  N_3 
ROOT
ATOM      1  N   UNL d   1     -41.734-122.797 -51.548  0.00  0.00    -0.226 N 
ATOM      2  N   UNL d   1     -41.713-122.591 -53.185  0.00  0.00    -0.301 N 
ATOM      3  C   UNL d   1     -42.254-123.217 -52.024  0.00  0.00     0.111 A 
ATOM      4  C   UNL d   1     -41.193-122.264 -51.891  0.00  0.00     0.111 A 
ATOM      5  C   UNL d   1     -42.243-123.114 -52.842  0.00  0.00     0.100 A 
ATOM      6  C   UNL d   1     -41.182-122.161 -52.709  0.00  0.00     0.100 A 
ENDROOT
BRANCH   1   7
ATOM      7  S   UNL d   1     -41.744-122.900 -50.730  0.00  0.00     0.271 S 
ATOM      8  O   UNL d   1     -42.249-123.545 -50.817  0.00  0.00    -0.200 OA
ATOM      9  O   UNL d   1     -41.238-122.253 -50.642  0.00  0.00    -0.200 OA
BRANCH   7  10
ATOM     10  C   UNL d   1     -41.755-123.003 -49.911  0.00  0.00     0.104 A 
ATOM     11  C   UNL d   1     -41.125-123.369 -49.534  0.00  0.00     0.015 A 
ATOM     12  C   UNL d   1     -41.136-123.472 -48.716  0.00  0.00     0.030 A 
ATOM     13  C   UNL d   1     -41.776-123.208 -48.276  0.00  0.00     0.140 A 
ATOM     14  C   UNL d   1     -42.417-122.836 -48.653  0.00  0.00     0.030 A 
ATOM     15  F   UNL d   1     -41.786-123.311 -47.458  0.00  0.00    -0.204 F 
ATOM     16  C   UNL d   1     -42.407-122.733 -49.470  0.00  0.00     0.015 A 
ENDBRANCH   7  10
ENDBRANCH   1   7
BRANCH   2  17
ATOM     17  C   UNL d   1     -41.702-122.488 -54.000  0.00  0.00     0.064 A 
ATOM     18  C   UNL d   1     -41.409-123.080 -54.487  0.00  0.00     0.016 A 
ATOM     19  C   UNL d   1     -41.398-122.977 -55.305  0.00  0.00     0.001 A 
ATOM     20  C   UNL d   1     -41.123-123.782 -54.155  0.00  0.00     0.002 C 
ATOM     21  C   UNL d   1     -41.681-122.283 -55.635  0.00  0.00     0.000 A 
ATOM     22  C   UNL d   1     -41.980-121.678 -55.149  0.00  0.00     0.001 A 
ATOM     23  C   UNL d   1     -41.991-121.781 -54.331  0.00  0.00     0.016 A 
ATOM     24  C   UNL d   1     -42.284-121.188 -53.844  0.00  0.00     0.002 C 
ENDBRANCH   2  17
TORSDOF 3
ENDMDL
