MODEL 1
REMARK VINA RESULT:       6.9      0.000      0.000
REMARK  3 active torsions:
REMARK  status: ('A' for Active; 'I' for Inactive)
REMARK    1  A    between atoms: C_8  and  N_2 
REMARK    2  A    between atoms: C_14  and  C_8 
REMARK    3  A    between atoms: N_13  and  C_14 
ROOT
ATOM      1  C   UNL d   1     -41.288-121.707 -51.784  0.00  0.00     0.166 A 
ATOM      2  N   UNL d   1     -41.332-122.510 -51.642  0.00  0.00    -0.288 N 
ATOM      3  C   UNL d   1     -41.287-121.536 -52.595  0.00  0.00     0.117 A 
ATOM      4  C   UNL d   1     -41.332-122.247 -52.953  0.00  0.00     0.037 A 
ATOM      5  C   UNL d   1     -41.361-122.863 -52.355  0.00  0.00     0.067 A 
ATOM      6  N   UNL d   1     -41.246-121.092 -51.287  0.00  0.00    -0.225 NA
ATOM      7  N   UNL d   1     -41.246-120.768 -52.903  0.00  0.00    -0.241 NA
ATOM      8  C   UNL d   1     -41.205-120.321 -51.599  0.00  0.00     0.101 A 
ATOM      9  C   UNL d   1     -41.205-120.163 -52.409  0.00  0.00     0.099 A 
ATOM     10  C   UNL d   1     -41.408-123.643 -52.553  0.00  0.00     0.018 A 
ATOM     11  C   UNL d   1     -41.351-122.427 -53.733  0.00  0.00     0.010 A 
ATOM     12  C   UNL d   1     -41.398-123.201 -53.938  0.00  0.00     0.035 A 
ATOM     13  C   UNL d   1     -41.427-123.816 -53.340  0.00  0.00     0.008 A 
ATOM     14 BR   UNL d   1     -41.419-123.414 -54.713  0.00  0.00    -0.049 Br
ATOM     15  C   UNL d   1     -41.164-119.388 -52.710  0.00  0.00     0.021 A 
ATOM     16  C   UNL d   1     -41.164-119.713 -51.101  0.00  0.00     0.021 A 
ATOM     17  C   UNL d   1     -41.123-118.944 -51.410  0.00  0.00     0.002 A 
ATOM     18  C   UNL d   1     -41.123-118.783 -52.215  0.00  0.00     0.002 A 
ENDROOT
BRANCH   2  19
ATOM     19  C   UNL d   1     -41.347-122.915 -50.897  0.00  0.00     0.101 C 
BRANCH  19  20
ATOM     20  C   UNL d   1     -42.058-123.319 -50.692  0.00  0.00     0.100 C 
BRANCH  20  21
ATOM     21  N   UNL d   1     -42.038-123.376 -49.853  0.00  0.00    -0.298 N 
ATOM     22  C   UNL d   1     -42.697-123.107 -49.398  0.00  0.00     0.107 A 
ATOM     23  C   UNL d   1     -42.678-123.162 -48.566  0.00  0.00     0.142 A 
ATOM     24  O   UNL d   1     -42.006-123.484 -48.181  0.00  0.00    -0.300 OA
ATOM     25  C   UNL d   1     -41.353-123.750 -48.640  0.00  0.00     0.142 A 
ATOM     26  C   UNL d   1     -41.370-123.695 -49.477  0.00  0.00     0.107 A 
ENDBRANCH  20  21
ENDBRANCH  19  20
ENDBRANCH   2  19
TORSDOF 3
ENDMDL
MODEL 2
REMARK VINA RESULT:       7.2      2.051      4.236
REMARK  3 active torsions:
REMARK  status: ('A' for Active; 'I' for Inactive)
REMARK    1  A    between atoms: C_8  and  N_2 
REMARK    2  A    between atoms: C_14  and  C_8 
REMARK    3  A    between atoms: N_13  and  C_14 
ROOT
ATOM      1  C   UNL d   1     -41.788-122.283 -51.318  0.00  0.00     0.166 A 
ATOM      2  N   UNL d   1     -41.594-122.058 -52.078  0.00  0.00    -0.288 N 
ATOM      3  C   UNL d   1     -41.768-121.643 -50.792  0.00  0.00     0.117 A 
ATOM      4  C   UNL d   1     -41.559-121.017 -51.240  0.00  0.00     0.037 A 
ATOM      5  C   UNL d   1     -41.448-121.276 -52.050  0.00  0.00     0.067 A 
ATOM      6  N   UNL d   1     -41.984-122.989 -51.018  0.00  0.00    -0.225 NA
ATOM      7  N   UNL d   1     -41.940-121.707 -49.983  0.00  0.00    -0.241 NA
ATOM      8  C   UNL d   1     -42.156-123.050 -50.205  0.00  0.00     0.101 A 
ATOM      9  C   UNL d   1     -42.133-122.406 -49.691  0.00  0.00     0.099 A 
ATOM     10  C   UNL d   1     -41.234-120.762 -52.634  0.00  0.00     0.018 A 
ATOM     11  C   UNL d   1     -41.452-120.251 -51.031  0.00  0.00     0.010 A 
ATOM     12  C   UNL d   1     -41.239-119.734 -51.605  0.00  0.00     0.035 A 
ATOM     13  C   UNL d   1     -41.128-119.992 -52.416  0.00  0.00     0.008 A 
ATOM     14 BR   UNL d   1     -41.123-118.958 -51.428  0.00  0.00    -0.049 Br
ATOM     15  C   UNL d   1     -42.308-122.478 -48.880  0.00  0.00     0.021 A 
ATOM     16  C   UNL d   1     -42.350-123.754 -49.912  0.00  0.00     0.021 A 
ATOM     17  C   UNL d   1     -42.523-123.817 -49.103  0.00  0.00     0.002 A 
ATOM     18  C   UNL d   1     -42.501-123.178 -48.588  0.00  0.00     0.002 A 
ENDROOT
BRANCH   2  19
ATOM     19  C   UNL d   1     -41.549-122.538 -52.776  0.00  0.00     0.101 C 
BRANCH  19  20
ATOM     20  C   UNL d   1     -42.269-122.685 -53.190  0.00  0.00     0.100 C 
BRANCH  20  21
ATOM     21  N   UNL d   1     -42.028-122.901 -53.967  0.00  0.00    -0.298 N 
ATOM     22  C   UNL d   1     -41.543-123.585 -54.080  0.00  0.00     0.107 A 
ATOM     23  C   UNL d   1     -41.303-123.800 -54.849  0.00  0.00     0.142 A 
ATOM     24  O   UNL d   1     -41.543-123.341 -55.509  0.00  0.00    -0.300 OA
ATOM     25  C   UNL d   1     -42.025-122.663 -55.389  0.00  0.00     0.142 A 
ATOM     26  C   UNL d   1     -42.267-122.444 -54.616  0.00  0.00     0.107 A 
ENDBRANCH  20  21
ENDBRANCH  19  20
ENDBRANCH   2  19
TORSDOF 3
ENDMDL
MODEL 3
REMARK VINA RESULT:       7.3      1.329      2.980
REMARK  3 active torsions:
REMARK  status: ('A' for Active; 'I' for Inactive)
REMARK    1  A    between atoms: C_8  and  N_2 
REMARK    2  A    between atoms: C_14  and  C_8 
REMARK    3  A    between atoms: N_13  and  C_14 
ROOT
ATOM      1  C   UNL d   1     -41.891-122.612 -52.779  0.00  0.00     0.166 A 
ATOM      2  N   UNL d   1     -41.931-122.520 -51.969  0.00  0.00    -0.288 N 
ATOM      3  C   UNL d   1     -41.677-121.908 -53.160  0.00  0.00     0.117 A 
ATOM      4  C   UNL d   1     -41.585-121.378 -52.571  0.00  0.00     0.037 A 
ATOM      5  C   UNL d   1     -41.744-121.761 -51.820  0.00  0.00     0.067 A 
ATOM      6  N   UNL d   1     -42.020-123.244 -53.238  0.00  0.00    -0.225 NA
ATOM      7  N   UNL d   1     -41.593-121.837 -53.982  0.00  0.00    -0.241 NA
ATOM      8  C   UNL d   1     -41.936-123.170 -54.064  0.00  0.00     0.101 A 
ATOM      9  C   UNL d   1     -41.722-122.464 -54.432  0.00  0.00     0.099 A 
ATOM     10  C   UNL d   1     -41.695-121.361 -51.122  0.00  0.00     0.018 A 
ATOM     11  C   UNL d   1     -41.380-120.605 -52.607  0.00  0.00     0.010 A 
ATOM     12  C   UNL d   1     -41.328-120.200 -51.917  0.00  0.00     0.035 A 
ATOM     13  C   UNL d   1     -41.488-120.582 -51.166  0.00  0.00     0.008 A 
ATOM     14 BR   UNL d   1     -41.124-119.422 -51.919  0.00  0.00    -0.049 Br
ATOM     15  C   UNL d   1     -41.640-122.400 -55.258  0.00  0.00     0.021 A 
ATOM     16  C   UNL d   1     -42.065-123.801 -54.515  0.00  0.00     0.021 A 
ATOM     17  C   UNL d   1     -41.981-123.729 -55.338  0.00  0.00     0.002 A 
ATOM     18  C   UNL d   1     -41.769-123.027 -55.707  0.00  0.00     0.002 A 
ENDROOT
BRANCH   2  19
ATOM     19  C   UNL d   1     -42.129-123.098 -51.380  0.00  0.00     0.101 C 
BRANCH  19  20
ATOM     20  C   UNL d   1     -41.490-123.463 -50.969  0.00  0.00     0.100 C 
BRANCH  20  21
ATOM     21  N   UNL d   1     -41.777-123.574 -50.185  0.00  0.00    -0.298 N 
ATOM     22  C   UNL d   1     -41.232-123.604 -49.539  0.00  0.00     0.107 A 
ATOM     23  C   UNL d   1     -41.515-123.714 -48.763  0.00  0.00     0.142 A 
ATOM     24  O   UNL d   1     -42.339-123.795 -48.622  0.00  0.00    -0.300 OA
ATOM     25  C   UNL d   1     -42.875-123.765 -49.270  0.00  0.00     0.142 A 
ATOM     26  C   UNL d   1     -42.592-123.654 -50.051  0.00  0.00     0.107 A 
ENDBRANCH  20  21
ENDBRANCH  19  20
ENDBRANCH   2  19
TORSDOF 3
ENDMDL
MODEL 4
REMARK VINA RESULT:       8.7      2.077      3.509
REMARK  3 active torsions:
REMARK  status: ('A' for Active; 'I' for Inactive)
REMARK    1  A    between atoms: C_8  and  N_2 
REMARK    2  A    between atoms: C_14  and  C_8 
REMARK    3  A    between atoms: N_13  and  C_14 
ROOT
ATOM      1  C   UNL d   1     -41.132-121.505 -51.878  0.00  0.00     0.166 A 
ATOM      2  N   UNL d   1     -41.134-122.289 -52.106  0.00  0.00    -0.288 N 
ATOM      3  C   UNL d   1     -41.133-121.423 -51.053  0.00  0.00     0.117 A 
ATOM      4  C   UNL d   1     -41.136-122.169 -50.774  0.00  0.00     0.037 A 
ATOM      5  C   UNL d   1     -41.137-122.717 -51.435  0.00  0.00     0.067 A 
ATOM      6  N   UNL d   1     -41.129-120.839 -52.306  0.00  0.00    -0.225 NA
ATOM      7  N   UNL d   1     -41.131-120.690 -50.664  0.00  0.00    -0.241 NA
ATOM      8  C   UNL d   1     -41.127-120.104 -51.912  0.00  0.00     0.101 A 
ATOM      9  C   UNL d   1     -41.129-120.034 -51.090  0.00  0.00     0.099 A 
ATOM     10  C   UNL d   1     -41.139-123.516 -51.323  0.00  0.00     0.018 A 
ATOM     11  C   UNL d   1     -41.138-122.433 -50.018  0.00  0.00     0.010 A 
ATOM     12  C   UNL d   1     -41.141-123.225 -49.898  0.00  0.00     0.035 A 
ATOM     13  C   UNL d   1     -41.142-123.773 -50.559  0.00  0.00     0.008 A 
ATOM     14 BR   UNL d   1     -41.143-123.522 -49.151  0.00  0.00    -0.049 Br
ATOM     15  C   UNL d   1     -41.127-119.295 -50.707  0.00  0.00     0.021 A 
ATOM     16  C   UNL d   1     -41.124-119.445 -52.342  0.00  0.00     0.021 A 
ATOM     17  C   UNL d   1     -41.123-118.713 -51.951  0.00  0.00     0.002 A 
ATOM     18  C   UNL d   1     -41.124-118.640 -51.134  0.00  0.00     0.002 A 
ENDROOT
BRANCH   2  19
ATOM     19  C   UNL d   1     -41.133-122.611 -52.891  0.00  0.00     0.101 C 
BRANCH  19  20
ATOM     20  C   UNL d   1     -41.863-122.916 -53.182  0.00  0.00     0.100 C 
BRANCH  20  21
ATOM     21  N   UNL d   1     -41.777-122.911 -54.019  0.00  0.00    -0.298 N 
ATOM     22  C   UNL d   1     -42.189-122.335 -54.480  0.00  0.00     0.107 A 
ATOM     23  C   UNL d   1     -42.104-122.329 -55.310  0.00  0.00     0.142 A 
ATOM     24  O   UNL d   1     -41.611-122.894 -55.686  0.00  0.00    -0.300 OA
ATOM     25  C   UNL d   1     -41.204-123.464 -55.222  0.00  0.00     0.142 A 
ATOM     26  C   UNL d   1     -41.288-123.472 -54.387  0.00  0.00     0.107 A 
ENDBRANCH  20  21
ENDBRANCH  19  20
ENDBRANCH   2  19
TORSDOF 3
ENDMDL
