MODEL 1
REMARK VINA RESULT:      76.6      0.000      0.000
REMARK  4 active torsions:
REMARK  status: ('A' for Active; 'I' for Inactive)
REMARK    1  A    between atoms: N_2  and  C_1 
REMARK    2  A    between atoms: C_16  and  N_6 
REMARK    3  A    between atoms: C_14  and  C_7 
REMARK    4  A    between atoms: N_8  and  C_12 
ROOT
ATOM      1  N   UNL d   1     -50.275  25.205  33.636  0.00  0.00    -0.288 N 
ATOM      2  C   UNL d   1     -50.976  24.817  33.691  0.00  0.00     0.196 A 
ATOM      3  S   UNL d   1     -50.855  24.020  33.516  0.00  0.00    -0.092 SA
ATOM      4  C   UNL d   1     -49.693  24.674  33.427  0.00  0.00     0.268 A 
ATOM      5  C   UNL d   1     -50.046  23.940  33.351  0.00  0.00     0.093 A 
ATOM      6  O   UNL d   1     -48.874  24.840  33.307  0.00  0.00    -0.266 OA
ENDROOT
BRANCH   1   7
ATOM      7  C   UNL d   1     -50.225  26.021  33.783  0.00  0.00     0.139 A 
ATOM      8  C   UNL d   1     -49.553  26.391  34.110  0.00  0.00     0.296 A 
ATOM      9  N   UNL d   1     -49.711  27.212  34.174  0.00  0.00    -0.209 N 
ATOM     10  O   UNL d   1     -48.859  25.976  34.324  0.00  0.00    -0.264 OA
ATOM     11  N   UNL d   1     -50.466  27.346  33.892  0.00  0.00    -0.238 N 
ATOM     12  C   UNL d   1     -50.787  26.609  33.649  0.00  0.00     0.102 A 
ATOM     13  C   UNL d   1     -50.852  28.061  33.848  0.00  0.00     0.120 C 
ATOM     14  C   UNL d   1     -51.540  26.500  33.329  0.00  0.00     0.022 C 
BRANCH   9  15
ATOM     15  C   UNL d   1     -49.261  27.841  34.452  0.00  0.00     0.085 A 
ATOM     16  C   UNL d   1     -48.898  27.813  35.174  0.00  0.00     0.019 A 
ATOM     17  C   UNL d   1     -48.448  28.442  35.452  0.00  0.00     0.002 A 
ATOM     18  C   UNL d   1     -48.364  29.115  34.991  0.00  0.00     0.000 A 
ATOM     19  C   UNL d   1     -48.725  29.152  34.267  0.00  0.00     0.002 A 
ATOM     20  C   UNL d   1     -49.183  28.523  33.972  0.00  0.00     0.019 A 
ENDBRANCH   9  15
ENDBRANCH   1   7
BRANCH   2  21
ATOM     21  C   UNL d   1     -51.729  24.485  33.766  0.00  0.00    -0.001 A 
ATOM     22  C   UNL d   1     -52.379  24.831  33.377  0.00  0.00    -0.001 A 
ATOM     23  C   UNL d   1     -53.139  24.494  33.454  0.00  0.00     0.023 A 
ATOM     24  C   UNL d   1     -53.243  23.821  33.914  0.00  0.00     0.127 A 
ATOM     25  C   UNL d   1     -52.595  23.478  34.300  0.00  0.00     0.023 A 
ATOM     26  C   UNL d   1     -51.835  23.815  34.223  0.00  0.00    -0.001 A 
BRANCH  24  27
ATOM     27  N   UNL d   1     -53.991  23.504  33.979  0.00  0.00    -0.114 N 
ATOM     28  O   UNL d   1     -54.419  23.197  33.343  0.00  0.00    -0.532 OA
ATOM     29  O   UNL d   1     -54.424  23.443  34.675  0.00  0.00    -0.532 OA
ENDBRANCH  24  27
ENDBRANCH   2  21
TORSDOF 4
ENDMDL
