MODEL 1
REMARK VINA RESULT:      -3.5      0.000      0.000
REMARK  1 active torsions:
REMARK  status: ('A' for Active; 'I' for Inactive)
REMARK       I    between atoms: C_8  and  N_9 
REMARK    1  A    between atoms: N_9  and  C_10 
ROOT
ATOM      1  C   UNL d   1      33.237  19.867 -21.814  0.00  0.00     0.102 A 
ATOM      2  O   UNL d   1      33.235  19.041 -21.777  0.00  0.00    -0.307 OA
ATOM      3  C   UNL d   1      33.239  20.098 -22.604  0.00  0.00     0.025 A 
ATOM      4  C   UNL d   1      33.239  19.409 -23.064  0.00  0.00     0.025 A 
ATOM      5  C   UNL d   1      33.237  18.763 -22.556  0.00  0.00     0.100 A 
ATOM      6  C   UNL d   1      33.236  20.435 -21.220  0.00  0.00     0.044 A 
ATOM      7  C   UNL d   1      33.241  20.893 -22.804  0.00  0.00     0.004 A 
ATOM      8  C   UNL d   1      33.238  21.235 -21.412  0.00  0.00     0.087 A 
ATOM      9  C   UNL d   1      33.240  21.466 -22.210  0.00  0.00     0.019 A 
ATOM     10  C   UNL d   1      33.241  19.292 -23.887  0.00  0.00     0.002 A 
ATOM     11  C   UNL d   1      33.236  17.995 -22.863  0.00  0.00     0.025 A 
ATOM     12  C   UNL d   1      33.241  18.528 -24.190  0.00  0.00     0.000 A 
ATOM     13  C   UNL d   1      33.238  17.878 -23.678  0.00  0.00     0.002 A 
ENDROOT
BRANCH   8  14
ATOM     14  N   UNL d   1      33.237  21.808 -20.818  0.00  0.00    -0.208 NA
ATOM     15  C   UNL d   1      32.524  22.123 -20.548  0.00  0.00     0.279 C 
ATOM     16  O   UNL d   1      31.811  21.862 -20.875  0.00  0.00    -0.265 OA
ATOM     17  C   UNL d   1      32.522  22.698 -19.951  0.00  0.00     0.068 C 
ENDBRANCH   8  14
TORSDOF 1
ENDMDL
MODEL 2
REMARK VINA RESULT:      -3.5      0.633      1.133
REMARK  1 active torsions:
REMARK  status: ('A' for Active; 'I' for Inactive)
REMARK       I    between atoms: C_8  and  N_9 
REMARK    1  A    between atoms: N_9  and  C_10 
ROOT
ATOM      1  C   UNL d   1      33.237  20.517 -22.646  0.00  0.00     0.102 A 
ATOM      2  O   UNL d   1      33.238  20.291 -23.442  0.00  0.00    -0.307 OA
ATOM      3  C   UNL d   1      33.237  19.840 -22.177  0.00  0.00     0.025 A 
ATOM      4  C   UNL d   1      33.238  19.187 -22.686  0.00  0.00     0.025 A 
ATOM      5  C   UNL d   1      33.239  19.464 -23.459  0.00  0.00     0.100 A 
ATOM      6  C   UNL d   1      33.236  21.260 -22.295  0.00  0.00     0.044 A 
ATOM      7  C   UNL d   1      33.236  19.903 -21.360  0.00  0.00     0.004 A 
ATOM      8  C   UNL d   1      33.235  21.331 -21.475  0.00  0.00     0.087 A 
ATOM      9  C   UNL d   1      33.235  20.647 -21.004  0.00  0.00     0.019 A 
ATOM     10  C   UNL d   1      33.239  18.368 -22.537  0.00  0.00     0.002 A 
ATOM     11  C   UNL d   1      33.240  18.930 -24.090  0.00  0.00     0.025 A 
ATOM     12  C   UNL d   1      33.240  17.840 -23.165  0.00  0.00     0.000 A 
ATOM     13  C   UNL d   1      33.241  18.120 -23.944  0.00  0.00     0.002 A 
ENDROOT
BRANCH   8  14
ATOM     14  N   UNL d   1      33.234  22.075 -21.120  0.00  0.00    -0.208 NA
ATOM     15  C   UNL d   1      32.525  22.409 -20.861  0.00  0.00     0.279 C 
ATOM     16  O   UNL d   1      31.817  21.994 -20.960  0.00  0.00    -0.265 OA
ATOM     17  C   UNL d   1      32.522  23.157 -20.504  0.00  0.00     0.068 C 
ENDBRANCH   8  14
TORSDOF 1
ENDMDL
MODEL 3
REMARK VINA RESULT:      -3.2      3.731      5.208
REMARK  1 active torsions:
REMARK  status: ('A' for Active; 'I' for Inactive)
REMARK       I    between atoms: C_8  and  N_9 
REMARK    1  A    between atoms: N_9  and  C_10 
ROOT
ATOM      1  C   UNL d   1      30.309  17.159 -24.433  0.00  0.00     0.102 A 
ATOM      2  O   UNL d   1      29.486  17.226 -24.470  0.00  0.00    -0.307 OA
ATOM      3  C   UNL d   1      30.504  16.560 -23.903  0.00  0.00     0.025 A 
ATOM      4  C   UNL d   1      29.795  16.250 -23.608  0.00  0.00     0.025 A 
ATOM      5  C   UNL d   1      29.173  16.658 -23.956  0.00  0.00     0.100 A 
ATOM      6  C   UNL d   1      30.904  17.574 -24.820  0.00  0.00     0.044 A 
ATOM      7  C   UNL d   1      31.290  16.373 -23.759  0.00  0.00     0.004 A 
ATOM      8  C   UNL d   1      31.694  17.394 -24.680  0.00  0.00     0.087 A 
ATOM      9  C   UNL d   1      31.888  16.789 -24.145  0.00  0.00     0.019 A 
ATOM     10  C   UNL d   1      29.641  15.642 -23.062  0.00  0.00     0.002 A 
ATOM     11  C   UNL d   1      28.392  16.466 -23.763  0.00  0.00     0.025 A 
ATOM     12  C   UNL d   1      28.865  15.453 -22.871  0.00  0.00     0.000 A 
ATOM     13  C   UNL d   1      28.239  15.865 -23.223  0.00  0.00     0.002 A 
ENDROOT
BRANCH   8  14
ATOM     14  N   UNL d   1      32.293  17.809 -25.067  0.00  0.00    -0.208 NA
ATOM     15  C   UNL d   1      32.638  18.468 -24.708  0.00  0.00     0.279 C 
ATOM     16  O   UNL d   1      32.379  18.709 -23.961  0.00  0.00    -0.265 OA
ATOM     17  C   UNL d   1      33.239  18.886 -25.095  0.00  0.00     0.068 C 
ENDBRANCH   8  14
TORSDOF 1
ENDMDL
MODEL 4
REMARK VINA RESULT:      -1.7      5.312      6.215
REMARK  1 active torsions:
REMARK  status: ('A' for Active; 'I' for Inactive)
REMARK       I    between atoms: C_8  and  N_9 
REMARK    1  A    between atoms: N_9  and  C_10 
ROOT
ATOM      1  C   UNL d   1      29.938  15.778 -24.001  0.00  0.00     0.102 A 
ATOM      2  O   UNL d   1      29.380  15.456 -23.482  0.00  0.00    -0.307 OA
ATOM      3  C   UNL d   1      29.685  16.525 -24.234  0.00  0.00     0.025 A 
ATOM      4  C   UNL d   1      28.962  16.671 -23.858  0.00  0.00     0.025 A 
ATOM      5  C   UNL d   1      28.777  16.016 -23.398  0.00  0.00     0.100 A 
ATOM      6  C   UNL d   1      30.648  15.477 -24.287  0.00  0.00     0.044 A 
ATOM      7  C   UNL d   1      30.136  16.973 -24.752  0.00  0.00     0.004 A 
ATOM      8  C   UNL d   1      31.106  15.920 -24.807  0.00  0.00     0.087 A 
ATOM      9  C   UNL d   1      30.849  16.674 -25.041  0.00  0.00     0.019 A 
ATOM     10  C   UNL d   1      28.448  17.324 -23.878  0.00  0.00     0.002 A 
ATOM     11  C   UNL d   1      28.079  16.005 -22.955  0.00  0.00     0.025 A 
ATOM     12  C   UNL d   1      27.755  17.311 -23.437  0.00  0.00     0.000 A 
ATOM     13  C   UNL d   1      27.569  16.650 -22.974  0.00  0.00     0.002 A 
ENDROOT
BRANCH   8  14
ATOM     14  N   UNL d   1      31.819  15.620 -25.096  0.00  0.00    -0.208 NA
ATOM     15  C   UNL d   1      32.521  15.753 -24.684  0.00  0.00     0.279 C 
ATOM     16  O   UNL d   1      32.507  16.189 -23.981  0.00  0.00    -0.265 OA
ATOM     17  C   UNL d   1      33.238  15.453 -24.973  0.00  0.00     0.068 C 
ENDBRANCH   8  14
TORSDOF 1
ENDMDL
