MODEL 1
REMARK VINA RESULT:      -3.4      0.000      0.000
REMARK  7 active torsions:
REMARK  status: ('A' for Active; 'I' for Inactive)
REMARK    1  A    between atoms: C_2  and  S_1 
REMARK    2  A    between atoms: N_11  and  S_1 
REMARK    3  A    between atoms: O_14  and  C_4 
REMARK    4  A    between atoms: N_10  and  C_15 
REMARK    5  A    between atoms: C_19  and  N_11 
REMARK    6  A    between atoms: C_15  and  C_16 
REMARK    7  A    between atoms: C_16  and  C_19 
ROOT
ATOM      1  S   UNL d   1      58.283  -0.168  30.023  0.00  0.00     0.287 S 
ATOM      2  O   UNL d   1      57.993   0.219  29.359  0.00  0.00    -0.198 OA
ATOM      3  O   UNL d   1      58.575  -0.558  30.692  0.00  0.00    -0.198 OA
ENDROOT
BRANCH   1   4
ATOM      4  C   UNL d   1      58.993  -0.304  29.634  0.00  0.00     0.128 A 
ATOM      5  C   UNL d   1      59.598   0.262  29.676  0.00  0.00     0.026 A 
ATOM      6  C   UNL d   1      60.318   0.125  29.281  0.00  0.00     0.059 A 
ATOM      7 CL   UNL d   1      60.912   0.681  29.323  0.00  0.00    -0.082 Cl
ATOM      8  C   UNL d   1      60.424  -0.577  28.850  0.00  0.00     0.013 A 
ATOM      9  C   UNL d   1      59.822  -1.132  28.812  0.00  0.00     0.026 A 
ATOM     10  C   UNL d   1      61.133  -0.712  28.462  0.00  0.00     0.001 C 
ATOM     11  C   UNL d   1      59.101  -0.994  29.207  0.00  0.00     0.106 A 
BRANCH  11  12
ATOM     12  O   UNL d   1      58.499  -1.554  29.167  0.00  0.00    -0.327 OA
ATOM     13  C   UNL d   1      58.587  -2.210  28.682  0.00  0.00     0.181 C 
ENDBRANCH  11  12
ENDBRANCH   1   4
BRANCH   1  14
ATOM     14  N   UNL d   1      57.565  -0.031  30.415  0.00  0.00    -0.157 NA
BRANCH  14  15
ATOM     15  C   UNL d   1      57.572   0.253  31.195  0.00  0.00     0.114 C 
BRANCH  15  16
ATOM     16  C   UNL d   1      56.930   0.099  31.691  0.00  0.00     0.041 C 
BRANCH  16  17
ATOM     17  C   UNL d   1      56.651   0.682  32.194  0.00  0.00     0.082 C 
BRANCH  17  18
ATOM     18  N   UNL d   1      56.303   0.477  32.908  0.00  0.00    -0.299 N 
ATOM     19  C   UNL d   1      55.501   0.250  32.934  0.00  0.00     0.107 A 
ATOM     20  C   UNL d   1      55.154   0.045  33.648  0.00  0.00     0.142 A 
ATOM     21  O   UNL d   1      55.592   0.062  34.343  0.00  0.00    -0.300 OA
ATOM     22  C   UNL d   1      56.390   0.286  34.325  0.00  0.00     0.142 A 
ATOM     23  C   UNL d   1      56.744   0.495  33.599  0.00  0.00     0.107 A 
ENDBRANCH  17  18
ENDBRANCH  16  17
ENDBRANCH  15  16
ENDBRANCH  14  15
ENDBRANCH   1  14
TORSDOF 7
ENDMDL
MODEL 2
REMARK VINA RESULT:      -2.4      1.033      1.501
REMARK  7 active torsions:
REMARK  status: ('A' for Active; 'I' for Inactive)
REMARK    1  A    between atoms: C_2  and  S_1 
REMARK    2  A    between atoms: N_11  and  S_1 
REMARK    3  A    between atoms: O_14  and  C_4 
REMARK    4  A    between atoms: N_10  and  C_15 
REMARK    5  A    between atoms: C_19  and  N_11 
REMARK    6  A    between atoms: C_15  and  C_16 
REMARK    7  A    between atoms: C_16  and  C_19 
ROOT
ATOM      1  S   UNL d   1      57.960  -0.306  30.328  0.00  0.00     0.287 S 
ATOM      2  O   UNL d   1      58.160   0.462  30.116  0.00  0.00    -0.198 OA
ATOM      3  O   UNL d   1      57.758  -1.079  30.542  0.00  0.00    -0.198 OA
ENDROOT
BRANCH   1   4
ATOM      4  C   UNL d   1      58.592  -0.592  29.890  0.00  0.00     0.128 A 
ATOM      5  C   UNL d   1      58.487  -1.254  29.403  0.00  0.00     0.026 A 
ATOM      6  C   UNL d   1      59.129  -1.545  28.958  0.00  0.00     0.059 A 
ATOM      7 CL   UNL d   1      59.024  -2.196  28.479  0.00  0.00    -0.082 Cl
ATOM      8  C   UNL d   1      59.867  -1.169  29.007  0.00  0.00     0.013 A 
ATOM      9  C   UNL d   1      59.964  -0.514  29.491  0.00  0.00     0.026 A 
ATOM     10  C   UNL d   1      60.498  -1.455  28.570  0.00  0.00     0.001 C 
ATOM     11  C   UNL d   1      59.323  -0.224  29.936  0.00  0.00     0.106 A 
BRANCH  11  12
ATOM     12  O   UNL d   1      59.424   0.434  30.421  0.00  0.00    -0.327 OA
ATOM     13  C   UNL d   1      60.181   0.653  30.652  0.00  0.00     0.181 C 
ENDBRANCH  11  12
ENDBRANCH   1   4
BRANCH   1  14
ATOM     14  N   UNL d   1      57.321  -0.016  30.771  0.00  0.00    -0.157 NA
BRANCH  14  15
ATOM     15  C   UNL d   1      57.052  -0.442  31.430  0.00  0.00     0.114 C 
BRANCH  15  16
ATOM     16  C   UNL d   1      56.644  -0.050  32.031  0.00  0.00     0.041 C 
BRANCH  16  17
ATOM     17  C   UNL d   1      56.747  -0.276  32.811  0.00  0.00     0.082 C 
BRANCH  17  18
ATOM     18  N   UNL d   1      56.228  -0.009  33.389  0.00  0.00    -0.299 N 
ATOM     19  C   UNL d   1      55.411  -0.162  33.321  0.00  0.00     0.107 A 
ATOM     20  C   UNL d   1      54.893   0.105  33.898  0.00  0.00     0.142 A 
ATOM     21  O   UNL d   1      55.174   0.525  34.546  0.00  0.00    -0.300 OA
ATOM     22  C   UNL d   1      55.985   0.681  34.620  0.00  0.00     0.142 A 
ATOM     23  C   UNL d   1      56.512   0.409  34.033  0.00  0.00     0.107 A 
ENDBRANCH  17  18
ENDBRANCH  16  17
ENDBRANCH  15  16
ENDBRANCH  14  15
ENDBRANCH   1  14
TORSDOF 7
ENDMDL
MODEL 3
REMARK VINA RESULT:      -1.8      1.808      5.213
REMARK  7 active torsions:
REMARK  status: ('A' for Active; 'I' for Inactive)
REMARK    1  A    between atoms: C_2  and  S_1 
REMARK    2  A    between atoms: N_11  and  S_1 
REMARK    3  A    between atoms: O_14  and  C_4 
REMARK    4  A    between atoms: N_10  and  C_15 
REMARK    5  A    between atoms: C_19  and  N_11 
REMARK    6  A    between atoms: C_15  and  C_16 
REMARK    7  A    between atoms: C_16  and  C_19 
ROOT
ATOM      1  S   UNL d   1      56.889  -0.417  32.064  0.00  0.00     0.287 S 
ATOM      2  O   UNL d   1      57.008  -1.182  32.338  0.00  0.00    -0.198 OA
ATOM      3  O   UNL d   1      56.769   0.354  31.787  0.00  0.00    -0.198 OA
ENDROOT
BRANCH   1   4
ATOM      4  C   UNL d   1      56.814  -0.152  32.837  0.00  0.00     0.128 A 
ATOM      5  C   UNL d   1      57.482   0.129  33.241  0.00  0.00     0.026 A 
ATOM      6  C   UNL d   1      57.406   0.399  34.025  0.00  0.00     0.059 A 
ATOM      7 CL   UNL d   1      58.063   0.675  34.421  0.00  0.00    -0.082 Cl
ATOM      8  C   UNL d   1      56.663   0.384  34.395  0.00  0.00     0.013 A 
ATOM      9  C   UNL d   1      56.007   0.105  33.990  0.00  0.00     0.026 A 
ATOM     10  C   UNL d   1      56.588   0.649  35.167  0.00  0.00     0.001 C 
ATOM     11  C   UNL d   1      56.083  -0.165  33.206  0.00  0.00     0.106 A 
BRANCH  11  12
ATOM     12  O   UNL d   1      55.422  -0.444  32.802  0.00  0.00    -0.327 OA
ATOM     13  C   UNL d   1      54.758  -0.678  33.226  0.00  0.00     0.181 C 
ENDBRANCH  11  12
ENDBRANCH   1   4
BRANCH   1  14
ATOM     14  N   UNL d   1      56.965  -0.686  31.283  0.00  0.00    -0.157 NA
BRANCH  14  15
ATOM     15  C   UNL d   1      57.606  -0.432  30.822  0.00  0.00     0.114 C 
BRANCH  15  16
ATOM     16  C   UNL d   1      57.899  -0.920  30.225  0.00  0.00     0.041 C 
BRANCH  16  17
ATOM     17  C   UNL d   1      58.284  -0.594  29.580  0.00  0.00     0.082 C 
BRANCH  17  18
ATOM     18  N   UNL d   1      58.909  -0.994  29.228  0.00  0.00    -0.299 N 
ATOM     19  C   UNL d   1      59.682  -0.686  29.275  0.00  0.00     0.107 A 
ATOM     20  C   UNL d   1      60.306  -1.086  28.924  0.00  0.00     0.142 A 
ATOM     21  O   UNL d   1      60.175  -1.791  28.524  0.00  0.00    -0.300 OA
ATOM     22  C   UNL d   1      59.408  -2.103  28.474  0.00  0.00     0.142 A 
ATOM     23  C   UNL d   1      58.773  -1.697  28.831  0.00  0.00     0.107 A 
ENDBRANCH  17  18
ENDBRANCH  16  17
ENDBRANCH  15  16
ENDBRANCH  14  15
ENDBRANCH   1  14
TORSDOF 7
ENDMDL
MODEL 4
REMARK VINA RESULT:      -1.3      1.836      2.439
REMARK  7 active torsions:
REMARK  status: ('A' for Active; 'I' for Inactive)
REMARK    1  A    between atoms: C_2  and  S_1 
REMARK    2  A    between atoms: N_11  and  S_1 
REMARK    3  A    between atoms: O_14  and  C_4 
REMARK    4  A    between atoms: N_10  and  C_15 
REMARK    5  A    between atoms: C_19  and  N_11 
REMARK    6  A    between atoms: C_15  and  C_16 
REMARK    7  A    between atoms: C_16  and  C_19 
ROOT
ATOM      1  S   UNL d   1      58.623  -1.994  29.386  0.00  0.00     0.287 S 
ATOM      2  O   UNL d   1      58.942  -1.937  30.141  0.00  0.00    -0.198 OA
ATOM      3  O   UNL d   1      58.300  -2.051  28.626  0.00  0.00    -0.198 OA
ENDROOT
BRANCH   1   4
ATOM      4  C   UNL d   1      59.248  -2.474  29.157  0.00  0.00     0.128 A 
ATOM      5  C   UNL d   1      59.123  -3.286  29.049  0.00  0.00     0.026 A 
ATOM      6  C   UNL d   1      59.758  -3.773  28.816  0.00  0.00     0.059 A 
ATOM      7 CL   UNL d   1      59.634  -4.572  28.709  0.00  0.00    -0.082 Cl
ATOM      8  C   UNL d   1      60.509  -3.440  28.696  0.00  0.00     0.013 A 
ATOM      9  C   UNL d   1      60.626  -2.637  28.805  0.00  0.00     0.026 A 
ATOM     10  C   UNL d   1      61.133  -3.919  28.467  0.00  0.00     0.001 C 
ATOM     11  C   UNL d   1      59.991  -2.150  29.038  0.00  0.00     0.106 A 
BRANCH  11  12
ATOM     12  O   UNL d   1      60.112  -1.343  29.147  0.00  0.00    -0.327 OA
ATOM     13  C   UNL d   1      60.853  -1.021  29.002  0.00  0.00     0.181 C 
ENDBRANCH  11  12
ENDBRANCH   1   4
BRANCH   1  14
ATOM     14  N   UNL d   1      57.991  -1.509  29.618  0.00  0.00    -0.157 NA
BRANCH  14  15
ATOM     15  C   UNL d   1      58.037  -1.086  30.330  0.00  0.00     0.114 C 
BRANCH  15  16
ATOM     16  C   UNL d   1      57.350  -0.937  30.762  0.00  0.00     0.041 C 
BRANCH  16  17
ATOM     17  C   UNL d   1      57.324  -0.310  31.288  0.00  0.00     0.082 C 
BRANCH  17  18
ATOM     18  N   UNL d   1      56.755  -0.293  31.880  0.00  0.00    -0.299 N 
ATOM     19  C   UNL d   1      56.433  -1.005  32.172  0.00  0.00     0.107 A 
ATOM     20  C   UNL d   1      55.864  -0.987  32.763  0.00  0.00     0.142 A 
ATOM     21  O   UNL d   1      55.608  -0.270  33.071  0.00  0.00    -0.300 OA
ATOM     22  C   UNL d   1      55.924   0.441  32.785  0.00  0.00     0.142 A 
ATOM     23  C   UNL d   1      56.502   0.424  32.184  0.00  0.00     0.107 A 
ENDBRANCH  17  18
ENDBRANCH  16  17
ENDBRANCH  15  16
ENDBRANCH  14  15
ENDBRANCH   1  14
TORSDOF 7
ENDMDL
