MODEL 1
REMARK VINA RESULT:      31.6      0.000      0.000
REMARK  2 active torsions:
REMARK  status: ('A' for Active; 'I' for Inactive)
REMARK    1  A    between atoms: C_8  and  N_1 
REMARK    2  A    between atoms: O_15  and  C_14 
ROOT
ATOM      1  N   UNL d   1     -57.641 -98.979 -44.214  0.00  0.00    -0.243 N 
ATOM      2  C   UNL d   1     -57.564 -99.117 -44.990  0.00  0.00     0.251 A 
ATOM      3  C   UNL d   1     -56.923 -98.912 -43.864  0.00  0.00     0.264 A 
ATOM      4  C   UNL d   1     -56.738 -99.142 -45.160  0.00  0.00     0.129 A 
ATOM      5  C   UNL d   1     -56.341 -99.015 -44.462  0.00  0.00     0.047 A 
ATOM      6  C   UNL d   1     -55.524 -98.967 -44.229  0.00  0.00     0.001 A 
ATOM      7  C   UNL d   1     -55.711 -99.034 -44.593  0.00  0.00    -0.009 A 
ATOM      8  C   UNL d   1     -54.720 -99.040 -44.667  0.00  0.00    -0.000 A 
ATOM      9  C   UNL d   1     -54.926 -99.106 -45.027  0.00  0.00    -0.004 A 
ATOM     10  C   UNL d   1     -55.687 -98.830 -43.453  0.00  0.00    -0.004 A 
ATOM     11  O   UNL d   1     -58.205 -99.219 -45.533  0.00  0.00    -0.271 OA
ATOM     12  O   UNL d   1     -56.920 -98.756 -42.995  0.00  0.00    -0.267 OA
ENDROOT
BRANCH   1  13
ATOM     13  C   UNL d   1     -58.363 -98.917 -43.838  0.00  0.00     0.092 A 
ATOM     14  C   UNL d   1     -59.060 -98.858 -44.282  0.00  0.00     0.110 A 
ATOM     15  C   UNL d   1     -59.779 -98.795 -43.900  0.00  0.00     0.026 A 
ATOM     16  C   UNL d   1     -59.813 -98.791 -43.076  0.00  0.00     0.002 A 
ATOM     17  C   UNL d   1     -59.127 -98.850 -42.647  0.00  0.00     0.002 A 
ATOM     18  C   UNL d   1     -58.400 -98.913 -43.026  0.00  0.00     0.020 A 
BRANCH  14  19
ATOM     19  O   UNL d   1     -59.001 -98.864 -45.099  0.00  0.00    -0.327 OA
ATOM     20  C   UNL d   1     -59.596 -98.755 -45.537  0.00  0.00     0.181 C 
ENDBRANCH  14  19
ENDBRANCH   1  13
TORSDOF 2
ENDMDL
