MODEL 1
REMARK VINA RESULT:      -2.5      0.000      0.000
REMARK  5 active torsions:
REMARK  status: ('A' for Active; 'I' for Inactive)
REMARK    1  A    between atoms: N_6  and  C_1 
REMARK    2  A    between atoms: S_2  and  C_11 
REMARK    3  A    between atoms: N_8  and  S_2 
REMARK    4  A    between atoms: C_10  and  C_3 
REMARK       I    between atoms: C_9  and  N_6 
REMARK    5  A    between atoms: C_14  and  C_9 
REMARK       I    between atoms: N_22  and  C_10 
ROOT
ATOM      1  C   UNL d   1      32.765  20.767 -21.638  0.00  0.00     0.104 A 
ATOM      2  C   UNL d   1      32.745  19.465 -22.663  0.00  0.00     0.058 A 
ATOM      3  C   UNL d   1      33.232  20.110 -21.476  0.00  0.00     0.013 A 
ATOM      4  C   UNL d   1      32.282  20.778 -22.318  0.00  0.00     0.013 A 
ATOM      5  C   UNL d   1      33.223  19.457 -21.988  0.00  0.00     0.005 A 
ATOM      6  C   UNL d   1      32.274  20.129 -22.827  0.00  0.00     0.005 A 
ENDROOT
BRANCH   2   7
ATOM      7  C   UNL d   1      32.737  18.816 -23.172  0.00  0.00     0.280 C 
ATOM      8  N   UNL d   1      32.021  18.205 -22.972  0.00  0.00    -0.201 NA
ATOM      9  O   UNL d   1      33.241  18.847 -23.632  0.00  0.00    -0.265 OA
BRANCH   8  10
ATOM     10  C   UNL d   1      32.047  17.642 -23.447  0.00  0.00     0.119 A 
ATOM     11  C   UNL d   1      31.696  17.275 -24.033  0.00  0.00     0.082 A 
ATOM     12  C   UNL d   1      32.141  16.655 -24.242  0.00  0.00     0.013 A 
ATOM     13  C   UNL d   1      32.053  16.098 -24.797  0.00  0.00     0.001 A 
ATOM     14  C   UNL d   1      32.777  16.647 -23.770  0.00  0.00     0.031 A 
ATOM     15  C   UNL d   1      32.600  15.537 -24.879  0.00  0.00     0.001 A 
ATOM     16  C   UNL d   1      33.232  15.528 -24.410  0.00  0.00     0.006 A 
ATOM     17  S   UNL d   1      32.719  17.257 -23.279  0.00  0.00    -0.068 SA
BRANCH  11  18
ATOM     18  C   UNL d   1      31.011  17.483 -24.365  0.00  0.00     0.281 C 
ATOM     19  O   UNL d   1      31.011  17.881 -25.050  0.00  0.00    -0.265 OA
ATOM     20  N   UNL d   1      30.326  17.297 -24.017  0.00  0.00    -0.205 NA
ATOM     21  C   UNL d   1      29.612  17.516 -24.368  0.00  0.00     0.123 C 
ENDBRANCH  11  18
ENDBRANCH   8  10
ENDBRANCH   2   7
BRANCH   1  22
ATOM     22  S   UNL d   1      32.774  21.419 -21.126  0.00  0.00     0.272 S 
ATOM     23  O   UNL d   1      33.218  21.845 -21.676  0.00  0.00    -0.200 OA
ATOM     24  O   UNL d   1      32.328  20.991 -20.573  0.00  0.00    -0.200 OA
BRANCH  22  25
ATOM     25  N   UNL d   1      32.783  22.068 -20.617  0.00  0.00    -0.225 N 
ATOM     26  C   UNL d   1      33.189  22.031 -19.900  0.00  0.00     0.118 A 
ATOM     27  C   UNL d   1      33.198  22.686 -19.386  0.00  0.00     0.142 A 
ATOM     28  O   UNL d   1      32.795  23.380 -19.596  0.00  0.00    -0.300 OA
ATOM     29  C   UNL d   1      32.393  23.413 -20.306  0.00  0.00     0.142 A 
ATOM     30  C   UNL d   1      32.385  22.764 -20.816  0.00  0.00     0.118 A 
ENDBRANCH  22  25
ENDBRANCH   1  22
TORSDOF 5
ENDMDL
