MODEL 1
REMARK VINA RESULT:      -6.2      0.000      0.000
REMARK  9 active torsions:
REMARK  status: ('A' for Active; 'I' for Inactive)
REMARK    1  A    between atoms: N_4  and  C_1 
REMARK       I    between atoms: C_8  and  N_4 
REMARK    2  A    between atoms: C_19  and  N_4 
REMARK    3  A    between atoms: S_6  and  C_11 
REMARK    4  A    between atoms: C_14  and  S_6 
REMARK    5  A    between atoms: C_10  and  C_8 
REMARK    6  A    between atoms: C_11  and  C_10 
REMARK    7  A    between atoms: C_20  and  C_19 
REMARK    8  A    between atoms: C_23  and  C_20 
REMARK    9  A    between atoms: N_21  and  C_23 
ROOT
ATOM      1  N   UNL d   1      50.920  34.022  52.827  0.00  0.00    -0.253 N 
ATOM      2  C   UNL d   1      50.879  33.200  52.918  0.00  0.00     0.267 C 
ATOM      3  O   UNL d   1      50.159  32.815  52.891  0.00  0.00    -0.267 OA
ENDROOT
BRANCH   1   4
ATOM      4  C   UNL d   1      50.216  34.453  52.707  0.00  0.00     0.182 A 
ATOM      5  N   UNL d   1      49.806  34.868  53.287  0.00  0.00    -0.222 NA
ATOM      6  C   UNL d   1      49.138  35.217  52.936  0.00  0.00     0.089 A 
ATOM      7  C   UNL d   1      48.545  35.682  53.239  0.00  0.00     0.018 A 
ATOM      8  C   UNL d   1      49.144  35.012  52.138  0.00  0.00     0.050 A 
ATOM      9  C   UNL d   1      47.938  35.957  52.751  0.00  0.00     0.002 A 
ATOM     10  C   UNL d   1      48.540  35.887  54.041  0.00  0.00     0.002 C 
ATOM     11  C   UNL d   1      47.339  36.425  53.049  0.00  0.00     0.000 C 
ATOM     12  C   UNL d   1      47.946  35.752  51.957  0.00  0.00     0.001 A 
ATOM     13  C   UNL d   1      48.551  35.280  51.657  0.00  0.00     0.008 A 
ATOM     14  S   UNL d   1      49.808  34.540  51.990  0.00  0.00    -0.048 SA
ENDBRANCH   1   4
BRANCH   1  15
ATOM     15  C   UNL d   1      51.646  34.411  52.854  0.00  0.00     0.086 C 
BRANCH  15  16
ATOM     16  C   UNL d   1      51.950  34.668  53.583  0.00  0.00     0.038 C 
BRANCH  16  17
ATOM     17  C   UNL d   1      52.681  35.050  53.611  0.00  0.00     0.082 C 
BRANCH  17  18
ATOM     18  N   UNL d   1      53.021  35.238  54.338  0.00  0.00    -0.300 N 
ATOM     19  C   UNL d   1      52.904  35.984  54.669  0.00  0.00     0.100 C 
ATOM     20  C   UNL d   1      53.478  34.678  54.732  0.00  0.00     0.100 C 
ENDBRANCH  17  18
ENDBRANCH  16  17
ENDBRANCH  15  16
ENDBRANCH   1  15
BRANCH   2  21
ATOM     21  C   UNL d   1      51.580  32.775  53.037  0.00  0.00     0.073 C 
BRANCH  21  22
ATOM     22  C   UNL d   1      51.653  32.019  52.703  0.00  0.00     0.104 C 
BRANCH  22  23
ATOM     23  S   UNL d   1      52.238  31.496  52.970  0.00  0.00     0.211 S 
ATOM     24  O   UNL d   1      51.710  31.200  53.536  0.00  0.00    -0.217 OA
ATOM     25  O   UNL d   1      52.770  31.797  52.397  0.00  0.00    -0.217 OA
BRANCH  23  26
ATOM     26  C   UNL d   1      52.821  30.975  53.237  0.00  0.00     0.088 A 
ATOM     27  C   UNL d   1      52.655  30.174  53.289  0.00  0.00     0.011 A 
ATOM     28  C   UNL d   1      53.243  29.649  53.558  0.00  0.00     0.001 A 
ATOM     29  C   UNL d   1      53.980  29.940  53.766  0.00  0.00     0.000 A 
ATOM     30  C   UNL d   1      54.149  30.738  53.715  0.00  0.00     0.001 A 
ATOM     31  C   UNL d   1      53.566  31.258  53.449  0.00  0.00     0.011 A 
ENDBRANCH  23  26
ENDBRANCH  22  23
ENDBRANCH  21  22
ENDBRANCH   2  21
TORSDOF 9
ENDMDL
MODEL 2
REMARK VINA RESULT:      -5.2      0.975      5.283
REMARK  9 active torsions:
REMARK  status: ('A' for Active; 'I' for Inactive)
REMARK    1  A    between atoms: N_4  and  C_1 
REMARK       I    between atoms: C_8  and  N_4 
REMARK    2  A    between atoms: C_19  and  N_4 
REMARK    3  A    between atoms: S_6  and  C_11 
REMARK    4  A    between atoms: C_14  and  S_6 
REMARK    5  A    between atoms: C_10  and  C_8 
REMARK    6  A    between atoms: C_11  and  C_10 
REMARK    7  A    between atoms: C_20  and  C_19 
REMARK    8  A    between atoms: C_23  and  C_20 
REMARK    9  A    between atoms: N_21  and  C_23 
ROOT
ATOM      1  N   UNL d   1      51.686  33.516  53.038  0.00  0.00    -0.253 N 
ATOM      2  C   UNL d   1      50.859  33.509  53.010  0.00  0.00     0.267 C 
ATOM      3  O   UNL d   1      50.448  32.803  53.033  0.00  0.00    -0.267 OA
ENDROOT
BRANCH   1   4
ATOM      4  C   UNL d   1      52.097  32.792  53.089  0.00  0.00     0.182 A 
ATOM      5  N   UNL d   1      52.501  32.518  53.751  0.00  0.00    -0.222 NA
ATOM      6  C   UNL d   1      52.831  31.777  53.569  0.00  0.00     0.089 A 
ATOM      7  C   UNL d   1      53.279  31.259  54.006  0.00  0.00     0.018 A 
ATOM      8  C   UNL d   1      52.625  31.601  52.791  0.00  0.00     0.050 A 
ATOM      9  C   UNL d   1      53.536  30.547  53.676  0.00  0.00     0.002 A 
ATOM     10  C   UNL d   1      53.485  31.438  54.787  0.00  0.00     0.002 C 
ATOM     11  C   UNL d   1      53.987  30.022  54.109  0.00  0.00     0.000 C 
ATOM     12  C   UNL d   1      53.330  30.373  52.901  0.00  0.00     0.001 A 
ATOM     13  C   UNL d   1      52.874  30.904  52.464  0.00  0.00     0.008 A 
ATOM     14  S   UNL d   1      52.171  32.224  52.489  0.00  0.00    -0.048 SA
ENDBRANCH   1   4
BRANCH   1  15
ATOM     15  C   UNL d   1      52.100  34.228  53.015  0.00  0.00     0.086 C 
BRANCH  15  16
ATOM     16  C   UNL d   1      52.433  34.535  53.711  0.00  0.00     0.038 C 
BRANCH  16  17
ATOM     17  C   UNL d   1      52.881  35.227  53.681  0.00  0.00     0.082 C 
BRANCH  17  18
ATOM     18  N   UNL d   1      53.218  35.531  54.369  0.00  0.00    -0.300 N 
ATOM     19  C   UNL d   1      53.952  35.254  54.627  0.00  0.00     0.100 C 
ATOM     20  C   UNL d   1      52.822  36.110  54.798  0.00  0.00     0.100 C 
ENDBRANCH  17  18
ENDBRANCH  16  17
ENDBRANCH  15  16
ENDBRANCH   1  15
BRANCH   2  21
ATOM     21  C   UNL d   1      50.454  34.230  52.959  0.00  0.00     0.073 C 
BRANCH  21  22
ATOM     22  C   UNL d   1      49.744  34.263  52.529  0.00  0.00     0.104 C 
BRANCH  22  23
ATOM     23  S   UNL d   1      49.204  34.878  52.658  0.00  0.00     0.211 S 
ATOM     24  O   UNL d   1      49.362  34.842  53.471  0.00  0.00    -0.217 OA
ATOM     25  O   UNL d   1      49.046  34.912  51.835  0.00  0.00    -0.217 OA
BRANCH  23  26
ATOM     26  C   UNL d   1      48.665  35.491  52.786  0.00  0.00     0.088 A 
ATOM     27  C   UNL d   1      48.176  35.734  52.174  0.00  0.00     0.011 A 
ATOM     28  C   UNL d   1      47.633  36.352  52.304  0.00  0.00     0.001 A 
ATOM     29  C   UNL d   1      47.595  36.709  53.040  0.00  0.00     0.000 A 
ATOM     30  C   UNL d   1      48.081  36.469  53.651  0.00  0.00     0.001 A 
ATOM     31  C   UNL d   1      48.619  35.857  53.523  0.00  0.00     0.011 A 
ENDBRANCH  23  26
ENDBRANCH  22  23
ENDBRANCH  21  22
ENDBRANCH   2  21
TORSDOF 9
ENDMDL
MODEL 3
REMARK VINA RESULT:      -4.8      1.655      5.471
REMARK  9 active torsions:
REMARK  status: ('A' for Active; 'I' for Inactive)
REMARK    1  A    between atoms: N_4  and  C_1 
REMARK       I    between atoms: C_8  and  N_4 
REMARK    2  A    between atoms: C_19  and  N_4 
REMARK    3  A    between atoms: S_6  and  C_11 
REMARK    4  A    between atoms: C_14  and  S_6 
REMARK    5  A    between atoms: C_10  and  C_8 
REMARK    6  A    between atoms: C_11  and  C_10 
REMARK    7  A    between atoms: C_20  and  C_19 
REMARK    8  A    between atoms: C_23  and  C_20 
REMARK    9  A    between atoms: N_21  and  C_23 
ROOT
ATOM      1  N   UNL d   1      52.293  33.434  53.180  0.00  0.00    -0.253 N 
ATOM      2  C   UNL d   1      51.784  34.087  53.190  0.00  0.00     0.267 C 
ATOM      3  O   UNL d   1      52.005  34.782  53.558  0.00  0.00    -0.267 OA
ENDROOT
BRANCH   1   4
ATOM      4  C   UNL d   1      53.038  33.495  53.552  0.00  0.00     0.182 A 
ATOM      5  N   UNL d   1      53.165  33.520  54.364  0.00  0.00    -0.222 NA
ATOM      6  C   UNL d   1      53.983  33.581  54.499  0.00  0.00     0.089 A 
ATOM      7  C   UNL d   1      54.419  33.626  55.183  0.00  0.00     0.018 A 
ATOM      8  C   UNL d   1      54.353  33.594  53.763  0.00  0.00     0.050 A 
ATOM      9  C   UNL d   1      55.242  33.685  55.151  0.00  0.00     0.002 A 
ATOM     10  C   UNL d   1      54.045  33.613  55.921  0.00  0.00     0.002 C 
ATOM     11  C   UNL d   1      55.688  33.730  55.834  0.00  0.00     0.000 C 
ATOM     12  C   UNL d   1      55.610  33.697  54.418  0.00  0.00     0.001 A 
ATOM     13  C   UNL d   1      55.160  33.651  53.728  0.00  0.00     0.008 A 
ATOM     14  S   UNL d   1      53.775  33.541  53.173  0.00  0.00    -0.048 SA
ENDBRANCH   1   4
BRANCH   1  15
ATOM     15  C   UNL d   1      52.070  32.734  52.809  0.00  0.00     0.086 C 
BRANCH  15  16
ATOM     16  C   UNL d   1      52.244  32.004  53.164  0.00  0.00     0.038 C 
BRANCH  16  17
ATOM     17  C   UNL d   1      52.060  31.302  52.772  0.00  0.00     0.082 C 
BRANCH  17  18
ATOM     18  N   UNL d   1      52.238  30.576  53.119  0.00  0.00    -0.300 N 
ATOM     19  C   UNL d   1      52.932  30.179  52.913  0.00  0.00     0.100 C 
ATOM     20  C   UNL d   1      51.723  30.249  53.671  0.00  0.00     0.100 C 
ENDBRANCH  17  18
ENDBRANCH  16  17
ENDBRANCH  15  16
ENDBRANCH   1  15
BRANCH   2  21
ATOM     21  C   UNL d   1      51.046  34.023  52.820  0.00  0.00     0.073 C 
BRANCH  21  22
ATOM     22  C   UNL d   1      50.490  34.631  52.924  0.00  0.00     0.104 C 
BRANCH  22  23
ATOM     23  S   UNL d   1      49.831  34.689  52.423  0.00  0.00     0.211 S 
ATOM     24  O   UNL d   1      49.359  34.892  53.074  0.00  0.00    -0.217 OA
ATOM     25  O   UNL d   1      50.311  34.483  51.768  0.00  0.00    -0.217 OA
BRANCH  23  26
ATOM     26  C   UNL d   1      49.175  34.746  51.925  0.00  0.00     0.088 A 
ATOM     27  C   UNL d   1      48.501  35.132  52.186  0.00  0.00     0.011 A 
ATOM     28  C   UNL d   1      47.840  35.190  51.684  0.00  0.00     0.001 A 
ATOM     29  C   UNL d   1      47.871  34.859  50.935  0.00  0.00     0.000 A 
ATOM     30  C   UNL d   1      48.541  34.473  50.672  0.00  0.00     0.001 A 
ATOM     31  C   UNL d   1      49.196  34.416  51.169  0.00  0.00     0.011 A 
ENDBRANCH  23  26
ENDBRANCH  22  23
ENDBRANCH  21  22
ENDBRANCH   2  21
TORSDOF 9
ENDMDL
MODEL 4
REMARK VINA RESULT:      -4.6      1.617      2.925
REMARK  9 active torsions:
REMARK  status: ('A' for Active; 'I' for Inactive)
REMARK    1  A    between atoms: N_4  and  C_1 
REMARK       I    between atoms: C_8  and  N_4 
REMARK    2  A    between atoms: C_19  and  N_4 
REMARK    3  A    between atoms: S_6  and  C_11 
REMARK    4  A    between atoms: C_14  and  S_6 
REMARK    5  A    between atoms: C_10  and  C_8 
REMARK    6  A    between atoms: C_11  and  C_10 
REMARK    7  A    between atoms: C_20  and  C_19 
REMARK    8  A    between atoms: C_23  and  C_20 
REMARK    9  A    between atoms: N_21  and  C_23 
ROOT
ATOM      1  N   UNL d   1      51.008  33.911  53.092  0.00  0.00    -0.253 N 
ATOM      2  C   UNL d   1      51.632  34.427  53.264  0.00  0.00     0.267 C 
ATOM      3  O   UNL d   1      51.607  35.205  53.017  0.00  0.00    -0.267 OA
ENDROOT
BRANCH   1   4
ATOM      4  C   UNL d   1      50.352  34.195  52.663  0.00  0.00     0.182 A 
ATOM      5  N   UNL d   1      49.737  34.645  52.973  0.00  0.00    -0.222 NA
ATOM      6  C   UNL d   1      49.199  34.812  52.361  0.00  0.00     0.089 A 
ATOM      7  C   UNL d   1      48.502  35.228  52.348  0.00  0.00     0.018 A 
ATOM      8  C   UNL d   1      49.490  34.459  51.676  0.00  0.00     0.050 A 
ATOM      9  C   UNL d   1      48.074  35.305  51.647  0.00  0.00     0.002 A 
ATOM     10  C   UNL d   1      48.211  35.582  53.038  0.00  0.00     0.002 C 
ATOM     11  C   UNL d   1      47.372  35.723  51.626  0.00  0.00     0.000 C 
ATOM     12  C   UNL d   1      48.364  34.954  50.965  0.00  0.00     0.001 A 
ATOM     13  C   UNL d   1      49.073  34.532  50.986  0.00  0.00     0.008 A 
ATOM     14  S   UNL d   1      50.202  34.076  51.855  0.00  0.00    -0.048 SA
ENDBRANCH   1   4
BRANCH   1  15
ATOM     15  C   UNL d   1      51.033  33.126  53.341  0.00  0.00     0.086 C 
BRANCH  15  16
ATOM     16  C   UNL d   1      51.509  32.579  52.936  0.00  0.00     0.038 C 
BRANCH  16  17
ATOM     17  C   UNL d   1      51.425  31.772  53.087  0.00  0.00     0.082 C 
BRANCH  17  18
ATOM     18  N   UNL d   1      52.080  31.274  53.042  0.00  0.00    -0.300 N 
ATOM     19  C   UNL d   1      52.598  31.328  52.402  0.00  0.00     0.100 C 
ATOM     20  C   UNL d   1      52.216  30.722  53.637  0.00  0.00     0.100 C 
ENDBRANCH  17  18
ENDBRANCH  16  17
ENDBRANCH  15  16
ENDBRANCH   1  15
BRANCH   2  21
ATOM     21  C   UNL d   1      52.282  34.141  53.690  0.00  0.00     0.073 C 
BRANCH  21  22
ATOM     22  C   UNL d   1      52.840  34.682  53.982  0.00  0.00     0.104 C 
BRANCH  22  23
ATOM     23  S   UNL d   1      53.522  34.414  54.370  0.00  0.00     0.211 S 
ATOM     24  O   UNL d   1      53.860  34.225  53.637  0.00  0.00    -0.217 OA
ATOM     25  O   UNL d   1      53.177  34.605  55.109  0.00  0.00    -0.217 OA
BRANCH  23  26
ATOM     26  C   UNL d   1      54.201  34.146  54.756  0.00  0.00     0.088 A 
ATOM     27  C   UNL d   1      54.938  34.307  54.436  0.00  0.00     0.011 A 
ATOM     28  C   UNL d   1      55.623  34.037  54.826  0.00  0.00     0.001 A 
ATOM     29  C   UNL d   1      55.551  33.614  55.524  0.00  0.00     0.000 A 
ATOM     30  C   UNL d   1      54.818  33.452  55.845  0.00  0.00     0.001 A 
ATOM     31  C   UNL d   1      54.139  33.719  55.459  0.00  0.00     0.011 A 
ENDBRANCH  23  26
ENDBRANCH  22  23
ENDBRANCH  21  22
ENDBRANCH   2  21
TORSDOF 9
ENDMDL
