MODEL 1
REMARK VINA RESULT:       8.0      0.000      0.000
REMARK  6 active torsions:
REMARK  status: ('A' for Active; 'I' for Inactive)
REMARK    1  A    between atoms: C_9  and  C_2 
REMARK    2  A    between atoms: N_12  and  C_6 
REMARK    3  A    between atoms: N_11  and  C_20 
REMARK    4  A    between atoms: C_19  and  N_12 
REMARK    5  A    between atoms: O_21  and  C_16 
REMARK    6  A    between atoms: C_20  and  C_19 
ROOT
ATOM      1  C   UNL d   1     -41.641-122.283 -54.109  0.00  0.00     0.060 A 
ATOM      2  C   UNL d   1     -41.832-121.503 -54.007  0.00  0.00     0.011 A 
ATOM      3  C   UNL d   1     -42.044-121.181 -54.761  0.00  0.00     0.037 A 
ATOM      4  C   UNL d   1     -41.728-122.473 -54.930  0.00  0.00     0.116 A 
ATOM      5  S   UNL d   1     -41.979-121.781 -55.329  0.00  0.00    -0.067 SA
ATOM      6  C   UNL d   1     -41.398-122.867 -53.590  0.00  0.00     0.166 A 
ATOM      7  N   UNL d   1     -41.571-123.239 -55.211  0.00  0.00    -0.217 NA
ATOM      8  N   UNL d   1     -41.246-123.611 -53.867  0.00  0.00    -0.205 NA
ATOM      9  C   UNL d   1     -41.332-123.808 -54.695  0.00  0.00     0.201 A 
ENDROOT
BRANCH   6  10
ATOM     10  N   UNL d   1     -41.304-122.709 -52.781  0.00  0.00    -0.224 NA
BRANCH  10  11
ATOM     11  C   UNL d   1     -41.129-123.325 -52.263  0.00  0.00     0.120 C 
BRANCH  11  12
ATOM     12  C   UNL d   1     -41.744-123.745 -51.883  0.00  0.00     0.101 C 
BRANCH  12  13
ATOM     13  N   UNL d   1     -41.813-123.714 -51.053  0.00  0.00    -0.298 N 
ATOM     14  C   UNL d   1     -42.535-123.714 -50.725  0.00  0.00     0.107 A 
ATOM     15  C   UNL d   1     -42.590-123.683 -49.894  0.00  0.00     0.142 A 
ATOM     16  O   UNL d   1     -41.925-123.654 -49.451  0.00  0.00    -0.300 OA
ATOM     17  C   UNL d   1     -41.208-123.654 -49.780  0.00  0.00     0.142 A 
ATOM     18  C   UNL d   1     -41.125-123.684 -50.591  0.00  0.00     0.107 A 
ENDBRANCH  12  13
ENDBRANCH  11  12
ENDBRANCH  10  11
ENDBRANCH   6  10
BRANCH   2  19
ATOM     19  C   UNL d   1     -41.810-121.136 -53.294  0.00  0.00     0.001 A 
ATOM     20  C   UNL d   1     -41.242-120.568 -53.123  0.00  0.00     0.002 A 
ATOM     21  C   UNL d   1     -41.218-120.191 -52.394  0.00  0.00     0.024 A 
ATOM     22  C   UNL d   1     -41.768-120.374 -51.808  0.00  0.00     0.094 A 
ATOM     23  C   UNL d   1     -42.349-120.960 -51.994  0.00  0.00     0.024 A 
ATOM     24  C   UNL d   1     -42.371-121.334 -52.721  0.00  0.00     0.002 A 
BRANCH  22  25
ATOM     25  O   UNL d   1     -41.801-120.091 -51.173  0.00  0.00    -0.328 OA
ATOM     26  C   UNL d   1     -41.131-120.075 -50.658  0.00  0.00     0.181 C 
ENDBRANCH  22  25
ENDBRANCH   2  19
TORSDOF 6
ENDMDL
MODEL 2
REMARK VINA RESULT:       9.2      2.055      4.223
REMARK  6 active torsions:
REMARK  status: ('A' for Active; 'I' for Inactive)
REMARK    1  A    between atoms: C_9  and  C_2 
REMARK    2  A    between atoms: N_12  and  C_6 
REMARK    3  A    between atoms: N_11  and  C_20 
REMARK    4  A    between atoms: C_19  and  N_12 
REMARK    5  A    between atoms: O_21  and  C_16 
REMARK    6  A    between atoms: C_20  and  C_19 
ROOT
ATOM      1  C   UNL d   1     -41.727-122.559 -51.469  0.00  0.00     0.060 A 
ATOM      2  C   UNL d   1     -41.849-123.030 -52.117  0.00  0.00     0.011 A 
ATOM      3  C   UNL d   1     -42.013-123.816 -51.845  0.00  0.00     0.037 A 
ATOM      4  C   UNL d   1     -41.811-123.036 -50.773  0.00  0.00     0.116 A 
ATOM      5  S   UNL d   1     -41.989-123.817 -51.017  0.00  0.00    -0.067 SA
ATOM      6  C   UNL d   1     -41.551-121.765 -51.387  0.00  0.00     0.166 A 
ATOM      7  N   UNL d   1     -41.717-122.708 -50.017  0.00  0.00    -0.217 NA
ATOM      8  N   UNL d   1     -41.460-121.449 -50.649  0.00  0.00    -0.205 NA
ATOM      9  C   UNL d   1     -41.544-121.926 -49.943  0.00  0.00     0.201 A 
ENDROOT
BRANCH   6  10
ATOM     10  N   UNL d   1     -41.463-121.275 -52.051  0.00  0.00    -0.224 NA
BRANCH  10  11
ATOM     11  C   UNL d   1     -41.349-120.466 -51.948  0.00  0.00     0.120 C 
BRANCH  11  12
ATOM     12  C   UNL d   1     -41.123-119.985 -52.593  0.00  0.00     0.101 C 
BRANCH  12  13
ATOM     13  N   UNL d   1     -41.171-119.156 -52.527  0.00  0.00    -0.298 N 
ATOM     14  C   UNL d   1     -41.260-118.720 -53.183  0.00  0.00     0.107 A 
ATOM     15  C   UNL d   1     -41.307-117.892 -53.103  0.00  0.00     0.142 A 
ATOM     16  O   UNL d   1     -41.261-117.558 -52.378  0.00  0.00    -0.300 OA
ATOM     17  C   UNL d   1     -41.172-117.994 -51.726  0.00  0.00     0.142 A 
ATOM     18  C   UNL d   1     -41.123-118.807 -51.776  0.00  0.00     0.107 A 
ENDBRANCH  12  13
ENDBRANCH  11  12
ENDBRANCH  10  11
ENDBRANCH   6  10
BRANCH   2  19
ATOM     19  C   UNL d   1     -41.812-122.759 -52.870  0.00  0.00     0.001 A 
ATOM     20  C   UNL d   1     -42.406-122.286 -53.183  0.00  0.00     0.002 A 
ATOM     21  C   UNL d   1     -42.369-122.006 -53.954  0.00  0.00     0.024 A 
ATOM     22  C   UNL d   1     -41.730-122.194 -54.440  0.00  0.00     0.094 A 
ATOM     23  C   UNL d   1     -41.124-122.681 -54.107  0.00  0.00     0.024 A 
ATOM     24  C   UNL d   1     -41.162-122.958 -53.339  0.00  0.00     0.002 A 
BRANCH  22  25
ATOM     25  O   UNL d   1     -41.641-121.989 -55.099  0.00  0.00    -0.328 OA
ATOM     26  C   UNL d   1     -42.295-121.801 -55.599  0.00  0.00     0.181 C 
ENDBRANCH  22  25
ENDBRANCH   2  19
TORSDOF 6
ENDMDL
