MODEL 1
REMARK VINA RESULT:      69.9      0.000      0.000
REMARK  5 active torsions:
REMARK  status: ('A' for Active; 'I' for Inactive)
REMARK    1  A    between atoms: N_2  and  S_1 
REMARK    2  A    between atoms: C_6  and  S_1 
REMARK    3  A    between atoms: C_3  and  N_2 
REMARK    4  A    between atoms: N_4  and  C_5 
REMARK    5  A    between atoms: C_9  and  N_4 
ROOT
ATOM      1  C   UNL d   1      60.824  48.762  50.735  0.00  0.00     0.110 A 
ATOM      2  C   UNL d   1      60.242  49.336  50.843  0.00  0.00     0.083 A 
ATOM      3  C   UNL d   1      61.309  48.566  51.375  0.00  0.00     0.021 A 
ATOM      4  C   UNL d   1      60.147  49.706  51.569  0.00  0.00     0.019 A 
ATOM      5  C   UNL d   1      61.214  48.936  52.101  0.00  0.00     0.002 A 
ATOM      6  C   UNL d   1      60.631  49.510  52.205  0.00  0.00     0.002 A 
ENDROOT
BRANCH   1   7
ATOM      7  N   UNL d   1      60.919  48.391  50.007  0.00  0.00    -0.157 NA
BRANCH   7   8
ATOM      8  S   UNL d   1      61.138  47.599  49.971  0.00  0.00     0.285 S 
ATOM      9  O   UNL d   1      60.333  47.374  50.076  0.00  0.00    -0.198 OA
ATOM     10  O   UNL d   1      61.928  47.821  49.869  0.00  0.00    -0.198 OA
BRANCH   8  11
ATOM     11  C   UNL d   1      61.361  46.786  49.935  0.00  0.00     0.105 A 
ATOM     12  C   UNL d   1      61.763  46.490  49.259  0.00  0.00     0.014 A 
ATOM     13  C   UNL d   1      61.975  45.698  49.232  0.00  0.00     0.012 A 
ATOM     14  C   UNL d   1      61.803  45.193  49.851  0.00  0.00     0.058 A 
ATOM     15  C   UNL d   1      61.401  45.490  50.528  0.00  0.00     0.012 A 
ATOM     16 CL   UNL d   1      62.018  44.409  49.813  0.00  0.00    -0.082 Cl
ATOM     17  C   UNL d   1      61.179  46.285  50.572  0.00  0.00     0.014 A 
ENDBRANCH   8  11
ENDBRANCH   7   8
ENDBRANCH   1   7
BRANCH   2  18
ATOM     18  N   UNL d   1      59.745  49.535  50.181  0.00  0.00    -0.303 N 
ATOM     19  C   UNL d   1      60.111  49.708  49.488  0.00  0.00     0.100 C 
BRANCH  18  20
ATOM     20  C   UNL d   1      58.927  49.547  50.256  0.00  0.00     0.064 A 
ATOM     21  C   UNL d   1      58.595  49.407  50.982  0.00  0.00     0.018 A 
ATOM     22  C   UNL d   1      57.775  49.414  51.080  0.00  0.00     0.002 A 
ATOM     23  C   UNL d   1      57.282  49.566  50.430  0.00  0.00     0.000 A 
ATOM     24  C   UNL d   1      57.621  49.708  49.693  0.00  0.00     0.002 A 
ATOM     25  C   UNL d   1      58.445  49.700  49.598  0.00  0.00     0.018 A 
ENDBRANCH  18  20
ENDBRANCH   2  18
TORSDOF 5
ENDMDL
