MODEL 1
REMARK VINA RESULT:      -5.8      0.000      0.000
REMARK  3 active torsions:
REMARK  status: ('A' for Active; 'I' for Inactive)
REMARK    1  A    between atoms: C_9  and  C_4 
REMARK    2  A    between atoms: C_10  and  C_7 
REMARK    3  A    between atoms: C_17  and  C_10 
ROOT
ATOM      1  C   UNL d   1      57.646   0.380  30.784  0.00  0.00     0.179 A 
ATOM      2  N   UNL d   1      57.635  -0.451  30.771  0.00  0.00    -0.282 N 
ATOM      3  N   UNL d   1      57.155   0.634  31.398  0.00  0.00    -0.221 NA
ATOM      4  C   UNL d   1      56.838  -0.040  31.767  0.00  0.00     0.101 A 
ATOM      5  S   UNL d   1      58.143   0.639  30.179  0.00  0.00    -0.048 SA
ATOM      6  C   UNL d   1      57.136  -0.700  31.379  0.00  0.00     0.101 A 
ATOM      7  C   UNL d   1      58.437  -0.033  29.795  0.00  0.00     0.050 A 
ATOM      8  C   UNL d   1      58.126  -0.691  30.158  0.00  0.00     0.089 A 
ENDROOT
BRANCH   4   9
ATOM      9  C   UNL d   1      56.324  -0.035  32.401  0.00  0.00     0.019 A 
ATOM     10  C   UNL d   1      55.977  -0.741  32.649  0.00  0.00     0.004 A 
ATOM     11  C   UNL d   1      55.455  -0.750  33.290  0.00  0.00     0.030 A 
ATOM     12  C   UNL d   1      55.284  -0.041  33.680  0.00  0.00     0.140 A 
ATOM     13  C   UNL d   1      55.627   0.663  33.437  0.00  0.00     0.030 A 
ATOM     14  F   UNL d   1      54.793   0.127  34.328  0.00  0.00    -0.204 F 
ATOM     15  C   UNL d   1      56.147   0.671  32.799  0.00  0.00     0.004 A 
ENDBRANCH   4   9
BRANCH   7  16
ATOM     16  C   UNL d   1      58.957  -0.022  29.155  0.00  0.00     0.008 C 
BRANCH  16  17
ATOM     17  C   UNL d   1      59.681  -0.411  29.192  0.00  0.00     0.001 A 
ATOM     18  C   UNL d   1      60.333  -0.053  29.540  0.00  0.00     0.000 A 
ATOM     19  C   UNL d   1      61.063  -0.447  29.576  0.00  0.00     0.000 A 
ATOM     20  C   UNL d   1      61.133  -1.206  29.258  0.00  0.00     0.000 A 
ATOM     21  C   UNL d   1      60.482  -1.570  28.908  0.00  0.00     0.000 A 
ATOM     22  C   UNL d   1      59.753  -1.176  28.872  0.00  0.00     0.000 A 
ENDBRANCH  16  17
ENDBRANCH   7  16
TORSDOF 3
ENDMDL
MODEL 2
REMARK VINA RESULT:      -4.0      2.049      5.213
REMARK  3 active torsions:
REMARK  status: ('A' for Active; 'I' for Inactive)
REMARK    1  A    between atoms: C_9  and  C_4 
REMARK    2  A    between atoms: C_10  and  C_7 
REMARK    3  A    between atoms: C_17  and  C_10 
ROOT
ATOM      1  C   UNL d   1      57.042  -0.693  31.359  0.00  0.00     0.179 A 
ATOM      2  N   UNL d   1      57.132   0.074  31.666  0.00  0.00    -0.282 N 
ATOM      3  N   UNL d   1      57.573  -0.783  30.732  0.00  0.00    -0.221 NA
ATOM      4  C   UNL d   1      57.995  -0.070  30.650  0.00  0.00     0.101 A 
ATOM      5  S   UNL d   1      56.456  -1.076  31.794  0.00  0.00    -0.048 SA
ATOM      6  C   UNL d   1      57.720   0.448  31.225  0.00  0.00     0.101 A 
ATOM      7  C   UNL d   1      56.187  -0.544  32.369  0.00  0.00     0.050 A 
ATOM      8  C   UNL d   1      56.600   0.151  32.287  0.00  0.00     0.089 A 
ENDROOT
BRANCH   4   9
ATOM      9  C   UNL d   1      58.575   0.075  30.095  0.00  0.00     0.019 A 
ATOM     10  C   UNL d   1      58.504  -0.248  29.339  0.00  0.00     0.004 A 
ATOM     11  C   UNL d   1      59.085  -0.108  28.768  0.00  0.00     0.030 A 
ATOM     12  C   UNL d   1      59.739   0.359  28.963  0.00  0.00     0.140 A 
ATOM     13  C   UNL d   1      59.813   0.682  29.713  0.00  0.00     0.030 A 
ATOM     14  F   UNL d   1      60.400   0.595  28.520  0.00  0.00    -0.204 F 
ATOM     15  C   UNL d   1      59.234   0.543  30.282  0.00  0.00     0.004 A 
ENDBRANCH   4   9
BRANCH   7  16
ATOM     16  C   UNL d   1      55.598  -0.706  32.924  0.00  0.00     0.008 C 
BRANCH  16  17
ATOM     17  C   UNL d   1      55.520  -0.247  33.602  0.00  0.00     0.001 A 
ATOM     18  C   UNL d   1      56.111  -0.234  34.172  0.00  0.00     0.000 A 
ATOM     19  C   UNL d   1      56.030   0.230  34.856  0.00  0.00     0.000 A 
ATOM     20  C   UNL d   1      55.347   0.682  34.963  0.00  0.00     0.000 A 
ATOM     21  C   UNL d   1      54.750   0.672  34.395  0.00  0.00     0.000 A 
ATOM     22  C   UNL d   1      54.832   0.209  33.712  0.00  0.00     0.000 A 
ENDBRANCH  16  17
ENDBRANCH   7  16
TORSDOF 3
ENDMDL
MODEL 3
REMARK VINA RESULT:      -3.8      1.468      2.054
REMARK  3 active torsions:
REMARK  status: ('A' for Active; 'I' for Inactive)
REMARK    1  A    between atoms: C_9  and  C_4 
REMARK    2  A    between atoms: C_10  and  C_7 
REMARK    3  A    between atoms: C_17  and  C_10 
ROOT
ATOM      1  C   UNL d   1      57.964  -1.722  30.012  0.00  0.00     0.179 A 
ATOM      2  N   UNL d   1      58.407  -1.023  29.938  0.00  0.00    -0.282 N 
ATOM      3  N   UNL d   1      57.402  -1.608  30.607  0.00  0.00    -0.221 NA
ATOM      4  C   UNL d   1      57.496  -0.836  30.903  0.00  0.00     0.101 A 
ATOM      5  S   UNL d   1      58.253  -2.267  29.465  0.00  0.00    -0.048 SA
ATOM      6  C   UNL d   1      58.112  -0.485  30.489  0.00  0.00     0.101 A 
ATOM      7  C   UNL d   1      58.872  -1.902  29.055  0.00  0.00     0.050 A 
ATOM      8  C   UNL d   1      58.962  -1.148  29.346  0.00  0.00     0.089 A 
ENDROOT
BRANCH   4   9
ATOM      9  C   UNL d   1      57.049  -0.500  31.497  0.00  0.00     0.019 A 
ATOM     10  C   UNL d   1      56.638  -0.987  32.022  0.00  0.00     0.004 A 
ATOM     11  C   UNL d   1      56.182  -0.659  32.628  0.00  0.00     0.030 A 
ATOM     12  C   UNL d   1      56.143   0.164  32.704  0.00  0.00     0.140 A 
ATOM     13  C   UNL d   1      56.550   0.651  32.185  0.00  0.00     0.030 A 
ATOM     14  F   UNL d   1      55.741   0.649  33.244  0.00  0.00    -0.204 F 
ATOM     15  C   UNL d   1      57.004   0.324  31.581  0.00  0.00     0.004 A 
ENDBRANCH   4   9
BRANCH   7  16
ATOM     16  C   UNL d   1      59.315  -2.256  28.455  0.00  0.00     0.008 C 
BRANCH  16  17
ATOM     17  C   UNL d   1      59.850  -2.858  28.624  0.00  0.00     0.001 A 
ATOM     18  C   UNL d   1      60.594  -2.686  28.927  0.00  0.00     0.000 A 
ATOM     19  C   UNL d   1      61.132  -3.295  29.097  0.00  0.00     0.000 A 
ATOM     20  C   UNL d   1      60.916  -4.080  28.960  0.00  0.00     0.000 A 
ATOM     21  C   UNL d   1      60.171  -4.258  28.657  0.00  0.00     0.000 A 
ATOM     22  C   UNL d   1      59.633  -3.650  28.487  0.00  0.00     0.000 A 
ENDBRANCH  16  17
ENDBRANCH   7  16
TORSDOF 3
ENDMDL
