MODEL 1
REMARK VINA RESULT:      -6.6      0.000      0.000
REMARK  1 active torsions:
REMARK  status: ('A' for Active; 'I' for Inactive)
REMARK    1  A    between atoms: C_12  and  C_8 
ROOT
ATOM      1  N   UNL d   1     -41.546-123.005 -52.185  0.00  0.00    -0.123 N 
ATOM      2  N   UNL d   1     -41.187-121.981 -53.104  0.00  0.00    -0.180 NA
ATOM      3  C   UNL d   1     -41.325-122.225 -52.341  0.00  0.00     0.217 A 
ATOM      4  N   UNL d   1     -41.629-123.543 -52.808  0.00  0.00    -0.141 NA
ATOM      5  N   UNL d   1     -41.689-123.263 -51.420  0.00  0.00    -0.146 NA
ATOM      6  C   UNL d   1     -41.265-122.505 -53.725  0.00  0.00     0.300 A 
ATOM      7  C   UNL d   1     -41.486-123.286 -53.577  0.00  0.00     0.161 A 
ATOM      8  C   UNL d   1     -41.607-122.723 -50.790  0.00  0.00     0.110 A 
ATOM      9  S   UNL d   1     -41.247-121.701 -51.717  0.00  0.00    -0.045 SA
ATOM     10  C   UNL d   1     -41.386-121.942 -50.938  0.00  0.00     0.059 A 
ATOM     11  O   UNL d   1     -41.125-122.256 -54.500  0.00  0.00    -0.263 OA
ATOM     12  C   UNL d   1     -41.566-123.817 -54.204  0.00  0.00     0.028 C 
ENDROOT
BRANCH   8  13
ATOM     13  C   UNL d   1     -41.747-122.972 -50.018  0.00  0.00     0.020 A 
ATOM     14  C   UNL d   1     -41.153-123.368 -49.603  0.00  0.00     0.002 A 
ATOM     15  C   UNL d   1     -41.293-123.619 -48.827  0.00  0.00     0.000 A 
ATOM     16  C   UNL d   1     -42.023-123.474 -48.472  0.00  0.00     0.000 A 
ATOM     17  C   UNL d   1     -42.614-123.077 -48.893  0.00  0.00     0.000 A 
ATOM     18  C   UNL d   1     -42.474-122.827 -49.665  0.00  0.00     0.002 A 
ENDBRANCH   8  13
TORSDOF 1
ENDMDL
MODEL 2
REMARK VINA RESULT:      -5.5      1.051      1.525
REMARK  1 active torsions:
REMARK  status: ('A' for Active; 'I' for Inactive)
REMARK    1  A    between atoms: C_12  and  C_8 
ROOT
ATOM      1  N   UNL d   1     -41.769-122.577 -52.914  0.00  0.00    -0.123 N 
ATOM      2  N   UNL d   1     -41.266-123.328 -54.011  0.00  0.00    -0.180 NA
ATOM      3  C   UNL d   1     -41.384-123.243 -53.211  0.00  0.00     0.217 A 
ATOM      4  N   UNL d   1     -42.038-121.990 -53.432  0.00  0.00    -0.141 NA
ATOM      5  N   UNL d   1     -41.895-122.479 -52.110  0.00  0.00    -0.146 NA
ATOM      6  C   UNL d   1     -41.527-122.755 -54.530  0.00  0.00     0.300 A 
ATOM      7  C   UNL d   1     -41.913-122.086 -54.240  0.00  0.00     0.161 A 
ATOM      8  C   UNL d   1     -41.626-123.069 -51.585  0.00  0.00     0.110 A 
ATOM      9  S   UNL d   1     -41.123-123.817 -52.689  0.00  0.00    -0.045 SA
ATOM     10  C   UNL d   1     -41.239-123.738 -51.874  0.00  0.00     0.059 A 
ATOM     11  O   UNL d   1     -41.406-122.842 -55.343  0.00  0.00    -0.263 OA
ATOM     12  C   UNL d   1     -42.178-121.504 -54.764  0.00  0.00     0.028 C 
ENDROOT
BRANCH   8  13
ATOM     13  C   UNL d   1     -41.746-122.981 -50.776  0.00  0.00     0.020 A 
ATOM     14  C   UNL d   1     -42.498-122.785 -50.495  0.00  0.00     0.002 A 
ATOM     15  C   UNL d   1     -42.621-122.696 -49.681  0.00  0.00     0.000 A 
ATOM     16  C   UNL d   1     -41.994-122.803 -49.156  0.00  0.00     0.000 A 
ATOM     17  C   UNL d   1     -41.244-122.999 -49.443  0.00  0.00     0.000 A 
ATOM     18  C   UNL d   1     -41.123-123.087 -50.253  0.00  0.00     0.002 A 
ENDBRANCH   8  13
TORSDOF 1
ENDMDL
