MODEL 1
REMARK VINA RESULT:      -6.5      0.000      0.000
REMARK  9 active torsions:
REMARK  status: ('A' for Active; 'I' for Inactive)
REMARK    1  A    between atoms: N_4  and  C_1 
REMARK    2  A    between atoms: C_12  and  C_3 
REMARK       I    between atoms: C_11  and  N_4 
REMARK       I    between atoms: C_6  and  N_5 
REMARK    3  A    between atoms: O_27  and  C_6 
REMARK       I    between atoms: N_7  and  C_10 
REMARK    4  A    between atoms: C_10  and  C_28 
REMARK    5  A    between atoms: C_29  and  C_11 
REMARK    6  A    between atoms: C_25  and  C_18 
REMARK    7  A    between atoms: S_26  and  C_29 
REMARK    8  A    between atoms: C_28  and  S_26 
REMARK    9  A    between atoms: C_32  and  O_27 
ROOT
ATOM      1  N   UNL d   1     -43.914  12.547  21.406  0.00  0.00    -0.182 NA
ATOM      2  C   UNL d   1     -43.339  13.116  21.451  0.00  0.00     0.288 C 
ATOM      3  O   UNL d   1     -43.412  13.733  21.974  0.00  0.00    -0.265 OA
ENDROOT
BRANCH   1   4
ATOM      4  C   UNL d   1     -44.569  12.597  21.891  0.00  0.00     0.197 A 
ATOM      5  N   UNL d   1     -45.219  13.079  21.773  0.00  0.00    -0.221 NA
ATOM      6  C   UNL d   1     -45.739  12.955  22.383  0.00  0.00     0.090 A 
ATOM      7  C   UNL d   1     -45.408  12.397  22.874  0.00  0.00     0.058 A 
ATOM      8  S   UNL d   1     -44.691  12.177  22.574  0.00  0.00    -0.046 SA
BRANCH   6   9
ATOM      9  C   UNL d   1     -46.453  13.320  22.482  0.00  0.00     0.018 A 
ATOM     10  C   UNL d   1     -46.490  14.037  22.850  0.00  0.00     0.002 A 
ATOM     11  C   UNL d   1     -47.204  14.406  22.951  0.00  0.00     0.000 A 
ATOM     12  C   UNL d   1     -47.880  14.050  22.680  0.00  0.00     0.000 A 
ATOM     13  C   UNL d   1     -47.841  13.325  22.308  0.00  0.00     0.000 A 
ATOM     14  C   UNL d   1     -47.124  12.968  22.214  0.00  0.00     0.002 A 
BRANCH  12  15
ATOM     15  C   UNL d   1     -48.616  14.424  22.781  0.00  0.00     0.000 A 
ATOM     16  C   UNL d   1     -49.222  14.029  23.193  0.00  0.00     0.000 A 
ATOM     17  C   UNL d   1     -49.953  14.396  23.295  0.00  0.00     0.000 A 
ATOM     18  C   UNL d   1     -50.079  15.159  22.986  0.00  0.00     0.000 A 
ATOM     19  C   UNL d   1     -49.467  15.547  22.576  0.00  0.00     0.000 A 
ATOM     20  C   UNL d   1     -48.735  15.172  22.477  0.00  0.00     0.000 A 
ENDBRANCH  12  15
ENDBRANCH   6   9
ENDBRANCH   1   4
BRANCH   2  21
ATOM     21  C   UNL d   1     -42.690  13.065  20.970  0.00  0.00     0.098 C 
BRANCH  21  22
ATOM     22  S   UNL d   1     -42.173  13.753  21.005  0.00  0.00    -0.076 SA
BRANCH  22  23
ATOM     23  C   UNL d   1     -41.531  13.840  20.442  0.00  0.00     0.097 C 
BRANCH  23  24
ATOM     24  C   UNL d   1     -41.067  14.554  20.425  0.00  0.00     0.271 C 
ATOM     25  N   UNL d   1     -40.570  14.725  19.748  0.00  0.00    -0.269 N 
ATOM     26  C   UNL d   1     -40.101  15.440  19.723  0.00  0.00     0.102 A 
ATOM     27  C   UNL d   1     -40.543  14.167  19.086  0.00  0.00     0.102 A 
ATOM     28  C   UNL d   1     -39.605  15.607  19.044  0.00  0.00     0.104 A 
ATOM     29  N   UNL d   1     -39.578  15.049  18.382  0.00  0.00    -0.249 N 
ATOM     30  C   UNL d   1     -40.046  14.337  18.409  0.00  0.00     0.104 A 
ATOM     31  C   UNL d   1     -39.099  15.213  17.729  0.00  0.00     0.378 C 
ATOM     32  O   UNL d   1     -38.646  15.905  17.706  0.00  0.00    -0.237 OA
ATOM     33  O   UNL d   1     -41.095  15.100  21.076  0.00  0.00    -0.266 OA
BRANCH  31  34
ATOM     34  O   UNL d   1     -39.074  14.679  17.096  0.00  0.00    -0.257 OA
BRANCH  34  35
ATOM     35  C   UNL d   1     -38.622  14.848  16.427  0.00  0.00     0.128 C 
ATOM     36  C   UNL d   1     -38.442  14.252  15.876  0.00  0.00     0.029 C 
ENDBRANCH  34  35
ENDBRANCH  31  34
ENDBRANCH  23  24
ENDBRANCH  22  23
ENDBRANCH  21  22
ENDBRANCH   2  21
TORSDOF 9
ENDMDL
MODEL 2
REMARK VINA RESULT:      -5.6      1.599      8.634
REMARK  9 active torsions:
REMARK  status: ('A' for Active; 'I' for Inactive)
REMARK    1  A    between atoms: N_4  and  C_1 
REMARK    2  A    between atoms: C_12  and  C_3 
REMARK       I    between atoms: C_11  and  N_4 
REMARK       I    between atoms: C_6  and  N_5 
REMARK    3  A    between atoms: O_27  and  C_6 
REMARK       I    between atoms: N_7  and  C_10 
REMARK    4  A    between atoms: C_10  and  C_28 
REMARK    5  A    between atoms: C_29  and  C_11 
REMARK    6  A    between atoms: C_25  and  C_18 
REMARK    7  A    between atoms: S_26  and  C_29 
REMARK    8  A    between atoms: C_28  and  S_26 
REMARK    9  A    between atoms: C_32  and  O_27 
ROOT
ATOM      1  N   UNL d   1     -41.707  13.917  21.271  0.00  0.00    -0.182 NA
ATOM      2  C   UNL d   1     -42.317  13.419  21.077  0.00  0.00     0.288 C 
ATOM      3  O   UNL d   1     -42.522  13.307  20.299  0.00  0.00    -0.265 OA
ENDROOT
BRANCH   1   4
ATOM      4  C   UNL d   1     -41.299  14.305  20.680  0.00  0.00     0.197 A 
ATOM      5  N   UNL d   1     -40.909  13.953  20.053  0.00  0.00    -0.221 NA
ATOM      6  C   UNL d   1     -40.580  14.539  19.600  0.00  0.00     0.090 A 
ATOM      7  C   UNL d   1     -40.767  15.250  19.949  0.00  0.00     0.058 A 
ATOM      8  S   UNL d   1     -41.208  15.108  20.611  0.00  0.00    -0.046 SA
BRANCH   6   9
ATOM      9  C   UNL d   1     -40.146  14.434  18.927  0.00  0.00     0.018 A 
ATOM     10  C   UNL d   1     -40.509  14.460  18.207  0.00  0.00     0.002 A 
ATOM     11  C   UNL d   1     -40.077  14.354  17.529  0.00  0.00     0.000 A 
ATOM     12  C   UNL d   1     -39.279  14.222  17.581  0.00  0.00     0.000 A 
ATOM     13  C   UNL d   1     -38.913  14.196  18.309  0.00  0.00     0.000 A 
ATOM     14  C   UNL d   1     -39.354  14.303  18.976  0.00  0.00     0.002 A 
BRANCH  12  15
ATOM     15  C   UNL d   1     -38.831  14.113  16.888  0.00  0.00     0.000 A 
ATOM     16  C   UNL d   1     -38.457  13.382  16.755  0.00  0.00     0.000 A 
ATOM     17  C   UNL d   1     -38.011  13.268  16.071  0.00  0.00     0.000 A 
ATOM     18  C   UNL d   1     -37.940  13.887  15.518  0.00  0.00     0.000 A 
ATOM     19  C   UNL d   1     -38.318  14.616  15.659  0.00  0.00     0.000 A 
ATOM     20  C   UNL d   1     -38.764  14.722  16.349  0.00  0.00     0.000 A 
ENDBRANCH  12  15
ENDBRANCH   6   9
ENDBRANCH   1   4
BRANCH   2  21
ATOM     21  C   UNL d   1     -42.720  13.036  21.663  0.00  0.00     0.098 C 
BRANCH  21  22
ATOM     22  S   UNL d   1     -43.519  12.800  21.444  0.00  0.00    -0.076 SA
BRANCH  22  23
ATOM     23  C   UNL d   1     -44.194  13.106  21.877  0.00  0.00     0.097 C 
BRANCH  23  24
ATOM     24  C   UNL d   1     -44.714  12.576  22.294  0.00  0.00     0.271 C 
ATOM     25  N   UNL d   1     -45.512  12.823  22.488  0.00  0.00    -0.269 N 
ATOM     26  C   UNL d   1     -46.040  12.296  22.906  0.00  0.00     0.102 A 
ATOM     27  C   UNL d   1     -45.782  13.612  22.257  0.00  0.00     0.102 A 
ATOM     28  C   UNL d   1     -46.837  12.547  23.098  0.00  0.00     0.104 A 
ATOM     29  N   UNL d   1     -47.107  13.337  22.867  0.00  0.00    -0.249 N 
ATOM     30  C   UNL d   1     -46.579  13.861  22.450  0.00  0.00     0.104 A 
ATOM     31  C   UNL d   1     -47.875  13.576  23.054  0.00  0.00     0.378 C 
ATOM     32  O   UNL d   1     -48.386  13.066  23.459  0.00  0.00    -0.237 OA
ATOM     33  O   UNL d   1     -44.446  11.801  22.519  0.00  0.00    -0.266 OA
BRANCH  31  34
ATOM     34  O   UNL d   1     -48.133  14.332  22.833  0.00  0.00    -0.257 OA
BRANCH  34  35
ATOM     35  C   UNL d   1     -48.921  14.553  22.945  0.00  0.00     0.128 C 
ATOM     36  C   UNL d   1     -49.182  15.312  22.731  0.00  0.00     0.029 C 
ENDBRANCH  34  35
ENDBRANCH  31  34
ENDBRANCH  23  24
ENDBRANCH  22  23
ENDBRANCH  21  22
ENDBRANCH   2  21
TORSDOF 9
ENDMDL
