MODEL 1
REMARK VINA RESULT:      19.9      0.000      0.000
REMARK  3 active torsions:
REMARK  status: ('A' for Active; 'I' for Inactive)
REMARK    1  A    between atoms: C_10  and  N_2 
REMARK    2  A    between atoms: C_15  and  C_3 
REMARK    3  A    between atoms: C_6  and  C_4 
ROOT
ATOM      1  N   UNL d   1      46.565 -16.178  43.630  0.00  0.00    -0.165 NA
ATOM      2  N   UNL d   1      46.035 -17.471  43.913  0.00  0.00    -0.228 N 
ATOM      3  C   UNL d   1      45.418 -16.313  44.467  0.00  0.00     0.081 A 
ATOM      4  C   UNL d   1      45.976 -15.835  44.095  0.00  0.00     0.106 A 
ATOM      5  C   UNL d   1      45.446 -17.128  44.378  0.00  0.00     0.105 A 
ENDROOT
BRANCH   4   6
ATOM      6  C   UNL d   1      45.951 -15.013  44.183  0.00  0.00     0.022 A 
ATOM      7  C   UNL d   1      45.600 -14.550  43.600  0.00  0.00     0.028 A 
ATOM      8  C   UNL d   1      45.574 -13.728  43.687  0.00  0.00     0.123 A 
ATOM      9  O   UNL d   1      45.222 -13.264  43.102  0.00  0.00    -0.301 OA
ATOM     10  C   UNL d   1      45.906 -13.374  44.370  0.00  0.00     0.123 A 
ATOM     11  C   UNL d   1      45.199 -12.431  43.196  0.00  0.00     0.149 A 
ATOM     12  C   UNL d   1      45.528 -12.080  43.872  0.00  0.00     0.149 A 
ATOM     13  O   UNL d   1      45.880 -12.554  44.455  0.00  0.00    -0.301 OA
ATOM     14  C   UNL d   1      46.254 -13.848  44.944  0.00  0.00     0.027 A 
ATOM     15  C   UNL d   1      46.279 -14.663  44.858  0.00  0.00     0.004 A 
ENDBRANCH   4   6
BRANCH   3  16
ATOM     16  C   UNL d   1      44.803 -15.955  44.953  0.00  0.00     0.237 C 
ATOM     17  O   UNL d   1      43.999 -16.223  44.874  0.00  0.00    -0.283 OA
ENDBRANCH   3  16
BRANCH   2  18
ATOM     18  C   UNL d   1      46.239 -18.240  43.697  0.00  0.00     0.083 A 
ATOM     19  C   UNL d   1      46.388 -18.810  44.274  0.00  0.00     0.019 A 
ATOM     20  C   UNL d   1      46.591 -19.578  44.048  0.00  0.00     0.002 A 
ATOM     21  C   UNL d   1      46.646 -19.773  43.250  0.00  0.00     0.000 A 
ATOM     22  C   UNL d   1      46.497 -19.200  42.671  0.00  0.00     0.002 A 
ATOM     23  C   UNL d   1      46.294 -18.435  42.899  0.00  0.00     0.019 A 
ENDBRANCH   2  18
TORSDOF 3
ENDMDL
MODEL 2
REMARK VINA RESULT:      22.3      1.426      4.793
REMARK  3 active torsions:
REMARK  status: ('A' for Active; 'I' for Inactive)
REMARK    1  A    between atoms: C_10  and  N_2 
REMARK    2  A    between atoms: C_15  and  C_3 
REMARK    3  A    between atoms: C_6  and  C_4 
ROOT
ATOM      1  N   UNL d   1      46.568 -15.842  43.925  0.00  0.00    -0.165 NA
ATOM      2  N   UNL d   1      45.733 -14.777  44.376  0.00  0.00    -0.228 N 
ATOM      3  C   UNL d   1      45.308 -16.128  44.531  0.00  0.00     0.081 A 
ATOM      4  C   UNL d   1      46.005 -16.390  44.179  0.00  0.00     0.106 A 
ATOM      5  C   UNL d   1      45.171 -15.325  44.630  0.00  0.00     0.105 A 
ENDROOT
BRANCH   4   6
ATOM      6  C   UNL d   1      46.147 -17.198  44.077  0.00  0.00     0.022 A 
ATOM      7  C   UNL d   1      46.149 -17.521  43.320  0.00  0.00     0.028 A 
ATOM      8  C   UNL d   1      46.290 -18.329  43.217  0.00  0.00     0.123 A 
ATOM      9  O   UNL d   1      46.292 -18.653  42.458  0.00  0.00    -0.301 OA
ATOM     10  C   UNL d   1      46.430 -18.813  43.887  0.00  0.00     0.123 A 
ATOM     11  C   UNL d   1      46.436 -19.473  42.360  0.00  0.00     0.149 A 
ATOM     12  C   UNL d   1      46.575 -19.952  43.023  0.00  0.00     0.149 A 
ATOM     13  O   UNL d   1      46.571 -19.619  43.782  0.00  0.00    -0.301 OA
ATOM     14  C   UNL d   1      46.425 -18.478  44.637  0.00  0.00     0.027 A 
ATOM     15  C   UNL d   1      46.285 -17.676  44.739  0.00  0.00     0.004 A 
ENDBRANCH   4   6
BRANCH   3  16
ATOM     16  C   UNL d   1      44.721 -16.700  44.795  0.00  0.00     0.237 C 
ATOM     17  O   UNL d   1      43.927 -16.441  44.955  0.00  0.00    -0.283 OA
ENDBRANCH   3  16
BRANCH   2  18
ATOM     18  C   UNL d   1      45.795 -13.955  44.379  0.00  0.00     0.083 A 
ATOM     19  C   UNL d   1      46.246 -13.573  44.952  0.00  0.00     0.019 A 
ATOM     20  C   UNL d   1      46.302 -12.749  44.947  0.00  0.00     0.002 A 
ATOM     21  C   UNL d   1      45.908 -12.311  44.372  0.00  0.00     0.000 A 
ATOM     22  C   UNL d   1      45.454 -12.696  43.796  0.00  0.00     0.002 A 
ATOM     23  C   UNL d   1      45.400 -13.518  43.803  0.00  0.00     0.019 A 
ENDBRANCH   2  18
TORSDOF 3
ENDMDL
