MODEL 1
REMARK VINA RESULT:      94.7      0.000      0.000
REMARK  3 active torsions:
REMARK  status: ('A' for Active; 'I' for Inactive)
REMARK    1  A    between atoms: C_11  and  N_3 
REMARK    2  A    between atoms: C_10  and  N_6 
REMARK    3  A    between atoms: C_9  and  C_7 
ROOT
ATOM      1  C   UNL d   1     -51.453  26.313  33.863  0.00  0.00     0.106 A 
ATOM      2  C   UNL d   1     -50.971  25.653  34.065  0.00  0.00     0.186 A 
ATOM      3  N   UNL d   1     -52.193  25.188  33.711  0.00  0.00    -0.240 N 
ATOM      4  C   UNL d   1     -51.452  24.978  33.962  0.00  0.00     0.292 A 
ATOM      5  C   UNL d   1     -52.191  26.033  33.649  0.00  0.00     0.271 A 
ATOM      6  N   UNL d   1     -50.228  26.741  34.220  0.00  0.00    -0.211 N 
ATOM      7  C   UNL d   1     -50.984  26.979  33.963  0.00  0.00     0.117 A 
ATOM      8  O   UNL d   1     -50.243  25.918  34.277  0.00  0.00    -0.223 OA
ATOM      9  O   UNL d   1     -52.843  26.478  33.409  0.00  0.00    -0.266 OA
ATOM     10  O   UNL d   1     -51.196  24.188  34.102  0.00  0.00    -0.264 OA
ENDROOT
BRANCH   6  11
ATOM     11  C   UNL d   1     -49.588  27.233  34.388  0.00  0.00     0.088 A 
ATOM     12  C   UNL d   1     -49.046  27.413  33.779  0.00  0.00     0.021 A 
ATOM     13  C   UNL d   1     -48.397  27.905  33.926  0.00  0.00     0.013 A 
ATOM     14  C   UNL d   1     -48.283  28.227  34.698  0.00  0.00     0.058 A 
ATOM     15  C   UNL d   1     -48.831  28.041  35.304  0.00  0.00     0.013 A 
ATOM     16 CL   UNL d   1     -47.655  28.709  34.861  0.00  0.00    -0.082 Cl
ATOM     17  C   UNL d   1     -49.472  27.549  35.138  0.00  0.00     0.021 A 
ENDBRANCH   6  11
BRANCH   7  18
ATOM     18  C   UNL d   1     -51.221  27.755  33.830  0.00  0.00     0.118 A 
ATOM     19  O   UNL d   1     -51.846  28.168  34.179  0.00  0.00    -0.304 OA
ATOM     20  C   UNL d   1     -51.866  28.934  33.867  0.00  0.00     0.123 A 
ATOM     21  C   UNL d   1     -51.234  28.975  33.316  0.00  0.00     0.029 A 
ATOM     22  C   UNL d   1     -50.861  28.263  33.307  0.00  0.00     0.028 A 
ENDBRANCH   7  18
BRANCH   3  23
ATOM     23  C   UNL d   1     -52.736  24.585  33.583  0.00  0.00     0.070 A 
ATOM     24  C   UNL d   1     -53.535  24.748  33.433  0.00  0.00     0.018 A 
ATOM     25  C   UNL d   1     -54.068  24.132  33.306  0.00  0.00     0.002 A 
ATOM     26  C   UNL d   1     -53.833  23.365  33.325  0.00  0.00     0.000 A 
ATOM     27  C   UNL d   1     -53.019  23.190  33.478  0.00  0.00     0.002 A 
ATOM     28  C   UNL d   1     -52.479  23.787  33.605  0.00  0.00     0.018 A 
ENDBRANCH   3  23
TORSDOF 3
ENDMDL
MODEL 2
REMARK VINA RESULT:      96.6      1.827      4.672
REMARK  3 active torsions:
REMARK  status: ('A' for Active; 'I' for Inactive)
REMARK    1  A    between atoms: C_11  and  N_3 
REMARK    2  A    between atoms: C_10  and  N_6 
REMARK    3  A    between atoms: C_9  and  C_7 
ROOT
ATOM      1  C   UNL d   1     -50.114  27.414  34.019  0.00  0.00     0.106 A 
ATOM      2  C   UNL d   1     -49.404  26.992  34.181  0.00  0.00     0.186 A 
ATOM      3  N   UNL d   1     -49.147  28.314  34.323  0.00  0.00    -0.240 N 
ATOM      4  C   UNL d   1     -48.830  27.570  34.363  0.00  0.00     0.292 A 
ATOM      5  C   UNL d   1     -49.960  28.213  34.105  0.00  0.00     0.271 A 
ATOM      6  N   UNL d   1     -50.334  26.093  33.887  0.00  0.00    -0.211 N 
ATOM      7  C   UNL d   1     -50.682  26.849  33.839  0.00  0.00     0.117 A 
ATOM      8  O   UNL d   1     -49.545  26.206  34.099  0.00  0.00    -0.223 OA
ATOM      9  O   UNL d   1     -50.490  28.837  34.002  0.00  0.00    -0.266 OA
ATOM     10  O   UNL d   1     -48.030  27.398  34.563  0.00  0.00    -0.264 OA
ENDROOT
BRANCH   6  11
ATOM     11  C   UNL d   1     -50.708  25.371  33.748  0.00  0.00     0.088 A 
ATOM     12  C   UNL d   1     -50.257  24.732  33.456  0.00  0.00     0.021 A 
ATOM     13  C   UNL d   1     -50.613  24.000  33.311  0.00  0.00     0.013 A 
ATOM     14  C   UNL d   1     -51.438  23.898  33.459  0.00  0.00     0.058 A 
ATOM     15  C   UNL d   1     -51.883  24.545  33.752  0.00  0.00     0.013 A 
ATOM     16 CL   UNL d   1     -51.802  23.190  33.323  0.00  0.00    -0.082 Cl
ATOM     17  C   UNL d   1     -51.511  25.268  33.891  0.00  0.00     0.021 A 
ENDBRANCH   6  11
BRANCH   7  18
ATOM     18  C   UNL d   1     -51.465  27.004  33.643  0.00  0.00     0.118 A 
ATOM     19  O   UNL d   1     -52.094  26.471  33.575  0.00  0.00    -0.304 OA
ATOM     20  C   UNL d   1     -52.776  26.890  33.367  0.00  0.00     0.123 A 
ATOM     21  C   UNL d   1     -52.544  27.694  33.309  0.00  0.00     0.029 A 
ATOM     22  C   UNL d   1     -51.760  27.744  33.477  0.00  0.00     0.028 A 
ENDBRANCH   7  18
BRANCH   3  23
ATOM     23  C   UNL d   1     -48.653  28.948  34.488  0.00  0.00     0.070 A 
ATOM     24  C   UNL d   1     -48.886  29.730  34.337  0.00  0.00     0.018 A 
ATOM     25  C   UNL d   1     -48.378  30.355  34.508  0.00  0.00     0.002 A 
ATOM     26  C   UNL d   1     -47.651  30.230  34.823  0.00  0.00     0.000 A 
ATOM     27  C   UNL d   1     -47.405  29.435  34.981  0.00  0.00     0.002 A 
ATOM     28  C   UNL d   1     -47.894  28.805  34.817  0.00  0.00     0.018 A 
ENDBRANCH   3  23
TORSDOF 3
ENDMDL
