MODEL 1
REMARK VINA RESULT:      55.8      0.000      0.000
REMARK  10 active torsions:
REMARK  status: ('A' for Active; 'I' for Inactive)
REMARK    1  A    between atoms: C_14  and  N_1 
REMARK    2  A    between atoms: N_9  and  C_2 
REMARK    3  A    between atoms: C_6  and  C_5 
REMARK    4  A    between atoms: C_7  and  C_6 
REMARK       I    between atoms: N_8  and  C_7 
REMARK    5  A    between atoms: C_10  and  N_8 
REMARK    6  A    between atoms: C_16  and  N_9 
REMARK    7  A    between atoms: O_15  and  C_13 
REMARK    8  A    between atoms: C_19  and  O_15 
REMARK    9  A    between atoms: C_21  and  C_19 
REMARK   10  A    between atoms: C_22  and  C_21 
ROOT
ATOM      1  C   UNL d   1     -48.714  27.998  34.341  0.00  0.00     0.280 C 
ATOM      2  N   UNL d   1     -48.341  28.732  34.355  0.00  0.00    -0.206 NA
ATOM      3  O   UNL d   1     -48.841  27.587  35.041  0.00  0.00    -0.265 OA
ENDROOT
BRANCH   1   4
ATOM      4  C   UNL d   1     -48.956  27.681  33.619  0.00  0.00     0.074 C 
BRANCH   4   5
ATOM      5  C   UNL d   1     -49.548  27.111  33.589  0.00  0.00     0.093 A 
ATOM      6  C   UNL d   1     -49.436  26.300  33.503  0.00  0.00     0.272 A 
ATOM      7  N   UNL d   1     -50.175  25.939  33.501  0.00  0.00    -0.252 N 
ATOM      8  O   UNL d   1     -48.713  25.916  33.431  0.00  0.00    -0.266 OA
ATOM      9  C   UNL d   1     -50.744  26.526  33.586  0.00  0.00     0.182 A 
ATOM     10  S   UNL d   1     -50.360  27.257  33.641  0.00  0.00    -0.045 SA
BRANCH   7  11
ATOM     11  C   UNL d   1     -50.324  25.134  33.427  0.00  0.00     0.085 C 
ATOM     12  C   UNL d   1     -49.692  24.610  33.306  0.00  0.00     0.021 C 
ENDBRANCH   7  11
BRANCH   9  13
ATOM     13  N   UNL d   1     -51.562  26.411  33.612  0.00  0.00    -0.221 NA
BRANCH  13  14
ATOM     14  C   UNL d   1     -52.064  26.983  33.306  0.00  0.00     0.101 C 
ATOM     15  C   UNL d   1     -52.878  26.896  33.369  0.00  0.00     0.022 C 
ENDBRANCH  13  14
ENDBRANCH   9  13
ENDBRANCH   4   5
ENDBRANCH   1   4
BRANCH   2  16
ATOM     16  C   UNL d   1     -48.096  29.056  35.069  0.00  0.00     0.107 A 
ATOM     17  C   UNL d   1     -47.908  29.865  35.117  0.00  0.00     0.118 A 
ATOM     18  C   UNL d   1     -47.662  30.188  35.836  0.00  0.00     0.026 A 
ATOM     19  C   UNL d   1     -47.604  29.703  36.502  0.00  0.00     0.002 A 
ATOM     20  C   UNL d   1     -47.790  28.902  36.454  0.00  0.00     0.002 A 
ATOM     21  C   UNL d   1     -48.036  28.578  35.740  0.00  0.00     0.021 A 
BRANCH  17  22
ATOM     22  O   UNL d   1     -47.967  30.342  34.451  0.00  0.00    -0.304 OA
BRANCH  22  23
ATOM     23  C   UNL d   1     -48.031  31.158  34.537  0.00  0.00     0.123 C 
BRANCH  23  24
ATOM     24  C   UNL d   1     -48.309  31.617  33.921  0.00  0.00     0.027 C 
BRANCH  24  25
ATOM     25  C   UNL d   1     -47.921  32.323  33.710  0.00  0.00     0.002 C 
ATOM     26  C   UNL d   1     -47.827  32.916  34.275  0.00  0.00     0.000 C 
ENDBRANCH  24  25
ENDBRANCH  23  24
ENDBRANCH  22  23
ENDBRANCH  17  22
ENDBRANCH   2  16
TORSDOF 10
ENDMDL
