MODEL 1
REMARK VINA RESULT:      -5.1      0.000      0.000
REMARK  3 active torsions:
REMARK  status: ('A' for Active; 'I' for Inactive)
REMARK    1  A    between atoms: C_2  and  C_1 
REMARK    2  A    between atoms: N_5  and  C_2 
REMARK    3  A    between atoms: C_9  and  N_5 
ROOT
ATOM      1  C   UNL d   1     -41.301-122.570 -52.829  0.00  0.00     0.139 C 
ATOM      2  S   UNL d   1     -41.368-123.351 -53.102  0.00  0.00    -0.057 SA
ENDROOT
BRANCH   1   3
ATOM      3  C   UNL d   1     -41.252-122.417 -52.016  0.00  0.00     0.074 A 
ATOM      4  C   UNL d   1     -41.168-123.008 -51.398  0.00  0.00     0.129 A 
ATOM      5  O   UNL d   1     -41.141-122.594 -50.645  0.00  0.00    -0.211 OA
ATOM      6  C   UNL d   1     -41.123-123.817 -51.511  0.00  0.00     0.029 C 
ATOM      7  N   UNL d   1     -41.207-121.755 -50.796  0.00  0.00    -0.125 NA
ATOM      8  C   UNL d   1     -41.276-121.642 -51.644  0.00  0.00     0.132 A 
ENDBRANCH   1   3
BRANCH   1   9
ATOM      9  N   UNL d   1     -41.284-121.949 -53.367  0.00  0.00    -0.235 NA
BRANCH   9  10
ATOM     10  C   UNL d   1     -41.605-122.047 -54.117  0.00  0.00     0.082 A 
ATOM     11  C   UNL d   1     -42.367-121.779 -54.271  0.00  0.00     0.019 A 
ATOM     12  C   UNL d   1     -42.683-121.878 -55.019  0.00  0.00     0.002 A 
ATOM     13  C   UNL d   1     -42.248-122.238 -55.607  0.00  0.00     0.000 A 
ATOM     14  C   UNL d   1     -41.483-122.506 -55.447  0.00  0.00     0.002 A 
ATOM     15  C   UNL d   1     -41.162-122.407 -54.693  0.00  0.00     0.019 A 
ENDBRANCH   9  10
ENDBRANCH   1   9
TORSDOF 3
ENDMDL
MODEL 2
REMARK VINA RESULT:      -4.6      2.017      4.119
REMARK  3 active torsions:
REMARK  status: ('A' for Active; 'I' for Inactive)
REMARK    1  A    between atoms: C_2  and  C_1 
REMARK    2  A    between atoms: N_5  and  C_2 
REMARK    3  A    between atoms: C_9  and  N_5 
ROOT
ATOM      1  C   UNL d   1     -41.533-123.046 -51.039  0.00  0.00     0.139 C 
ATOM      2  S   UNL d   1     -41.212-123.802 -50.909  0.00  0.00    -0.057 SA
ENDROOT
BRANCH   1   3
ATOM      3  C   UNL d   1     -41.377-122.646 -51.747  0.00  0.00     0.074 A 
ATOM      4  C   UNL d   1     -41.283-123.010 -52.520  0.00  0.00     0.129 A 
ATOM      5  O   UNL d   1     -41.129-122.381 -53.086  0.00  0.00    -0.211 OA
ATOM      6  C   UNL d   1     -41.333-123.810 -52.682  0.00  0.00     0.029 C 
ATOM      7  N   UNL d   1     -41.127-121.635 -52.666  0.00  0.00    -0.125 NA
ATOM      8  C   UNL d   1     -41.280-121.796 -51.837  0.00  0.00     0.132 A 
ENDBRANCH   1   3
BRANCH   1   9
ATOM      9  N   UNL d   1     -42.005-122.698 -50.464  0.00  0.00    -0.235 NA
BRANCH   9  10
ATOM     10  C   UNL d   1     -42.095-123.062 -49.732  0.00  0.00     0.082 A 
ATOM     11  C   UNL d   1     -42.816-123.405 -49.535  0.00  0.00     0.019 A 
ATOM     12  C   UNL d   1     -42.903-123.766 -48.806  0.00  0.00     0.002 A 
ATOM     13  C   UNL d   1     -42.281-123.785 -48.278  0.00  0.00     0.000 A 
ATOM     14  C   UNL d   1     -41.559-123.438 -48.481  0.00  0.00     0.002 A 
ATOM     15  C   UNL d   1     -41.470-123.074 -49.216  0.00  0.00     0.019 A 
ENDBRANCH   9  10
ENDBRANCH   1   9
TORSDOF 3
ENDMDL
MODEL 3
REMARK VINA RESULT:      -4.0      2.261      3.332
REMARK  3 active torsions:
REMARK  status: ('A' for Active; 'I' for Inactive)
REMARK    1  A    between atoms: C_2  and  C_1 
REMARK    2  A    between atoms: N_5  and  C_2 
REMARK    3  A    between atoms: C_9  and  N_5 
ROOT
ATOM      1  C   UNL d   1     -41.825-122.977 -49.782  0.00  0.00     0.139 C 
ATOM      2  S   UNL d   1     -42.528-122.731 -50.149  0.00  0.00    -0.057 SA
ENDROOT
BRANCH   1   3
ATOM      3  C   UNL d   1     -41.831-123.214 -48.989  0.00  0.00     0.074 A 
ATOM      4  C   UNL d   1     -42.497-123.570 -48.576  0.00  0.00     0.129 A 
ATOM      5  O   UNL d   1     -42.249-123.723 -47.767  0.00  0.00    -0.211 OA
ATOM      6  C   UNL d   1     -43.230-123.733 -48.900  0.00  0.00     0.029 C 
ATOM      7  N   UNL d   1     -41.438-123.463 -47.680  0.00  0.00    -0.125 NA
ATOM      8  C   UNL d   1     -41.177-123.148 -48.434  0.00  0.00     0.132 A 
ENDBRANCH   1   3
BRANCH   1   9
ATOM      9  N   UNL d   1     -41.123-122.985 -50.208  0.00  0.00    -0.235 NA
BRANCH   9  10
ATOM     10  C   UNL d   1     -41.127-122.805 -51.010  0.00  0.00     0.082 A 
ATOM     11  C   UNL d   1     -41.123-123.413 -51.563  0.00  0.00     0.019 A 
ATOM     12  C   UNL d   1     -41.127-123.231 -52.361  0.00  0.00     0.002 A 
ATOM     13  C   UNL d   1     -41.136-122.453 -52.606  0.00  0.00     0.000 A 
ATOM     14  C   UNL d   1     -41.141-121.845 -52.046  0.00  0.00     0.002 A 
ATOM     15  C   UNL d   1     -41.137-122.028 -51.242  0.00  0.00     0.019 A 
ENDBRANCH   9  10
ENDBRANCH   1   9
TORSDOF 3
ENDMDL
