MODEL 1
REMARK VINA RESULT:     -10.2      0.000      0.000
REMARK  5 active torsions:
REMARK  status: ('A' for Active; 'I' for Inactive)
REMARK    1  A    between atoms: C_3  and  C_2 
REMARK    2  A    between atoms: C_7  and  C_3 
REMARK    3  A    between atoms: C_10  and  C_4 
REMARK    4  A    between atoms: C_12  and  C_7 
REMARK    5  A    between atoms: C_18  and  C_11 
ROOT
ATOM      1  C   UNL d   1      53.322  34.012  53.774  0.00  0.00     0.092 C 
ATOM      2  C   UNL d   1      53.230  34.329  54.531  0.00  0.00     0.103 C 
ATOM      3  N   UNL d   1      53.137  34.645  55.286  0.00  0.00    -0.191 NA
ENDROOT
BRANCH   1   4
ATOM      4  C   UNL d   1      53.694  33.282  53.680  0.00  0.00     0.120 A 
ATOM      5  N   UNL d   1      53.250  32.594  53.666  0.00  0.00    -0.238 NA
ATOM      6  C   UNL d   1      53.775  31.955  53.564  0.00  0.00     0.088 A 
ATOM      7  C   UNL d   1      54.523  32.267  53.519  0.00  0.00     0.056 A 
ATOM      8  S   UNL d   1      54.487  33.076  53.588  0.00  0.00    -0.065 SA
BRANCH   6   9
ATOM      9  C   UNL d   1      53.476  31.186  53.530  0.00  0.00     0.018 A 
ATOM     10  C   UNL d   1      52.989  30.941  52.924  0.00  0.00     0.005 A 
ATOM     11  C   UNL d   1      52.705  30.188  52.904  0.00  0.00     0.042 A 
ATOM     12  C   UNL d   1      52.892  29.637  53.490  0.00  0.00     0.196 A 
ATOM     13  C   UNL d   1      53.384  29.873  54.108  0.00  0.00     0.042 A 
ATOM     14  O   UNL d   1      52.716  28.910  53.620  0.00  0.00    -0.287 OA
ATOM     15  C   UNL d   1      53.672  30.644  54.125  0.00  0.00     0.005 A 
ENDBRANCH   6   9
ENDBRANCH   1   4
BRANCH   1  16
ATOM     16  C   UNL d   1      53.045  34.421  53.113  0.00  0.00     0.012 C 
BRANCH  16  17
ATOM     17  C   UNL d   1      52.219  34.457  52.949  0.00  0.00     0.001 A 
ATOM     18  C   UNL d   1      51.981  34.314  52.176  0.00  0.00     0.000 A 
ATOM     19  C   UNL d   1      51.138  34.347  51.993  0.00  0.00     0.000 A 
ATOM     20  C   UNL d   1      50.604  34.523  52.608  0.00  0.00     0.000 A 
ATOM     21  C   UNL d   1      50.870  34.663  53.376  0.00  0.00     0.000 A 
ATOM     22  C   UNL d   1      51.661  34.634  53.558  0.00  0.00     0.000 A 
BRANCH  20  23
ATOM     23  C   UNL d   1      49.781  34.550  52.404  0.00  0.00     0.000 C 
ATOM     24  C   UNL d   1      49.487  34.135  51.762  0.00  0.00     0.000 C 
ATOM     25  C   UNL d   1      49.275  35.011  52.871  0.00  0.00     0.000 C 
ENDBRANCH  20  23
ENDBRANCH  16  17
ENDBRANCH   1  16
TORSDOF 5
ENDMDL
MODEL 2
REMARK VINA RESULT:      -9.7      1.571      4.321
REMARK  5 active torsions:
REMARK  status: ('A' for Active; 'I' for Inactive)
REMARK    1  A    between atoms: C_3  and  C_2 
REMARK    2  A    between atoms: C_7  and  C_3 
REMARK    3  A    between atoms: C_10  and  C_4 
REMARK    4  A    between atoms: C_12  and  C_7 
REMARK    5  A    between atoms: C_18  and  C_11 
ROOT
ATOM      1  C   UNL d   1      53.771  33.235  53.993  0.00  0.00     0.092 C 
ATOM      2  C   UNL d   1      54.071  33.200  54.761  0.00  0.00     0.103 C 
ATOM      3  N   UNL d   1      54.370  33.164  55.528  0.00  0.00    -0.191 NA
ENDROOT
BRANCH   1   4
ATOM      4  C   UNL d   1      53.264  33.849  53.780  0.00  0.00     0.120 A 
ATOM      5  N   UNL d   1      52.549  33.683  53.414  0.00  0.00    -0.238 NA
ATOM      6  C   UNL d   1      52.165  34.408  53.270  0.00  0.00     0.088 A 
ATOM      7  C   UNL d   1      52.649  34.995  53.549  0.00  0.00     0.056 A 
ATOM      8  S   UNL d   1      53.324  34.667  53.863  0.00  0.00    -0.065 SA
BRANCH   6   9
ATOM      9  C   UNL d   1      51.425  34.407  52.902  0.00  0.00     0.018 A 
ATOM     10  C   UNL d   1      50.734  34.499  53.326  0.00  0.00     0.005 A 
ATOM     11  C   UNL d   1      50.020  34.496  52.953  0.00  0.00     0.042 A 
ATOM     12  C   UNL d   1      49.957  34.402  52.135  0.00  0.00     0.196 A 
ATOM     13  C   UNL d   1      50.648  34.309  51.696  0.00  0.00     0.042 A 
ATOM     14  O   UNL d   1      49.382  34.377  51.641  0.00  0.00    -0.287 OA
ATOM     15  C   UNL d   1      51.376  34.312  52.081  0.00  0.00     0.005 A 
ENDBRANCH   6   9
ENDBRANCH   1   4
BRANCH   1  16
ATOM     16  C   UNL d   1      53.977  32.660  53.436  0.00  0.00     0.012 C 
BRANCH  16  17
ATOM     17  C   UNL d   1      53.751  31.856  53.552  0.00  0.00     0.001 A 
ATOM     18  C   UNL d   1      53.384  31.474  52.923  0.00  0.00     0.000 A 
ATOM     19  C   UNL d   1      53.147  30.650  53.026  0.00  0.00     0.000 A 
ATOM     20  C   UNL d   1      53.300  30.280  53.756  0.00  0.00     0.000 A 
ATOM     21  C   UNL d   1      53.670  30.687  54.371  0.00  0.00     0.000 A 
ATOM     22  C   UNL d   1      53.897  31.462  54.284  0.00  0.00     0.000 A 
BRANCH  20  23
ATOM     23  C   UNL d   1      53.058  29.470  53.833  0.00  0.00     0.000 C 
ATOM     24  C   UNL d   1      53.345  28.995  54.436  0.00  0.00     0.000 C 
ATOM     25  C   UNL d   1      52.520  29.166  53.282  0.00  0.00     0.000 C 
ENDBRANCH  20  23
ENDBRANCH  16  17
ENDBRANCH   1  16
TORSDOF 5
ENDMDL
MODEL 3
REMARK VINA RESULT:      -8.4      2.837      5.438
REMARK  5 active torsions:
REMARK  status: ('A' for Active; 'I' for Inactive)
REMARK    1  A    between atoms: C_3  and  C_2 
REMARK    2  A    between atoms: C_7  and  C_3 
REMARK    3  A    between atoms: C_10  and  C_4 
REMARK    4  A    between atoms: C_12  and  C_7 
REMARK    5  A    between atoms: C_18  and  C_11 
ROOT
ATOM      1  C   UNL d   1      51.120  33.984  52.870  0.00  0.00     0.092 C 
ATOM      2  C   UNL d   1      51.091  33.233  53.210  0.00  0.00     0.103 C 
ATOM      3  N   UNL d   1      51.063  32.482  53.550  0.00  0.00    -0.191 NA
ENDROOT
BRANCH   1   4
ATOM      4  C   UNL d   1      50.455  34.283  52.484  0.00  0.00     0.120 A 
ATOM      5  N   UNL d   1      49.904  34.726  52.898  0.00  0.00    -0.238 NA
ATOM      6  C   UNL d   1      49.304  34.947  52.364  0.00  0.00     0.088 A 
ATOM      7  C   UNL d   1      49.502  34.636  51.641  0.00  0.00     0.056 A 
ATOM      8  S   UNL d   1      50.202  34.229  51.701  0.00  0.00    -0.065 SA
BRANCH   6   9
ATOM      9  C   UNL d   1      48.669  35.402  52.634  0.00  0.00     0.018 A 
ATOM     10  C   UNL d   1      48.635  35.681  53.399  0.00  0.00     0.005 A 
ATOM     11  C   UNL d   1      48.009  36.123  53.648  0.00  0.00     0.042 A 
ATOM     12  C   UNL d   1      47.383  36.311  53.143  0.00  0.00     0.196 A 
ATOM     13  C   UNL d   1      47.406  36.035  52.367  0.00  0.00     0.042 A 
ATOM     14  O   UNL d   1      46.737  36.705  53.213  0.00  0.00    -0.287 OA
ATOM     15  C   UNL d   1      48.048  35.583  52.117  0.00  0.00     0.005 A 
ENDBRANCH   6   9
ENDBRANCH   1   4
BRANCH   1  16
ATOM     16  C   UNL d   1      51.808  34.438  52.914  0.00  0.00     0.012 C 
BRANCH  16  17
ATOM     17  C   UNL d   1      52.457  34.182  53.388  0.00  0.00     0.001 A 
ATOM     18  C   UNL d   1      52.530  34.512  54.137  0.00  0.00     0.000 A 
ATOM     19  C   UNL d   1      53.190  34.259  54.633  0.00  0.00     0.000 A 
ATOM     20  C   UNL d   1      53.722  33.694  54.332  0.00  0.00     0.000 A 
ATOM     21  C   UNL d   1      53.625  33.379  53.576  0.00  0.00     0.000 A 
ATOM     22  C   UNL d   1      53.008  33.610  53.101  0.00  0.00     0.000 A 
BRANCH  20  23
ATOM     23  C   UNL d   1      54.363  33.462  54.838  0.00  0.00     0.000 C 
ATOM     24  C   UNL d   1      55.095  33.827  54.794  0.00  0.00     0.000 C 
ATOM     25  C   UNL d   1      54.231  32.853  55.384  0.00  0.00     0.000 C 
ENDBRANCH  20  23
ENDBRANCH  16  17
ENDBRANCH   1  16
TORSDOF 5
ENDMDL
MODEL 4
REMARK VINA RESULT:      -8.0      1.854      2.879
REMARK  5 active torsions:
REMARK  status: ('A' for Active; 'I' for Inactive)
REMARK    1  A    between atoms: C_3  and  C_2 
REMARK    2  A    between atoms: C_7  and  C_3 
REMARK    3  A    between atoms: C_10  and  C_4 
REMARK    4  A    between atoms: C_12  and  C_7 
REMARK    5  A    between atoms: C_18  and  C_11 
ROOT
ATOM      1  C   UNL d   1      51.495  33.522  52.561  0.00  0.00     0.092 C 
ATOM      2  C   UNL d   1      51.675  34.099  52.000  0.00  0.00     0.103 C 
ATOM      3  N   UNL d   1      51.855  34.676  51.439  0.00  0.00    -0.191 NA
ENDROOT
BRANCH   1   4
ATOM      4  C   UNL d   1      52.104  33.102  52.925  0.00  0.00     0.120 A 
ATOM      5  N   UNL d   1      52.667  33.498  53.370  0.00  0.00    -0.238 NA
ATOM      6  C   UNL d   1      53.203  32.931  53.663  0.00  0.00     0.088 A 
ATOM      7  C   UNL d   1      52.957  32.208  53.392  0.00  0.00     0.056 A 
ATOM      8  S   UNL d   1      52.287  32.298  52.940  0.00  0.00    -0.065 SA
BRANCH   6   9
ATOM      9  C   UNL d   1      53.835  33.177  54.135  0.00  0.00     0.018 A 
ATOM     10  C   UNL d   1      54.607  33.134  53.876  0.00  0.00     0.005 A 
ATOM     11  C   UNL d   1      55.213  33.378  54.347  0.00  0.00     0.042 A 
ATOM     12  C   UNL d   1      55.080  33.678  55.105  0.00  0.00     0.196 A 
ATOM     13  C   UNL d   1      54.304  33.727  55.378  0.00  0.00     0.042 A 
ATOM     14  O   UNL d   1      55.522  33.943  55.662  0.00  0.00    -0.287 OA
ATOM     15  C   UNL d   1      53.687  33.477  54.893  0.00  0.00     0.005 A 
ENDBRANCH   6   9
ENDBRANCH   1   4
BRANCH   1  16
ATOM     16  C   UNL d   1      50.710  33.363  52.761  0.00  0.00     0.012 C 
BRANCH  16  17
ATOM     17  C   UNL d   1      50.143  33.986  52.790  0.00  0.00     0.001 A 
ATOM     18  C   UNL d   1      49.616  34.046  52.162  0.00  0.00     0.000 A 
ATOM     19  C   UNL d   1      49.030  34.680  52.178  0.00  0.00     0.000 A 
ATOM     20  C   UNL d   1      49.024  35.200  52.828  0.00  0.00     0.000 A 
ATOM     21  C   UNL d   1      49.564  35.117  53.445  0.00  0.00     0.000 A 
ATOM     22  C   UNL d   1      50.119  34.525  53.440  0.00  0.00     0.000 A 
BRANCH  20  23
ATOM     23  C   UNL d   1      48.438  35.815  52.821  0.00  0.00     0.000 C 
ATOM     24  C   UNL d   1      48.290  36.270  53.486  0.00  0.00     0.000 C 
ATOM     25  C   UNL d   1      48.015  35.947  52.121  0.00  0.00     0.000 C 
ENDBRANCH  20  23
ENDBRANCH  16  17
ENDBRANCH   1  16
TORSDOF 5
ENDMDL
