MODEL 1
REMARK VINA RESULT:     124.1      0.000      0.000
REMARK  10 active torsions:
REMARK  status: ('A' for Active; 'I' for Inactive)
REMARK    1  A    between atoms: C_5  and  C_1 
REMARK    2  A    between atoms: C_10  and  C_2 
REMARK    3  A    between atoms: S_11  and  C_3 
REMARK    4  A    between atoms: C_9  and  C_4 
REMARK       I    between atoms: N_8  and  C_5 
REMARK    5  A    between atoms: C_15  and  N_8 
REMARK    6  A    between atoms: C_26  and  S_11 
REMARK    7  A    between atoms: C_13  and  C_18 
REMARK    8  A    between atoms: C_16  and  C_26 
REMARK       I    between atoms: N_19  and  C_16 
REMARK    9  A    between atoms: C_29  and  N_19 
REMARK   10  A    between atoms: O_34  and  C_23 
ROOT
ATOM      1  C   UNL d   1      59.652  48.627  50.468  0.00  0.00     0.076 A 
ATOM      2  C   UNL d   1      60.985  48.366  50.835  0.00  0.00     0.045 A 
ATOM      3  C   UNL d   1      61.104  47.958  50.103  0.00  0.00     0.112 A 
ATOM      4  C   UNL d   1      60.269  48.690  51.005  0.00  0.00     0.016 A 
ATOM      5  C   UNL d   1      59.769  48.224  49.744  0.00  0.00     0.087 A 
ATOM      6  N   UNL d   1      60.502  47.894  49.574  0.00  0.00    -0.239 NA
ATOM      7  C   UNL d   1      59.155  48.152  49.192  0.00  0.00     0.021 C 
ENDROOT
BRANCH   3   8
ATOM      8  S   UNL d   1      61.840  47.600  49.879  0.00  0.00    -0.062 SA
BRANCH   8   9
ATOM      9  C   UNL d   1      61.869  47.037  49.268  0.00  0.00     0.099 C 
BRANCH   9  10
ATOM     10  C   UNL d   1      62.107  46.264  49.436  0.00  0.00     0.286 C 
ATOM     11  N   UNL d   1      61.569  45.724  49.745  0.00  0.00    -0.208 NA
ATOM     12  O   UNL d   1      62.879  46.037  49.293  0.00  0.00    -0.265 OA
BRANCH  11  13
ATOM     13  C   UNL d   1      61.818  44.952  49.909  0.00  0.00     0.085 A 
ATOM     14  C   UNL d   1      62.200  44.517  49.331  0.00  0.00     0.019 A 
ATOM     15  C   UNL d   1      62.449  43.750  49.491  0.00  0.00     0.008 A 
ATOM     16  C   UNL d   1      62.308  43.423  50.244  0.00  0.00     0.065 A 
ATOM     17  C   UNL d   1      61.926  43.858  50.822  0.00  0.00     0.008 A 
ATOM     18  C   UNL d   1      61.677  44.630  50.658  0.00  0.00     0.019 A 
BRANCH  16  19
ATOM     19  C   UNL d   1      62.557  42.644  50.416  0.00  0.00     0.211 C 
ATOM     20  O   UNL d   1      62.418  42.317  51.169  0.00  0.00    -0.644 OA
ATOM     21  O   UNL d   1      62.939  42.208  49.838  0.00  0.00    -0.644 OA
ENDBRANCH  16  19
ENDBRANCH  11  13
ENDBRANCH   9  10
ENDBRANCH   8   9
ENDBRANCH   3   8
BRANCH   2  22
ATOM     22  C   UNL d   1      61.596  48.451  51.411  0.00  0.00     0.124 C 
ATOM     23  N   UNL d   1      62.187  49.038  51.312  0.00  0.00    -0.146 N 
ENDBRANCH   2  22
BRANCH   4  24
ATOM     24  C   UNL d   1      60.154  49.085  51.715  0.00  0.00     0.030 A 
ATOM     25  S   UNL d   1      59.487  49.359  52.089  0.00  0.00    -0.086 SA
ATOM     26  C   UNL d   1      59.718  49.704  52.776  0.00  0.00     0.035 A 
ATOM     27  C   UNL d   1      60.511  49.653  52.840  0.00  0.00     0.007 A 
ATOM     28  C   UNL d   1      60.798  49.272  52.189  0.00  0.00     0.007 A 
ENDBRANCH   4  24
BRANCH   1  29
ATOM     29  C   UNL d   1      58.919  48.962  50.647  0.00  0.00     0.281 C 
ATOM     30  N   UNL d   1      58.224  48.535  50.487  0.00  0.00    -0.206 NA
ATOM     31  O   UNL d   1      58.879  49.706  50.980  0.00  0.00    -0.265 OA
BRANCH  30  32
ATOM     32  C   UNL d   1      57.494  48.873  50.668  0.00  0.00     0.107 A 
ATOM     33  C   UNL d   1      56.853  48.720  50.199  0.00  0.00     0.112 A 
ATOM     34  C   UNL d   1      56.123  49.062  50.384  0.00  0.00     0.026 A 
ATOM     35  C   UNL d   1      56.047  49.546  51.028  0.00  0.00     0.002 A 
ATOM     36  C   UNL d   1      56.698  49.707  51.512  0.00  0.00     0.002 A 
ATOM     37  C   UNL d   1      57.428  49.366  51.327  0.00  0.00     0.021 A 
BRANCH  33  38
ATOM     38  O   UNL d   1      56.930  48.226  49.542  0.00  0.00    -0.327 OA
ATOM     39  C   UNL d   1      56.525  48.396  48.845  0.00  0.00     0.181 C 
ENDBRANCH  33  38
ENDBRANCH  30  32
ENDBRANCH   1  29
TORSDOF 10
ENDMDL
