MODEL 1
REMARK VINA RESULT:      -4.1      0.000      0.000
REMARK  3 active torsions:
REMARK  status: ('A' for Active; 'I' for Inactive)
REMARK    1  A    between atoms: C_9  and  N_1 
REMARK    2  A    between atoms: C_2  and  C_9 
REMARK    3  A    between atoms: S_13  and  C_5 
ROOT
ATOM      1  N   UNL d   1      58.433   0.638  30.212  0.00  0.00    -0.265 N 
ATOM      2  C   UNL d   1      58.131   0.603  29.441  0.00  0.00     0.296 A 
ATOM      3  S   UNL d   1      58.772   0.576  28.926  0.00  0.00    -0.025 SA
ATOM      4  C   UNL d   1      59.251   0.633  30.177  0.00  0.00     0.074 A 
ATOM      5  C   UNL d   1      59.468   0.594  29.385  0.00  0.00     0.050 A 
ATOM      6  O   UNL d   1      57.335   0.596  29.233  0.00  0.00    -0.259 OA
ATOM      7  C   UNL d   1      59.838   0.658  30.764  0.00  0.00     0.018 A 
ATOM      8  C   UNL d   1      60.268   0.581  29.172  0.00  0.00     0.008 A 
ATOM      9  C   UNL d   1      60.638   0.644  30.556  0.00  0.00     0.002 A 
ATOM     10  C   UNL d   1      60.845   0.606  29.752  0.00  0.00     0.001 A 
ENDROOT
BRANCH   1  11
ATOM     11  C   UNL d   1      57.986   0.673  30.906  0.00  0.00     0.123 C 
BRANCH  11  12
ATOM     12  C   UNL d   1      57.574   0.017  31.165  0.00  0.00     0.189 A 
ATOM     13  N   UNL d   1      57.168   0.043  31.876  0.00  0.00    -0.265 N 
ATOM     14  C   UNL d   1      56.810  -0.689  31.991  0.00  0.00     0.197 A 
ATOM     15  C   UNL d   1      57.118   0.682  32.396  0.00  0.00     0.103 C 
ATOM     16  N   UNL d   1      56.995  -1.168  31.349  0.00  0.00    -0.122 NA
ATOM     17  N   UNL d   1      57.469  -0.728  30.839  0.00  0.00    -0.126 NA
BRANCH  14  18
ATOM     18  S   UNL d   1      56.346  -0.908  32.636  0.00  0.00    -0.074 SA
ATOM     19  C   UNL d   1      55.881  -1.590  32.608  0.00  0.00     0.077 C 
ENDBRANCH  14  18
ENDBRANCH  11  12
ENDBRANCH   1  11
TORSDOF 3
ENDMDL
MODEL 2
REMARK VINA RESULT:      -3.5      1.617      4.057
REMARK  3 active torsions:
REMARK  status: ('A' for Active; 'I' for Inactive)
REMARK    1  A    between atoms: C_9  and  N_1 
REMARK    2  A    between atoms: C_2  and  C_9 
REMARK    3  A    between atoms: S_13  and  C_5 
ROOT
ATOM      1  N   UNL d   1      57.277  -0.146  32.281  0.00  0.00    -0.265 N 
ATOM      2  C   UNL d   1      57.729   0.413  32.692  0.00  0.00     0.296 A 
ATOM      3  S   UNL d   1      57.275   0.681  33.324  0.00  0.00    -0.025 SA
ATOM      4  C   UNL d   1      56.551  -0.225  32.651  0.00  0.00     0.074 A 
ATOM      5  C   UNL d   1      56.542   0.283  33.297  0.00  0.00     0.050 A 
ATOM      6  O   UNL d   1      58.492   0.653  32.502  0.00  0.00    -0.259 OA
ATOM      7  C   UNL d   1      55.887  -0.695  32.488  0.00  0.00     0.018 A 
ATOM      8  C   UNL d   1      55.875   0.327  33.785  0.00  0.00     0.008 A 
ATOM      9  C   UNL d   1      55.217  -0.655  32.972  0.00  0.00     0.002 A 
ATOM     10  C   UNL d   1      55.221  -0.137  33.623  0.00  0.00     0.001 A 
ENDROOT
BRANCH   1  11
ATOM     11  C   UNL d   1      57.515  -0.559  31.606  0.00  0.00     0.123 C 
BRANCH  11  12
ATOM     12  C   UNL d   1      57.621  -0.167  30.898  0.00  0.00     0.189 A 
ATOM     13  N   UNL d   1      58.007  -0.538  30.278  0.00  0.00    -0.265 N 
ATOM     14  C   UNL d   1      58.031  -0.014  29.644  0.00  0.00     0.197 A 
ATOM     15  C   UNL d   1      58.322  -1.301  30.275  0.00  0.00     0.103 C 
ATOM     16  N   UNL d   1      57.658   0.682  29.873  0.00  0.00    -0.122 NA
ATOM     17  N   UNL d   1      57.405   0.584  30.650  0.00  0.00    -0.126 NA
BRANCH  14  18
ATOM     18  S   UNL d   1      58.369  -0.159  28.906  0.00  0.00    -0.074 SA
ATOM     19  C   UNL d   1      58.682   0.460  28.458  0.00  0.00     0.077 C 
ENDBRANCH  14  18
ENDBRANCH  11  12
ENDBRANCH   1  11
TORSDOF 3
ENDMDL
MODEL 3
REMARK VINA RESULT:      -3.3      1.191      1.599
REMARK  3 active torsions:
REMARK  status: ('A' for Active; 'I' for Inactive)
REMARK    1  A    between atoms: C_9  and  N_1 
REMARK    2  A    between atoms: C_2  and  C_9 
REMARK    3  A    between atoms: S_13  and  C_5 
ROOT
ATOM      1  N   UNL d   1      58.163   0.676  30.893  0.00  0.00    -0.265 N 
ATOM      2  C   UNL d   1      58.925   0.676  31.218  0.00  0.00     0.296 A 
ATOM      3  S   UNL d   1      59.460   0.670  30.593  0.00  0.00    -0.025 SA
ATOM      4  C   UNL d   1      58.222   0.670  30.077  0.00  0.00     0.074 A 
ATOM      5  C   UNL d   1      59.022   0.666  29.883  0.00  0.00     0.050 A 
ATOM      6  O   UNL d   1      59.109   0.681  32.020  0.00  0.00    -0.259 OA
ATOM      7  C   UNL d   1      57.653   0.668  29.472  0.00  0.00     0.018 A 
ATOM      8  C   UNL d   1      59.259   0.660  29.090  0.00  0.00     0.008 A 
ATOM      9  C   UNL d   1      57.886   0.662  28.678  0.00  0.00     0.002 A 
ATOM     10  C   UNL d   1      58.696   0.657  28.496  0.00  0.00     0.001 A 
ENDROOT
BRANCH   1  11
ATOM     11  C   UNL d   1      57.455   0.682  31.318  0.00  0.00     0.123 C 
BRANCH  11  12
ATOM     12  C   UNL d   1      57.145  -0.014  31.613  0.00  0.00     0.189 A 
ATOM     13  N   UNL d   1      56.589   0.008  32.214  0.00  0.00    -0.265 N 
ATOM     14  C   UNL d   1      56.380  -0.767  32.396  0.00  0.00     0.197 A 
ATOM     15  C   UNL d   1      56.282   0.680  32.582  0.00  0.00     0.103 C 
ATOM     16  N   UNL d   1      56.809  -1.269  31.905  0.00  0.00    -0.122 NA
ATOM     17  N   UNL d   1      57.282  -0.799  31.422  0.00  0.00    -0.126 NA
BRANCH  14  18
ATOM     18  S   UNL d   1      55.837  -1.003  32.968  0.00  0.00    -0.074 SA
ATOM     19  C   UNL d   1      55.579  -1.787  33.006  0.00  0.00     0.077 C 
ENDBRANCH  14  18
ENDBRANCH  11  12
ENDBRANCH   1  11
TORSDOF 3
ENDMDL
MODEL 4
REMARK VINA RESULT:      -2.5      2.627      2.986
REMARK  3 active torsions:
REMARK  status: ('A' for Active; 'I' for Inactive)
REMARK    1  A    between atoms: C_9  and  N_1 
REMARK    2  A    between atoms: C_2  and  C_9 
REMARK    3  A    between atoms: S_13  and  C_5 
ROOT
ATOM      1  N   UNL d   1      59.030  -2.013  28.980  0.00  0.00    -0.265 N 
ATOM      2  C   UNL d   1      58.541  -2.619  28.696  0.00  0.00     0.296 A 
ATOM      3  S   UNL d   1      58.980  -3.314  28.700  0.00  0.00    -0.025 SA
ATOM      4  C   UNL d   1      59.764  -2.326  29.158  0.00  0.00     0.074 A 
ATOM      5  C   UNL d   1      59.742  -3.131  28.988  0.00  0.00     0.050 A 
ATOM      6  O   UNL d   1      57.758  -2.536  28.455  0.00  0.00    -0.259 OA
ATOM      7  C   UNL d   1      60.462  -1.988  29.456  0.00  0.00     0.018 A 
ATOM      8  C   UNL d   1      60.411  -3.602  29.113  0.00  0.00     0.008 A 
ATOM      9  C   UNL d   1      61.132  -2.455  29.582  0.00  0.00     0.002 A 
ATOM     10  C   UNL d   1      61.097  -3.267  29.406  0.00  0.00     0.001 A 
ENDROOT
BRANCH   1  11
ATOM     11  C   UNL d   1      58.816  -1.220  29.069  0.00  0.00     0.123 C 
BRANCH  11  12
ATOM     12  C   UNL d   1      58.360  -0.985  29.705  0.00  0.00     0.189 A 
ATOM     13  N   UNL d   1      58.255  -0.188  29.861  0.00  0.00    -0.265 N 
ATOM     14  C   UNL d   1      57.776  -0.120  30.526  0.00  0.00     0.197 A 
ATOM     15  C   UNL d   1      58.568   0.446  29.436  0.00  0.00     0.103 C 
ATOM     16  N   UNL d   1      57.584  -0.878  30.781  0.00  0.00    -0.122 NA
ATOM     17  N   UNL d   1      57.947  -1.411  30.271  0.00  0.00    -0.126 NA
BRANCH  14  18
ATOM     18  S   UNL d   1      57.529   0.583  30.879  0.00  0.00    -0.074 SA
ATOM     19  C   UNL d   1      57.153   0.576  31.614  0.00  0.00     0.077 C 
ENDBRANCH  14  18
ENDBRANCH  11  12
ENDBRANCH   1  11
TORSDOF 3
ENDMDL
MODEL 5
REMARK VINA RESULT:      -2.4      2.273      3.422
REMARK  3 active torsions:
REMARK  status: ('A' for Active; 'I' for Inactive)
REMARK    1  A    between atoms: C_9  and  N_1 
REMARK    2  A    between atoms: C_2  and  C_9 
REMARK    3  A    between atoms: S_13  and  C_5 
ROOT
ATOM      1  N   UNL d   1      56.253  -0.339  32.334  0.00  0.00    -0.265 N 
ATOM      2  C   UNL d   1      56.199  -1.165  32.342  0.00  0.00     0.296 A 
ATOM      3  S   UNL d   1      56.738  -1.453  31.791  0.00  0.00    -0.025 SA
ATOM      4  C   UNL d   1      56.817  -0.114  31.785  0.00  0.00     0.074 A 
ATOM      5  C   UNL d   1      57.122  -0.798  31.444  0.00  0.00     0.050 A 
ATOM      6  O   UNL d   1      55.699  -1.613  32.817  0.00  0.00    -0.259 OA
ATOM      7  C   UNL d   1      57.100   0.627  31.543  0.00  0.00     0.018 A 
ATOM      8  C   UNL d   1      57.708  -0.749  30.863  0.00  0.00     0.008 A 
ATOM      9  C   UNL d   1      57.687   0.682  30.962  0.00  0.00     0.002 A 
ATOM     10  C   UNL d   1      57.987  -0.016  30.626  0.00  0.00     0.001 A 
ENDROOT
BRANCH   1  11
ATOM     11  C   UNL d   1      55.811   0.179  32.802  0.00  0.00     0.123 C 
BRANCH  11  12
ATOM     12  C   UNL d   1      55.999   0.286  33.590  0.00  0.00     0.189 A 
ATOM     13  N   UNL d   1      55.406   0.442  34.134  0.00  0.00    -0.265 N 
ATOM     14  C   UNL d   1      55.756   0.522  34.874  0.00  0.00     0.197 A 
ATOM     15  C   UNL d   1      54.598   0.509  33.982  0.00  0.00     0.103 C 
ATOM     16  N   UNL d   1      56.567   0.416  34.787  0.00  0.00    -0.122 NA
ATOM     17  N   UNL d   1      56.714   0.269  33.990  0.00  0.00    -0.126 NA
BRANCH  14  18
ATOM     18  S   UNL d   1      55.366   0.682  35.583  0.00  0.00    -0.074 SA
ATOM     19  C   UNL d   1      55.760   0.612  36.305  0.00  0.00     0.077 C 
ENDBRANCH  14  18
ENDBRANCH  11  12
ENDBRANCH   1  11
TORSDOF 3
ENDMDL
MODEL 6
REMARK VINA RESULT:      -1.8      1.287      4.086
REMARK  3 active torsions:
REMARK  status: ('A' for Active; 'I' for Inactive)
REMARK    1  A    between atoms: C_9  and  N_1 
REMARK    2  A    between atoms: C_2  and  C_9 
REMARK    3  A    between atoms: S_13  and  C_5 
ROOT
ATOM      1  N   UNL d   1      56.610  -0.395  31.818  0.00  0.00    -0.265 N 
ATOM      2  C   UNL d   1      56.670  -1.221  31.836  0.00  0.00     0.296 A 
ATOM      3  S   UNL d   1      56.247  -1.485  32.491  0.00  0.00    -0.025 SA
ATOM      4  C   UNL d   1      56.156  -0.148  32.452  0.00  0.00     0.074 A 
ATOM      5  C   UNL d   1      55.927  -0.816  32.874  0.00  0.00     0.050 A 
ATOM      6  O   UNL d   1      57.078  -1.689  31.297  0.00  0.00    -0.259 OA
ATOM      7  C   UNL d   1      55.914   0.603  32.711  0.00  0.00     0.018 A 
ATOM      8  C   UNL d   1      55.459  -0.742  33.552  0.00  0.00     0.008 A 
ATOM      9  C   UNL d   1      55.445   0.682  33.388  0.00  0.00     0.002 A 
ATOM     10  C   UNL d   1      55.221  -0.001  33.805  0.00  0.00     0.001 A 
ENDROOT
BRANCH   1  11
ATOM     11  C   UNL d   1      56.950   0.103  31.254  0.00  0.00     0.123 C 
BRANCH  11  12
ATOM     12  C   UNL d   1      57.749   0.272  31.281  0.00  0.00     0.189 A 
ATOM     13  N   UNL d   1      58.168   0.377  30.585  0.00  0.00    -0.265 N 
ATOM     14  C   UNL d   1      58.951   0.538  30.782  0.00  0.00     0.197 A 
ATOM     15  C   UNL d   1      57.873   0.332  29.815  0.00  0.00     0.103 C 
ATOM     16  N   UNL d   1      59.014   0.533  31.602  0.00  0.00    -0.122 NA
ATOM     17  N   UNL d   1      58.268   0.367  31.908  0.00  0.00    -0.126 NA
BRANCH  14  18
ATOM     18  S   UNL d   1      59.567   0.681  30.253  0.00  0.00    -0.074 SA
ATOM     19  C   UNL d   1      60.352   0.675  30.510  0.00  0.00     0.077 C 
ENDBRANCH  14  18
ENDBRANCH  11  12
ENDBRANCH   1  11
TORSDOF 3
ENDMDL
MODEL 7
REMARK VINA RESULT:      -1.7      1.629      3.572
REMARK  3 active torsions:
REMARK  status: ('A' for Active; 'I' for Inactive)
REMARK    1  A    between atoms: C_9  and  N_1 
REMARK    2  A    between atoms: C_2  and  C_9 
REMARK    3  A    between atoms: S_13  and  C_5 
ROOT
ATOM      1  N   UNL d   1      58.023   0.618  31.342  0.00  0.00    -0.265 N 
ATOM      2  C   UNL d   1      58.694   0.652  31.826  0.00  0.00     0.296 A 
ATOM      3  S   UNL d   1      58.436   0.681  32.607  0.00  0.00    -0.025 SA
ATOM      4  C   UNL d   1      57.355   0.626  31.814  0.00  0.00     0.074 A 
ATOM      5  C   UNL d   1      57.601   0.665  32.598  0.00  0.00     0.050 A 
ATOM      6  O   UNL d   1      59.476   0.655  31.570  0.00  0.00    -0.259 OA
ATOM      7  C   UNL d   1      56.543   0.603  31.639  0.00  0.00     0.018 A 
ATOM      8  C   UNL d   1      57.045   0.682  33.210  0.00  0.00     0.008 A 
ATOM      9  C   UNL d   1      55.983   0.620  32.248  0.00  0.00     0.002 A 
ATOM     10  C   UNL d   1      56.245   0.659  33.035  0.00  0.00     0.001 A 
ENDROOT
BRANCH   1  11
ATOM     11  C   UNL d   1      58.022   0.582  30.517  0.00  0.00     0.123 C 
BRANCH  11  12
ATOM     12  C   UNL d   1      58.180  -0.123  30.134  0.00  0.00     0.189 A 
ATOM     13  N   UNL d   1      58.595  -0.121  29.428  0.00  0.00    -0.265 N 
ATOM     14  C   UNL d   1      58.669  -0.901  29.175  0.00  0.00     0.197 A 
ATOM     15  C   UNL d   1      58.892   0.537  29.029  0.00  0.00     0.103 C 
ATOM     16  N   UNL d   1      58.298  -1.385  29.727  0.00  0.00    -0.122 NA
ATOM     17  N   UNL d   1      57.996  -0.900  30.320  0.00  0.00    -0.126 NA
BRANCH  14  18
ATOM     18  S   UNL d   1      59.047  -1.156  28.489  0.00  0.00    -0.074 SA
ATOM     19  C   UNL d   1      59.706  -1.652  28.532  0.00  0.00     0.077 C 
ENDBRANCH  14  18
ENDBRANCH  11  12
ENDBRANCH   1  11
TORSDOF 3
ENDMDL
