MODEL 1
REMARK VINA RESULT:      53.1      0.000      0.000
REMARK  3 active torsions:
REMARK  status: ('A' for Active; 'I' for Inactive)
REMARK    1  A    between atoms: C_8  and  C_6 
REMARK    2  A    between atoms: C_9  and  C_8 
REMARK       I    between atoms: N_10  and  C_9 
REMARK    3  A    between atoms: C_14  and  N_10 
ROOT
ATOM      1  C   UNL d   1      13.568  11.827  -3.140  0.00  0.00     0.085 A 
ATOM      2  C   UNL d   1      14.057  11.826  -1.568  0.00  0.00     0.094 A 
ATOM      3  C   UNL d   1      13.010  11.780  -2.537  0.00  0.00     0.021 A 
ATOM      4  C   UNL d   1      14.369  11.873  -2.963  0.00  0.00     0.021 A 
ATOM      5  C   UNL d   1      14.618  11.873  -2.179  0.00  0.00     0.026 A 
ATOM      6  C   UNL d   1      13.255  11.780  -1.751  0.00  0.00     0.026 A 
ATOM      7  O   UNL d   1      14.298  11.826  -0.796  0.00  0.00    -0.328 OA
ATOM      8  C   UNL d   1      14.543  11.826  -0.014  0.00  0.00     0.181 C 
ENDROOT
BRANCH   1   9
ATOM      9  N   UNL d   1      13.325  11.827  -3.930  0.00  0.00    -0.208 NA
ATOM     10  C   UNL d   1      13.015  12.515  -4.269  0.00  0.00     0.281 C 
ATOM     11  O   UNL d   1      12.774  12.509  -5.059  0.00  0.00    -0.265 OA
BRANCH  10  12
ATOM     12  C   UNL d   1      12.948  13.208  -3.814  0.00  0.00     0.086 C 
BRANCH  12  13
ATOM     13  C   UNL d   1      13.268  13.911  -4.100  0.00  0.00     0.144 A 
ATOM     14  N   UNL d   1      13.641  14.358  -3.519  0.00  0.00    -0.240 NA
ATOM     15  C   UNL d   1      14.016  15.081  -3.603  0.00  0.00     0.083 A 
ATOM     16  C   UNL d   1      14.117  15.544  -4.282  0.00  0.00     0.035 A 
ATOM     17  C   UNL d   1      14.320  15.342  -2.881  0.00  0.00     0.019 A 
ATOM     18  C   UNL d   1      13.810  15.280  -5.012  0.00  0.00     0.086 A 
ATOM     19  C   UNL d   1      14.517  16.265  -4.249  0.00  0.00     0.003 A 
ATOM     20  N   UNL d   1      13.397  14.583  -5.162  0.00  0.00    -0.207 NA
ATOM     21  C   UNL d   1      13.909  15.739  -5.691  0.00  0.00     0.019 A 
ATOM     22  C   UNL d   1      13.184  13.985  -4.656  0.00  0.00     0.297 A 
ATOM     23  O   UNL d   1      12.769  13.363  -4.998  0.00  0.00    -0.264 OA
ATOM     24  C   UNL d   1      14.311  16.460  -5.650  0.00  0.00     0.002 A 
ATOM     25  C   UNL d   1      14.614  16.721  -4.929  0.00  0.00     0.000 A 
ATOM     26  C   UNL d   1      14.824  16.529  -3.519  0.00  0.00     0.000 A 
ATOM     27  C   UNL d   1      14.728  16.073  -2.839  0.00  0.00     0.002 A 
ENDBRANCH  12  13
ENDBRANCH  10  12
ENDBRANCH   1   9
TORSDOF 3
ENDMDL
