MODEL 1
REMARK VINA RESULT:       8.7      0.000      0.000
REMARK  2 active torsions:
REMARK  status: ('A' for Active; 'I' for Inactive)
REMARK    1  A    between atoms: C_4  and  C_3 
REMARK    2  A    between atoms: S_11  and  C_6 
ROOT
ATOM      1  N   UNL d   1     -52.217  25.910  33.307  0.00  0.00    -0.146 NA
ATOM      2  N   UNL d   1     -51.745  26.589  33.307  0.00  0.00    -0.142 NA
ATOM      3  C   UNL d   1     -51.864  25.166  33.308  0.00  0.00     0.126 A 
ATOM      4  C   UNL d   1     -50.923  26.520  33.307  0.00  0.00     0.128 A 
ATOM      5  C   UNL d   1     -51.042  25.097  33.308  0.00  0.00     0.025 A 
ATOM      6  C   UNL d   1     -50.572  25.773  33.307  0.00  0.00     0.029 A 
ENDROOT
BRANCH   3   7
ATOM      7  C   UNL d   1     -52.325  24.489  33.309  0.00  0.00     0.119 A 
ATOM      8  O   UNL d   1     -53.148  24.467  33.312  0.00  0.00    -0.304 OA
ATOM      9  C   UNL d   1     -53.394  23.677  33.312  0.00  0.00     0.123 A 
ATOM     10  C   UNL d   1     -52.711  23.202  33.308  0.00  0.00     0.029 A 
ATOM     11  C   UNL d   1     -52.055  23.707  33.306  0.00  0.00     0.028 A 
ENDBRANCH   3   7
BRANCH   4  12
ATOM     12  S   UNL d   1     -50.450  27.199  33.306  0.00  0.00    -0.092 SA
ATOM     13  C   UNL d   1     -50.797  27.943  33.378  0.00  0.00     0.076 C 
ENDBRANCH   4  12
TORSDOF 2
ENDMDL
MODEL 2
REMARK VINA RESULT:      11.6      0.855      1.072
REMARK  2 active torsions:
REMARK  status: ('A' for Active; 'I' for Inactive)
REMARK    1  A    between atoms: C_4  and  C_3 
REMARK    2  A    between atoms: S_11  and  C_6 
ROOT
ATOM      1  N   UNL d   1     -50.964  25.342  33.459  0.00  0.00    -0.146 NA
ATOM      2  N   UNL d   1     -50.572  26.070  33.475  0.00  0.00    -0.142 NA
ATOM      3  C   UNL d   1     -51.782  25.319  33.374  0.00  0.00     0.126 A 
ATOM      4  C   UNL d   1     -51.001  26.771  33.407  0.00  0.00     0.128 A 
ATOM      5  C   UNL d   1     -52.211  26.021  33.306  0.00  0.00     0.025 A 
ATOM      6  C   UNL d   1     -51.821  26.745  33.322  0.00  0.00     0.029 A 
ENDROOT
BRANCH   3   7
ATOM      7  C   UNL d   1     -52.177  24.602  33.356  0.00  0.00     0.119 A 
ATOM      8  O   UNL d   1     -51.824  23.858  33.363  0.00  0.00    -0.304 OA
ATOM      9  C   UNL d   1     -52.418  23.282  33.340  0.00  0.00     0.123 A 
ATOM     10  C   UNL d   1     -53.149  23.676  33.319  0.00  0.00     0.029 A 
ATOM     11  C   UNL d   1     -52.997  24.490  33.329  0.00  0.00     0.028 A 
ENDBRANCH   3   7
BRANCH   4  12
ATOM     12  S   UNL d   1     -50.609  27.499  33.424  0.00  0.00    -0.092 SA
ATOM     13  C   UNL d   1     -49.785  27.526  33.386  0.00  0.00     0.076 C 
ENDBRANCH   4  12
TORSDOF 2
ENDMDL
