MODEL 1
REMARK VINA RESULT:      -8.2      0.000      0.000
REMARK  1 active torsions:
REMARK  status: ('A' for Active; 'I' for Inactive)
REMARK    1  A    between atoms: N_11  and  C_7 
ROOT
ATOM      1  C   UNL d   1     -46.576  13.299  23.104  0.00  0.00     0.201 A 
ATOM      2  C   UNL d   1     -47.369  13.062  23.115  0.00  0.00     0.141 A 
ATOM      3  N   UNL d   1     -45.982  12.756  23.281  0.00  0.00    -0.036 NA
ATOM      4  C   UNL d   1     -47.838  13.711  22.919  0.00  0.00     0.040 A 
ATOM      5  N   UNL d   1     -46.555  14.098  22.900  0.00  0.00    -0.225 NA
ATOM      6  N   UNL d   1     -47.571  12.278  23.304  0.00  0.00    -0.129 NA
ATOM      7  C   UNL d   1     -46.177  11.973  23.470  0.00  0.00     0.788 A 
ATOM      8  C   UNL d   1     -47.335  14.350  22.786  0.00  0.00     0.085 A 
ATOM      9  N   UNL d   1     -46.968  11.738  23.480  0.00  0.00     0.048 NA
ATOM     10  C   UNL d   1     -48.652  13.804  22.843  0.00  0.00     0.003 A 
ATOM     11  C   UNL d   1     -47.642  15.089  22.577  0.00  0.00     0.019 A 
ATOM     12  C   UNL d   1     -48.962  14.536  22.636  0.00  0.00     0.000 A 
ATOM     13  C   UNL d   1     -48.455  15.182  22.502  0.00  0.00     0.002 A 
ATOM     14  C   UNL d   1     -49.786  14.636  22.558  0.00  0.00     0.000 C 
ENDROOT
BRANCH   7  15
ATOM     15  N   UNL d   1     -45.575  11.434  23.646  0.00  0.00     0.069 NA
ATOM     16  N   UNL d   1     -45.653  10.615  23.698  0.00  0.00    -0.006 N 
ENDBRANCH   7  15
TORSDOF 1
ENDMDL
MODEL 2
REMARK VINA RESULT:      -8.2      0.844      1.735
REMARK  1 active torsions:
REMARK  status: ('A' for Active; 'I' for Inactive)
REMARK    1  A    between atoms: N_11  and  C_7 
ROOT
ATOM      1  C   UNL d   1     -46.743  11.694  23.420  0.00  0.00     0.201 A 
ATOM      2  C   UNL d   1     -46.370  12.404  23.217  0.00  0.00     0.141 A 
ATOM      3  N   UNL d   1     -46.292  11.023  23.580  0.00  0.00    -0.036 NA
ATOM      4  C   UNL d   1     -46.950  12.976  23.089  0.00  0.00     0.040 A 
ATOM      5  N   UNL d   1     -47.557  11.827  23.418  0.00  0.00    -0.225 NA
ATOM      6  N   UNL d   1     -45.541  12.446  23.173  0.00  0.00    -0.129 NA
ATOM      7  C   UNL d   1     -45.464  11.059  23.537  0.00  0.00     0.788 A 
ATOM      8  C   UNL d   1     -47.683  12.620  23.213  0.00  0.00     0.085 A 
ATOM      9  N   UNL d   1     -45.095  11.768  23.334  0.00  0.00     0.048 NA
ATOM     10  C   UNL d   1     -46.909  13.770  22.878  0.00  0.00     0.003 A 
ATOM     11  C   UNL d   1     -48.381  13.053  23.127  0.00  0.00     0.019 A 
ATOM     12  C   UNL d   1     -47.600  14.206  22.790  0.00  0.00     0.000 A 
ATOM     13  C   UNL d   1     -48.339  13.846  22.915  0.00  0.00     0.002 A 
ATOM     14  C   UNL d   1     -47.564  15.010  22.576  0.00  0.00     0.000 C 
ENDROOT
BRANCH   7  15
ATOM     15  N   UNL d   1     -45.019  10.381  23.698  0.00  0.00     0.069 NA
ATOM     16  N   UNL d   1     -44.205  10.297  23.595  0.00  0.00    -0.006 N 
ENDBRANCH   7  15
TORSDOF 1
ENDMDL
MODEL 3
REMARK VINA RESULT:      -7.9      1.963      3.570
REMARK  1 active torsions:
REMARK  status: ('A' for Active; 'I' for Inactive)
REMARK    1  A    between atoms: N_11  and  C_7 
ROOT
ATOM      1  C   UNL d   1     -48.254  14.716  22.771  0.00  0.00     0.201 A 
ATOM      2  C   UNL d   1     -48.417  13.955  23.052  0.00  0.00     0.141 A 
ATOM      3  N   UNL d   1     -48.862  15.266  22.693  0.00  0.00    -0.036 NA
ATOM      4  C   UNL d   1     -47.712  13.528  23.073  0.00  0.00     0.040 A 
ATOM      5  N   UNL d   1     -47.444  14.760  22.618  0.00  0.00    -0.225 NA
ATOM      6  N   UNL d   1     -49.194  13.741  23.257  0.00  0.00    -0.129 NA
ATOM      7  C   UNL d   1     -49.639  15.058  22.896  0.00  0.00     0.788 A 
ATOM      8  C   UNL d   1     -47.112  14.025  22.805  0.00  0.00     0.085 A 
ATOM      9  N   UNL d   1     -49.800  14.299  23.176  0.00  0.00     0.048 NA
ATOM     10  C   UNL d   1     -47.538  12.756  23.300  0.00  0.00     0.003 A 
ATOM     11  C   UNL d   1     -46.332  13.755  22.760  0.00  0.00     0.019 A 
ATOM     12  C   UNL d   1     -46.765  12.482  23.258  0.00  0.00     0.000 A 
ATOM     13  C   UNL d   1     -46.158  12.984  22.987  0.00  0.00     0.002 A 
ATOM     14  C   UNL d   1     -46.583  11.702  23.486  0.00  0.00     0.000 C 
ENDROOT
BRANCH   7  15
ATOM     15  N   UNL d   1     -50.244  15.615  22.815  0.00  0.00     0.069 NA
ATOM     16  N   UNL d   1     -50.732  15.896  23.417  0.00  0.00    -0.006 N 
ENDBRANCH   7  15
TORSDOF 1
ENDMDL
MODEL 4
REMARK VINA RESULT:      -7.8      1.551      2.411
REMARK  1 active torsions:
REMARK  status: ('A' for Active; 'I' for Inactive)
REMARK    1  A    between atoms: N_11  and  C_7 
ROOT
ATOM      1  C   UNL d   1     -47.604  12.295  23.314  0.00  0.00     0.201 A 
ATOM      2  C   UNL d   1     -48.130  12.916  23.163  0.00  0.00     0.141 A 
ATOM      3  N   UNL d   1     -46.794  12.412  23.228  0.00  0.00    -0.036 NA
ATOM      4  C   UNL d   1     -48.898  12.645  23.292  0.00  0.00     0.040 A 
ATOM      5  N   UNL d   1     -48.049  11.638  23.538  0.00  0.00    -0.225 NA
ATOM      6  N   UNL d   1     -47.845  13.659  22.923  0.00  0.00    -0.129 NA
ATOM      7  C   UNL d   1     -46.503  13.151  22.989  0.00  0.00     0.788 A 
ATOM      8  C   UNL d   1     -48.848  11.856  23.524  0.00  0.00     0.085 A 
ATOM      9  N   UNL d   1     -47.028  13.769  22.839  0.00  0.00     0.048 NA
ATOM     10  C   UNL d   1     -49.632  13.011  23.230  0.00  0.00     0.003 A 
ATOM     11  C   UNL d   1     -49.532  11.425  23.696  0.00  0.00     0.019 A 
ATOM     12  C   UNL d   1     -50.316  12.587  23.400  0.00  0.00     0.000 A 
ATOM     13  C   UNL d   1     -50.265  11.791  23.634  0.00  0.00     0.002 A 
ATOM     14  C   UNL d   1     -51.062  12.952  23.339  0.00  0.00     0.000 C 
ENDROOT
BRANCH   7  15
ATOM     15  N   UNL d   1     -45.688  13.260  22.905  0.00  0.00     0.069 NA
ATOM     16  N   UNL d   1     -45.276  13.331  22.194  0.00  0.00    -0.006 N 
ENDBRANCH   7  15
TORSDOF 1
ENDMDL
MODEL 5
REMARK VINA RESULT:      -7.8      1.399      2.152
REMARK  1 active torsions:
REMARK  status: ('A' for Active; 'I' for Inactive)
REMARK    1  A    between atoms: N_11  and  C_7 
ROOT
ATOM      1  C   UNL d   1     -47.992  11.618  23.572  0.00  0.00     0.201 A 
ATOM      2  C   UNL d   1     -48.107  12.396  23.314  0.00  0.00     0.141 A 
ATOM      3  N   UNL d   1     -47.228  11.335  23.698  0.00  0.00    -0.036 NA
ATOM      4  C   UNL d   1     -48.917  12.527  23.235  0.00  0.00     0.040 A 
ATOM      5  N   UNL d   1     -48.734  11.267  23.654  0.00  0.00    -0.225 NA
ATOM      6  N   UNL d   1     -47.456  12.895  23.180  0.00  0.00    -0.129 NA
ATOM      7  C   UNL d   1     -46.575  11.828  23.566  0.00  0.00     0.788 A 
ATOM      8  C   UNL d   1     -49.304  11.831  23.445  0.00  0.00     0.085 A 
ATOM      9  N   UNL d   1     -46.692  12.603  23.309  0.00  0.00     0.048 NA
ATOM     10  C   UNL d   1     -49.352  13.185  23.001  0.00  0.00     0.003 A 
ATOM     11  C   UNL d   1     -50.129  11.785  23.423  0.00  0.00     0.019 A 
ATOM     12  C   UNL d   1     -50.172  13.146  22.977  0.00  0.00     0.000 A 
ATOM     13  C   UNL d   1     -50.563  12.443  23.189  0.00  0.00     0.002 A 
ATOM     14  C   UNL d   1     -50.617  13.810  22.741  0.00  0.00     0.000 C 
ENDROOT
BRANCH   7  15
ATOM     15  N   UNL d   1     -45.812  11.537  23.695  0.00  0.00     0.069 NA
ATOM     16  N   UNL d   1     -45.586  10.744  23.694  0.00  0.00    -0.006 N 
ENDBRANCH   7  15
TORSDOF 1
ENDMDL
MODEL 6
REMARK VINA RESULT:      -6.9      1.737      3.735
REMARK  1 active torsions:
REMARK  status: ('A' for Active; 'I' for Inactive)
REMARK    1  A    between atoms: N_11  and  C_7 
ROOT
ATOM      1  C   UNL d   1     -48.860  13.273  23.269  0.00  0.00     0.201 A 
ATOM      2  C   UNL d   1     -48.039  13.369  23.236  0.00  0.00     0.141 A 
ATOM      3  N   UNL d   1     -49.356  13.920  23.150  0.00  0.00    -0.036 NA
ATOM      4  C   UNL d   1     -47.685  12.637  23.373  0.00  0.00     0.040 A 
ATOM      5  N   UNL d   1     -49.015  12.478  23.427  0.00  0.00    -0.225 NA
ATOM      6  N   UNL d   1     -47.709  14.117  23.083  0.00  0.00    -0.129 NA
ATOM      7  C   UNL d   1     -49.033  14.668  22.998  0.00  0.00     0.788 A 
ATOM      8  C   UNL d   1     -48.287  12.087  23.491  0.00  0.00     0.085 A 
ATOM      9  N   UNL d   1     -48.214  14.762  22.965  0.00  0.00     0.048 NA
ATOM     10  C   UNL d   1     -46.898  12.400  23.406  0.00  0.00     0.003 A 
ATOM     11  C   UNL d   1     -48.108  11.295  23.644  0.00  0.00     0.019 A 
ATOM     12  C   UNL d   1     -46.713  11.613  23.558  0.00  0.00     0.000 A 
ATOM     13  C   UNL d   1     -47.321  11.058  23.677  0.00  0.00     0.002 A 
ATOM     14  C   UNL d   1     -45.918  11.368  23.592  0.00  0.00     0.000 C 
ENDROOT
BRANCH   7  15
ATOM     15  N   UNL d   1     -49.537  15.313  22.880  0.00  0.00     0.069 NA
ATOM     16  N   UNL d   1     -49.942  15.495  22.185  0.00  0.00    -0.006 N 
ENDBRANCH   7  15
TORSDOF 1
ENDMDL
MODEL 7
REMARK VINA RESULT:      -6.2      8.124      8.546
REMARK  1 active torsions:
REMARK  status: ('A' for Active; 'I' for Inactive)
REMARK    1  A    between atoms: N_11  and  C_7 
ROOT
ATOM      1  C   UNL d   1     -40.633  15.430  18.901  0.00  0.00     0.201 A 
ATOM      2  C   UNL d   1     -40.434  14.660  19.130  0.00  0.00     0.141 A 
ATOM      3  N   UNL d   1     -40.881  15.579  18.131  0.00  0.00    -0.036 NA
ATOM      4  C   UNL d   1     -40.207  14.673  19.923  0.00  0.00     0.040 A 
ATOM      5  N   UNL d   1     -40.528  15.922  19.555  0.00  0.00    -0.225 NA
ATOM      6  N   UNL d   1     -40.484  14.034  18.586  0.00  0.00    -0.129 NA
ATOM      7  C   UNL d   1     -40.933  14.959  17.583  0.00  0.00     0.788 A 
ATOM      8  C   UNL d   1     -40.265  15.452  20.185  0.00  0.00     0.085 A 
ATOM      9  N   UNL d   1     -40.735  14.192  17.813  0.00  0.00     0.048 NA
ATOM     10  C   UNL d   1     -39.957  14.083  20.438  0.00  0.00     0.003 A 
ATOM     11  C   UNL d   1     -40.074  15.648  20.965  0.00  0.00     0.019 A 
ATOM     12  C   UNL d   1     -39.765  14.271  21.214  0.00  0.00     0.000 A 
ATOM     13  C   UNL d   1     -39.823  15.058  21.479  0.00  0.00     0.002 A 
ATOM     14  C   UNL d   1     -39.511  13.677  21.740  0.00  0.00     0.000 C 
ENDROOT
BRANCH   7  15
ATOM     15  N   UNL d   1     -41.183  15.117  16.811  0.00  0.00     0.069 NA
ATOM     16  N   UNL d   1     -41.679  15.732  16.575  0.00  0.00    -0.006 N 
ENDBRANCH   7  15
TORSDOF 1
ENDMDL
MODEL 8
REMARK VINA RESULT:      -5.7      8.133      8.918
REMARK  1 active torsions:
REMARK  status: ('A' for Active; 'I' for Inactive)
REMARK    1  A    between atoms: N_11  and  C_7 
ROOT
ATOM      1  C   UNL d   1     -39.843  15.267  18.096  0.00  0.00     0.201 A 
ATOM      2  C   UNL d   1     -40.075  14.563  18.463  0.00  0.00     0.141 A 
ATOM      3  N   UNL d   1     -39.505  15.248  17.345  0.00  0.00    -0.036 NA
ATOM      4  C   UNL d   1     -40.392  14.745  19.202  0.00  0.00     0.040 A 
ATOM      5  N   UNL d   1     -40.018  15.888  18.610  0.00  0.00    -0.225 NA
ATOM      6  N   UNL d   1     -39.968  13.833  18.078  0.00  0.00    -0.129 NA
ATOM      7  C   UNL d   1     -39.396  14.524  16.956  0.00  0.00     0.788 A 
ATOM      8  C   UNL d   1     -40.357  15.563  19.293  0.00  0.00     0.085 A 
ATOM      9  N   UNL d   1     -39.628  13.823  17.324  0.00  0.00     0.048 NA
ATOM     10  C   UNL d   1     -40.707  14.278  19.801  0.00  0.00     0.003 A 
ATOM     11  C   UNL d   1     -40.636  15.922  19.983  0.00  0.00     0.019 A 
ATOM     12  C   UNL d   1     -40.986  14.628  20.490  0.00  0.00     0.000 A 
ATOM     13  C   UNL d   1     -40.950  15.454  20.581  0.00  0.00     0.002 A 
ATOM     14  C   UNL d   1     -41.306  14.160  21.100  0.00  0.00     0.000 C 
ENDROOT
BRANCH   7  15
ATOM     15  N   UNL d   1     -39.056  14.513  16.203  0.00  0.00     0.069 NA
ATOM     16  N   UNL d   1     -38.480  13.988  15.935  0.00  0.00    -0.006 N 
ENDBRANCH   7  15
TORSDOF 1
ENDMDL
MODEL 9
REMARK VINA RESULT:      -5.3      8.058      8.595
REMARK  1 active torsions:
REMARK  status: ('A' for Active; 'I' for Inactive)
REMARK    1  A    between atoms: N_11  and  C_7 
ROOT
ATOM      1  C   UNL d   1     -39.513  14.309  19.498  0.00  0.00     0.201 A 
ATOM      2  C   UNL d   1     -40.134  14.841  19.370  0.00  0.00     0.141 A 
ATOM      3  N   UNL d   1     -39.268  14.141  20.266  0.00  0.00    -0.036 NA
ATOM      4  C   UNL d   1     -40.261  14.904  18.558  0.00  0.00     0.040 A 
ATOM      5  N   UNL d   1     -39.255  14.042  18.761  0.00  0.00    -0.225 NA
ATOM      6  N   UNL d   1     -40.513  15.207  20.013  0.00  0.00    -0.129 NA
ATOM      7  C   UNL d   1     -39.641  14.503  20.911  0.00  0.00     0.788 A 
ATOM      8  C   UNL d   1     -39.719  14.410  18.182  0.00  0.00     0.085 A 
ATOM      9  N   UNL d   1     -40.260  15.033  20.782  0.00  0.00     0.048 NA
ATOM     10  C   UNL d   1     -40.796  15.342  18.112  0.00  0.00     0.003 A 
ATOM     11  C   UNL d   1     -39.706  14.351  17.358  0.00  0.00     0.019 A 
ATOM     12  C   UNL d   1     -40.788  15.287  17.293  0.00  0.00     0.000 A 
ATOM     13  C   UNL d   1     -40.240  14.789  16.913  0.00  0.00     0.002 A 
ATOM     14  C   UNL d   1     -41.328  15.729  16.837  0.00  0.00     0.000 C 
ENDROOT
BRANCH   7  15
ATOM     15  N   UNL d   1     -39.388  14.328  21.679  0.00  0.00     0.069 NA
ATOM     16  N   UNL d   1     -39.553  13.640  22.102  0.00  0.00    -0.006 N 
ENDBRANCH   7  15
TORSDOF 1
ENDMDL
