MODEL 1
REMARK VINA RESULT:      30.6      0.000      0.000
REMARK  4 active torsions:
REMARK  status: ('A' for Active; 'I' for Inactive)
REMARK    1  A    between atoms: C_10  and  N_1 
REMARK    2  A    between atoms: C_14  and  C_10 
REMARK    3  A    between atoms: O_16  and  C_12 
REMARK    4  A    between atoms: C_19  and  O_16 
ROOT
ATOM      1  N   UNL d   1      46.627 -18.878  41.593  0.00  0.00    -0.260 N 
ATOM      2  C   UNL d   1      46.616 -18.353  42.194  0.00  0.00     0.174 A 
ATOM      3  C   UNL d   1      46.622 -19.676  41.532  0.00  0.00     0.348 A 
ATOM      4  O   UNL d   1      46.597 -18.405  42.994  0.00  0.00    -0.314 OA
ATOM      5  N   UNL d   1      46.606 -20.274  42.053  0.00  0.00    -0.216 NA
ATOM      6  C   UNL d   1      46.587 -20.329  42.856  0.00  0.00     0.137 A 
ATOM      7  C   UNL d   1      46.608 -19.494  42.204  0.00  0.00     0.079 A 
ATOM      8  C   UNL d   1      46.581 -19.015  43.513  0.00  0.00     0.116 A 
ATOM      9  C   UNL d   1      46.577 -19.805  43.454  0.00  0.00     0.025 A 
ATOM     10  O   UNL d   1      46.638 -19.923  40.781  0.00  0.00    -0.245 OA
ATOM     11  C   UNL d   1      46.566 -18.669  44.239  0.00  0.00     0.122 A 
ATOM     12  C   UNL d   1      46.624 -17.554  42.095  0.00  0.00     0.055 C 
ATOM     13  C   UNL d   1      46.558 -20.262  44.111  0.00  0.00    -0.000 A 
ATOM     14  C   UNL d   1      46.544 -19.916  44.833  0.00  0.00     0.002 A 
ATOM     15  C   UNL d   1      46.548 -19.118  44.897  0.00  0.00     0.027 A 
ENDROOT
BRANCH   1  16
ATOM     16  C   UNL d   1      46.647 -18.694  40.787  0.00  0.00     0.082 C 
BRANCH  16  17
ATOM     17  C   UNL d   1      45.980 -18.347  40.429  0.00  0.00     0.017 A 
ATOM     18  C   UNL d   1      45.233 -18.426  40.781  0.00  0.00     0.002 A 
ATOM     19  C   UNL d   1      44.567 -18.079  40.423  0.00  0.00     0.000 A 
ATOM     20  C   UNL d   1      44.650 -17.653  39.714  0.00  0.00     0.000 A 
ATOM     21  C   UNL d   1      45.405 -17.578  39.366  0.00  0.00     0.000 A 
ATOM     22  C   UNL d   1      46.063 -17.923  39.723  0.00  0.00     0.002 A 
ENDBRANCH  16  17
ENDBRANCH   1  16
BRANCH  11  23
ATOM     23  O   UNL d   1      46.570 -17.845  44.301  0.00  0.00    -0.303 OA
BRANCH  23  24
ATOM     24  C   UNL d   1      46.157 -17.477  44.913  0.00  0.00     0.123 C 
ATOM     25  C   UNL d   1      46.138 -16.648  44.954  0.00  0.00     0.029 C 
ENDBRANCH  23  24
ENDBRANCH  11  23
TORSDOF 4
ENDMDL
MODEL 2
REMARK VINA RESULT:      33.6      2.718      4.473
REMARK  4 active torsions:
REMARK  status: ('A' for Active; 'I' for Inactive)
REMARK    1  A    between atoms: C_10  and  N_1 
REMARK    2  A    between atoms: C_14  and  C_10 
REMARK    3  A    between atoms: O_16  and  C_12 
REMARK    4  A    between atoms: C_19  and  O_16 
ROOT
ATOM      1  N   UNL d   1      46.009 -16.269  44.098  0.00  0.00    -0.260 N 
ATOM      2  C   UNL d   1      46.045 -15.522  43.819  0.00  0.00     0.174 A 
ATOM      3  C   UNL d   1      45.493 -16.686  44.548  0.00  0.00     0.348 A 
ATOM      4  O   UNL d   1      45.579 -14.873  43.871  0.00  0.00    -0.314 OA
ATOM      5  N   UNL d   1      44.803 -16.520  44.900  0.00  0.00    -0.216 NA
ATOM      6  C   UNL d   1      44.333 -15.869  44.955  0.00  0.00     0.137 A 
ATOM      7  C   UNL d   1      45.256 -16.036  44.464  0.00  0.00     0.079 A 
ATOM      8  C   UNL d   1      44.881 -14.714  44.231  0.00  0.00     0.116 A 
ATOM      9  C   UNL d   1      44.370 -15.126  44.676  0.00  0.00     0.025 A 
ATOM     10  O   UNL d   1      45.729 -17.432  44.665  0.00  0.00    -0.245 OA
ATOM     11  C   UNL d   1      44.728 -13.944  44.056  0.00  0.00     0.122 A 
ATOM     12  C   UNL d   1      46.647 -15.241  43.364  0.00  0.00     0.055 C 
ATOM     13  C   UNL d   1      43.703 -14.781  44.953  0.00  0.00    -0.000 A 
ATOM     14  C   UNL d   1      43.552 -14.014  44.778  0.00  0.00     0.002 A 
ATOM     15  C   UNL d   1      44.066 -13.595  44.329  0.00  0.00     0.027 A 
ENDROOT
BRANCH   1  16
ATOM     16  C   UNL d   1      46.568 -16.865  43.971  0.00  0.00     0.082 C 
BRANCH  16  17
ATOM     17  C   UNL d   1      46.381 -17.503  43.470  0.00  0.00     0.017 A 
ATOM     18  C   UNL d   1      46.351 -18.273  43.776  0.00  0.00     0.002 A 
ATOM     19  C   UNL d   1      46.164 -18.912  43.275  0.00  0.00     0.000 A 
ATOM     20  C   UNL d   1      46.007 -18.776  42.470  0.00  0.00     0.000 A 
ATOM     21  C   UNL d   1      46.039 -17.998  42.170  0.00  0.00     0.000 A 
ATOM     22  C   UNL d   1      46.224 -17.368  42.669  0.00  0.00     0.002 A 
ENDBRANCH  16  17
ENDBRANCH   1  16
BRANCH  11  23
ATOM     23  O   UNL d   1      45.260 -13.514  43.592  0.00  0.00    -0.303 OA
BRANCH  23  24
ATOM     24  C   UNL d   1      45.095 -12.730  43.398  0.00  0.00     0.123 C 
ATOM     25  C   UNL d   1      45.534 -12.355  42.800  0.00  0.00     0.029 C 
ENDBRANCH  23  24
ENDBRANCH  11  23
TORSDOF 4
ENDMDL
