MODEL 1
REMARK VINA RESULT:      54.7      0.000      0.000
REMARK  3 active torsions:
REMARK  status: ('A' for Active; 'I' for Inactive)
REMARK    1  A    between atoms: N_6  and  C_1 
REMARK       I    between atoms: C_8  and  N_6 
REMARK       I    between atoms: C_11  and  N_7 
REMARK    2  A    between atoms: C_14  and  C_8 
REMARK    3  A    between atoms: O_20  and  C_19 
ROOT
ATOM      1  C   UNL d   1      14.523  13.973  -2.106  0.00  0.00     0.124 A 
ATOM      2  C   UNL d   1      14.919  13.872  -1.381  0.00  0.00     0.093 A 
ATOM      3  C   UNL d   1      14.891  15.184  -1.649  0.00  0.00     0.049 A 
ATOM      4  C   UNL d   1      15.144  14.622  -1.103  0.00  0.00     0.021 A 
ATOM      5  S   UNL d   1      14.508  14.795  -2.270  0.00  0.00    -0.066 SA
ATOM      6  N   UNL d   1      15.442  16.229  -0.837  0.00  0.00    -0.272 N 
ATOM      7  C   UNL d   1      15.042  15.997  -1.515  0.00  0.00     0.089 A 
ATOM      8  C   UNL d   1      15.059  13.147  -1.010  0.00  0.00     0.103 C 
ATOM      9  C   UNL d   1      15.596  17.033  -0.695  0.00  0.00     0.265 C 
ATOM     10  N   UNL d   1      15.197  12.435  -0.645  0.00  0.00    -0.191 NA
ATOM     11  C   UNL d   1      15.552  14.852  -0.412  0.00  0.00     0.020 A 
ATOM     12  C   UNL d   1      15.697  15.656  -0.285  0.00  0.00     0.083 A 
ATOM     13  O   UNL d   1      15.345  17.598  -1.238  0.00  0.00    -0.267 OA
ATOM     14  C   UNL d   1      15.996  17.265  -0.017  0.00  0.00     0.066 C 
ENDROOT
BRANCH   1  15
ATOM     15  N   UNL d   1      14.204  13.375  -2.579  0.00  0.00    -0.201 NA
ATOM     16  C   UNL d   1      13.884  13.560  -3.317  0.00  0.00     0.280 C 
ATOM     17  O   UNL d   1      13.878  14.337  -3.590  0.00  0.00    -0.265 OA
BRANCH  16  18
ATOM     18  C   UNL d   1      13.570  12.975  -3.780  0.00  0.00     0.060 A 
ATOM     19  C   UNL d   1      13.726  12.952  -4.589  0.00  0.00     0.029 A 
ATOM     20  C   UNL d   1      13.408  12.357  -5.060  0.00  0.00     0.094 A 
ATOM     21  C   UNL d   1      12.931  11.779  -4.726  0.00  0.00     0.024 A 
ATOM     22  C   UNL d   1      12.770  11.794  -3.917  0.00  0.00     0.002 A 
ATOM     23  C   UNL d   1      13.093  12.398  -3.439  0.00  0.00     0.005 A 
BRANCH  20  24
ATOM     24  O   UNL d   1      13.563  12.327  -5.889  0.00  0.00    -0.328 OA
ATOM     25  C   UNL d   1      13.183  11.782  -6.373  0.00  0.00     0.181 C 
ENDBRANCH  20  24
ENDBRANCH  16  18
ENDBRANCH   1  15
TORSDOF 3
ENDMDL
MODEL 2
REMARK VINA RESULT:      57.6      0.988      5.049
REMARK  3 active torsions:
REMARK  status: ('A' for Active; 'I' for Inactive)
REMARK    1  A    between atoms: N_6  and  C_1 
REMARK       I    between atoms: C_8  and  N_6 
REMARK       I    between atoms: C_11  and  N_7 
REMARK    2  A    between atoms: C_14  and  C_8 
REMARK    3  A    between atoms: O_20  and  C_19 
ROOT
ATOM      1  C   UNL d   1      14.062  13.680  -2.532  0.00  0.00     0.124 A 
ATOM      2  C   UNL d   1      13.941  12.856  -2.545  0.00  0.00     0.093 A 
ATOM      3  C   UNL d   1      13.651  13.328  -3.764  0.00  0.00     0.049 A 
ATOM      4  C   UNL d   1      13.688  12.644  -3.308  0.00  0.00     0.021 A 
ATOM      5  S   UNL d   1      13.879  13.971  -3.296  0.00  0.00    -0.066 SA
ATOM      6  N   UNL d   1      13.212  12.559  -4.891  0.00  0.00    -0.272 N 
ATOM      7  C   UNL d   1      13.410  13.286  -4.565  0.00  0.00     0.089 A 
ATOM      8  C   UNL d   1      14.057  12.346  -1.905  0.00  0.00     0.103 C 
ATOM      9  C   UNL d   1      12.972  12.506  -5.685  0.00  0.00     0.265 C 
ATOM     10  N   UNL d   1      14.170  11.844  -1.277  0.00  0.00    -0.191 NA
ATOM     11  C   UNL d   1      13.488  11.902  -3.633  0.00  0.00     0.020 A 
ATOM     12  C   UNL d   1      13.251  11.867  -4.425  0.00  0.00     0.083 A 
ATOM     13  O   UNL d   1      12.933  13.188  -6.145  0.00  0.00    -0.267 OA
ATOM     14  C   UNL d   1      12.774  11.780  -6.011  0.00  0.00     0.066 C 
ENDROOT
BRANCH   1  15
ATOM     15  N   UNL d   1      14.314  14.129  -1.886  0.00  0.00    -0.201 NA
ATOM     16  C   UNL d   1      14.610  14.890  -2.004  0.00  0.00     0.280 C 
ATOM     17  O   UNL d   1      14.658  15.210  -2.761  0.00  0.00    -0.265 OA
BRANCH  16  18
ATOM     18  C   UNL d   1      14.858  15.331  -1.371  0.00  0.00     0.060 A 
ATOM     19  C   UNL d   1      14.912  16.151  -1.427  0.00  0.00     0.029 A 
ATOM     20  C   UNL d   1      15.164  16.599  -0.784  0.00  0.00     0.094 A 
ATOM     21  C   UNL d   1      15.364  16.229  -0.079  0.00  0.00     0.024 A 
ATOM     22  C   UNL d   1      15.313  15.409  -0.014  0.00  0.00     0.002 A 
ATOM     23  C   UNL d   1      15.057  14.955  -0.667  0.00  0.00     0.005 A 
BRANCH  20  24
ATOM     24  O   UNL d   1      15.222  17.440  -0.834  0.00  0.00    -0.328 OA
ATOM     25  C   UNL d   1      15.870  17.840  -0.526  0.00  0.00     0.181 C 
ENDBRANCH  20  24
ENDBRANCH  16  18
ENDBRANCH   1  15
TORSDOF 3
ENDMDL
