MODEL 1
REMARK VINA RESULT:      62.7      0.000      0.000
REMARK  7 active torsions:
REMARK  status: ('A' for Active; 'I' for Inactive)
REMARK    1  A    between atoms: C_6  and  N_1 
REMARK    2  A    between atoms: C_9  and  C_5 
REMARK    3  A    between atoms: C_7  and  C_6 
REMARK       I    between atoms: N_10  and  C_7 
REMARK    4  A    between atoms: C_12  and  C_9 
REMARK    5  A    between atoms: C_15  and  N_10 
REMARK    6  A    between atoms: C_14  and  C_12 
REMARK    7  A    between atoms: C_17  and  C_14 
ROOT
ATOM      1  N   UNL d   1      61.100  48.862  50.832  0.00  0.00    -0.230 N 
ATOM      2  C   UNL d   1      61.075  49.251  51.550  0.00  0.00     0.299 A 
ATOM      3  C   UNL d   1      60.398  49.030  50.428  0.00  0.00     0.274 A 
ATOM      4  S   UNL d   1      60.365  49.656  51.590  0.00  0.00    -0.022 SA
ATOM      5  C   UNL d   1      59.948  49.521  50.900  0.00  0.00     0.090 A 
ATOM      6  O   UNL d   1      61.669  49.233  52.128  0.00  0.00    -0.259 OA
ATOM      7  O   UNL d   1      60.192  48.753  49.688  0.00  0.00    -0.266 OA
ENDROOT
BRANCH   1   8
ATOM      8  C   UNL d   1      61.718  48.387  50.564  0.00  0.00     0.149 C 
BRANCH   8   9
ATOM      9  C   UNL d   1      61.602  47.565  50.487  0.00  0.00     0.297 C 
ATOM     10  N   UNL d   1      61.718  47.199  49.756  0.00  0.00    -0.207 NA
ATOM     11  O   UNL d   1      61.371  47.122  51.150  0.00  0.00    -0.264 OA
BRANCH  10  12
ATOM     12  C   UNL d   1      61.603  46.385  49.683  0.00  0.00     0.085 A 
ATOM     13  C   UNL d   1      61.498  45.915  50.357  0.00  0.00     0.022 A 
ATOM     14  C   UNL d   1      61.383  45.102  50.284  0.00  0.00     0.044 A 
ATOM     15  C   UNL d   1      61.372  44.752  49.529  0.00  0.00     0.196 A 
ATOM     16  C   UNL d   1      61.476  45.223  48.852  0.00  0.00     0.044 A 
ATOM     17  O   UNL d   1      61.256  43.935  49.455  0.00  0.00    -0.287 OA
ATOM     18  C   UNL d   1      61.592  46.043  48.932  0.00  0.00     0.022 A 
ENDBRANCH  10  12
ENDBRANCH   8   9
ENDBRANCH   1   8
BRANCH   5  19
ATOM     19  C   UNL d   1      59.339  49.561  50.348  0.00  0.00     0.011 C 
BRANCH  19  20
ATOM     20  C   UNL d   1      58.558  49.677  50.605  0.00  0.00     0.001 C 
BRANCH  20  21
ATOM     21  C   UNL d   1      58.044  49.035  50.648  0.00  0.00     0.000 C 
BRANCH  21  22
ATOM     22  C   UNL d   1      57.375  49.007  50.167  0.00  0.00     0.000 A 
ATOM     23  C   UNL d   1      56.897  49.681  50.098  0.00  0.00     0.000 A 
ATOM     24  C   UNL d   1      56.222  49.659  49.615  0.00  0.00     0.000 A 
ATOM     25  C   UNL d   1      56.033  48.969  49.209  0.00  0.00     0.000 A 
ATOM     26  C   UNL d   1      56.518  48.299  49.284  0.00  0.00     0.000 A 
ATOM     27  C   UNL d   1      57.182  48.327  49.762  0.00  0.00     0.000 A 
ENDBRANCH  21  22
ENDBRANCH  20  21
ENDBRANCH  19  20
ENDBRANCH   5  19
TORSDOF 7
ENDMDL
MODEL 2
REMARK VINA RESULT:      64.8      1.264      4.710
REMARK  7 active torsions:
REMARK  status: ('A' for Active; 'I' for Inactive)
REMARK    1  A    between atoms: C_6  and  N_1 
REMARK    2  A    between atoms: C_9  and  C_5 
REMARK    3  A    between atoms: C_7  and  C_6 
REMARK       I    between atoms: N_10  and  C_7 
REMARK    4  A    between atoms: C_12  and  C_9 
REMARK    5  A    between atoms: C_15  and  N_10 
REMARK    6  A    between atoms: C_14  and  C_12 
REMARK    7  A    between atoms: C_17  and  C_14 
ROOT
ATOM      1  N   UNL d   1      60.888  49.069  50.765  0.00  0.00    -0.230 N 
ATOM      2  C   UNL d   1      60.997  49.040  51.574  0.00  0.00     0.299 A 
ATOM      3  C   UNL d   1      61.143  48.350  50.447  0.00  0.00     0.274 A 
ATOM      4  S   UNL d   1      61.317  48.309  51.755  0.00  0.00    -0.022 SA
ATOM      5  C   UNL d   1      61.407  47.883  51.063  0.00  0.00     0.090 A 
ATOM      6  O   UNL d   1      60.813  49.647  52.107  0.00  0.00    -0.259 OA
ATOM      7  O   UNL d   1      61.133  48.142  49.658  0.00  0.00    -0.266 OA
ENDROOT
BRANCH   1   8
ATOM      8  C   UNL d   1      60.577  49.707  50.344  0.00  0.00     0.149 C 
BRANCH   8   9
ATOM      9  C   UNL d   1      59.786  49.682  50.083  0.00  0.00     0.297 C 
ATOM     10  N   UNL d   1      59.171  49.655  50.632  0.00  0.00    -0.207 NA
ATOM     11  O   UNL d   1      59.625  49.683  49.268  0.00  0.00    -0.264 OA
BRANCH  10  12
ATOM     12  C   UNL d   1      58.388  49.630  50.371  0.00  0.00     0.085 A 
ATOM     13  C   UNL d   1      57.770  49.531  50.913  0.00  0.00     0.022 A 
ATOM     14  C   UNL d   1      56.988  49.506  50.653  0.00  0.00     0.044 A 
ATOM     15  C   UNL d   1      56.820  49.581  49.842  0.00  0.00     0.196 A 
ATOM     16  C   UNL d   1      57.440  49.681  49.297  0.00  0.00     0.044 A 
ATOM     17  O   UNL d   1      56.034  49.556  49.579  0.00  0.00    -0.287 OA
ATOM     18  C   UNL d   1      58.227  49.705  49.566  0.00  0.00     0.022 A 
ENDBRANCH  10  12
ENDBRANCH   8   9
ENDBRANCH   1   8
BRANCH   5  19
ATOM     19  C   UNL d   1      61.602  47.261  50.563  0.00  0.00     0.011 C 
BRANCH  19  20
ATOM     20  C   UNL d   1      61.130  46.577  50.553  0.00  0.00     0.001 C 
BRANCH  20  21
ATOM     21  C   UNL d   1      61.476  45.840  50.676  0.00  0.00     0.000 C 
BRANCH  21  22
ATOM     22  C   UNL d   1      61.399  45.247  50.109  0.00  0.00     0.000 A 
ATOM     23  C   UNL d   1      61.692  44.489  50.273  0.00  0.00     0.000 A 
ATOM     24  C   UNL d   1      61.616  43.887  49.705  0.00  0.00     0.000 A 
ATOM     25  C   UNL d   1      61.251  44.048  48.986  0.00  0.00     0.000 A 
ATOM     26  C   UNL d   1      60.961  44.811  48.831  0.00  0.00     0.000 A 
ATOM     27  C   UNL d   1      61.038  45.399  49.394  0.00  0.00     0.000 A 
ENDBRANCH  21  22
ENDBRANCH  20  21
ENDBRANCH  19  20
ENDBRANCH   5  19
TORSDOF 7
ENDMDL
