MODEL 1
REMARK VINA RESULT:      58.0      0.000      0.000
REMARK  5 active torsions:
REMARK  status: ('A' for Active; 'I' for Inactive)
REMARK    1  A    between atoms: N_3  and  C_1 
REMARK    2  A    between atoms: C_12  and  N_2 
REMARK       I    between atoms: C_5  and  N_3 
REMARK    3  A    between atoms: C_8  and  C_5 
REMARK    4  A    between atoms: C_15  and  C_12 
REMARK    5  A    between atoms: O_22  and  C_15 
ROOT
ATOM      1  C   UNL d   1     -54.835-102.173 -39.636  0.00  0.00     0.183 A 
ATOM      2  N   UNL d   1     -54.791-101.461 -40.048  0.00  0.00    -0.280 N 
ATOM      3  S   UNL d   1     -54.924-102.781 -40.188  0.00  0.00    -0.048 SA
ATOM      4  C   UNL d   1     -54.852-101.623 -40.859  0.00  0.00     0.072 A 
ATOM      5  C   UNL d   1     -54.935-102.442 -40.946  0.00  0.00     0.048 A 
ATOM      6  C   UNL d   1     -54.843-101.135 -41.526  0.00  0.00     0.018 A 
ATOM      7  C   UNL d   1     -55.008-102.774 -41.699  0.00  0.00     0.008 A 
ATOM      8  C   UNL d   1     -54.917-101.466 -42.279  0.00  0.00     0.002 A 
ATOM      9  C   UNL d   1     -55.000-102.286 -42.366  0.00  0.00     0.001 A 
ATOM     10  C   UNL d   1     -55.073-102.618 -43.111  0.00  0.00     0.000 C 
ENDROOT
BRANCH   1  11
ATOM     11  N   UNL d   1     -54.797-102.255 -38.813  0.00  0.00    -0.183 NA
ATOM     12  C   UNL d   1     -55.495-102.326 -38.378  0.00  0.00     0.287 C 
ATOM     13  O   UNL d   1     -56.225-102.313 -38.766  0.00  0.00    -0.265 OA
BRANCH  12  14
ATOM     14  C   UNL d   1     -55.465-102.408 -37.567  0.00  0.00     0.088 A 
ATOM     15  S   UNL d   1     -54.934-102.027 -37.052  0.00  0.00    -0.071 SA
ATOM     16  C   UNL d   1     -55.101-102.269 -36.292  0.00  0.00     0.087 A 
ATOM     17 CL   UNL d   1     -54.720-102.039 -35.602  0.00  0.00    -0.075 Cl
ATOM     18  C   UNL d   1     -55.726-102.791 -36.331  0.00  0.00     0.019 A 
ATOM     19  C   UNL d   1     -55.947-102.874 -37.112  0.00  0.00     0.013 A 
ENDBRANCH  12  14
ENDBRANCH   1  11
BRANCH   2  20
ATOM     20  C   UNL d   1     -54.715-100.641 -40.079  0.00  0.00     0.151 C 
BRANCH  20  21
ATOM     21  C   UNL d   1     -54.942-100.189 -39.436  0.00  0.00     0.314 C 
ATOM     22  O   UNL d   1     -54.885-100.504 -38.682  0.00  0.00    -0.257 OA
BRANCH  21  23
ATOM     23  O   UNL d   1     -55.221 -99.433 -39.543  0.00  0.00    -0.295 OA
ATOM     24  C   UNL d   1     -54.803 -98.902 -39.995  0.00  0.00     0.185 C 
ENDBRANCH  21  23
ENDBRANCH  20  21
ENDBRANCH   2  20
TORSDOF 5
ENDMDL
