MODEL 1
REMARK VINA RESULT:      -2.4      0.000      0.000
REMARK  4 active torsions:
REMARK  status: ('A' for Active; 'I' for Inactive)
REMARK    1  A    between atoms: N_3  and  C_1 
REMARK    2  A    between atoms: C_4  and  C_2 
REMARK       I    between atoms: C_6  and  N_3 
REMARK    3  A    between atoms: C_11  and  C_6 
REMARK    4  A    between atoms: C_13  and  C_11 
ROOT
ATOM      1  N   UNL d   1      31.548  17.632 -24.396  0.00  0.00    -0.201 NA
ATOM      2  C   UNL d   1      30.804  17.295 -24.430  0.00  0.00     0.280 C 
ATOM      3  O   UNL d   1      30.196  17.684 -24.845  0.00  0.00    -0.265 OA
ENDROOT
BRANCH   2   4
ATOM      4  C   UNL d   1      30.643  16.580 -24.065  0.00  0.00     0.062 C 
BRANCH   4   5
ATOM      5  C   UNL d   1      29.872  16.298 -24.013  0.00  0.00     0.005 A 
ATOM      6  C   UNL d   1      29.389  16.519 -23.376  0.00  0.00     0.003 A 
ATOM      7  C   UNL d   1      28.616  16.232 -23.330  0.00  0.00     0.030 A 
ATOM      8  C   UNL d   1      28.321  15.729 -23.912  0.00  0.00     0.140 A 
ATOM      9  C   UNL d   1      28.799  15.513 -24.538  0.00  0.00     0.030 A 
ATOM     10  F   UNL d   1      27.553  15.452 -23.854  0.00  0.00    -0.204 F 
ATOM     11  C   UNL d   1      29.574  15.790 -24.600  0.00  0.00     0.003 A 
ENDBRANCH   4   5
ENDBRANCH   2   4
BRANCH   1  12
ATOM     12  C   UNL d   1      32.147  17.243 -23.984  0.00  0.00     0.119 A 
ATOM     13  C   UNL d   1      32.723  17.606 -23.527  0.00  0.00     0.084 A 
ATOM     14  C   UNL d   1      33.209  17.015 -23.216  0.00  0.00     0.014 A 
ATOM     15  C   UNL d   1      32.925  16.281 -23.487  0.00  0.00     0.037 A 
ATOM     16  S   UNL d   1      32.270  16.436 -23.960  0.00  0.00    -0.067 SA
BRANCH  13  17
ATOM     17  C   UNL d   1      32.809  18.417 -23.395  0.00  0.00     0.299 C 
ATOM     18  O   UNL d   1      32.516  18.761 -22.710  0.00  0.00    -0.264 OA
ATOM     19  N   UNL d   1      33.195  18.882 -23.962  0.00  0.00    -0.102 N 
ENDBRANCH  13  17
ENDBRANCH   1  12
TORSDOF 4
ENDMDL
MODEL 2
REMARK VINA RESULT:      -2.2      1.383      1.653
REMARK  4 active torsions:
REMARK  status: ('A' for Active; 'I' for Inactive)
REMARK    1  A    between atoms: N_3  and  C_1 
REMARK    2  A    between atoms: C_4  and  C_2 
REMARK       I    between atoms: C_6  and  N_3 
REMARK    3  A    between atoms: C_11  and  C_6 
REMARK    4  A    between atoms: C_13  and  C_11 
ROOT
ATOM      1  N   UNL d   1      31.497  16.338 -24.728  0.00  0.00    -0.201 NA
ATOM      2  C   UNL d   1      30.684  16.361 -24.638  0.00  0.00     0.280 C 
ATOM      3  O   UNL d   1      30.206  15.857 -25.097  0.00  0.00    -0.265 OA
ENDROOT
BRANCH   2   4
ATOM      4  C   UNL d   1      30.328  16.872 -24.106  0.00  0.00     0.062 C 
BRANCH   4   5
ATOM      5  C   UNL d   1      29.545  16.765 -23.880  0.00  0.00     0.005 A 
ATOM      6  C   UNL d   1      28.961  17.297 -24.135  0.00  0.00     0.003 A 
ATOM      7  C   UNL d   1      28.177  17.184 -23.904  0.00  0.00     0.030 A 
ATOM      8  C   UNL d   1      27.969  16.549 -23.422  0.00  0.00     0.140 A 
ATOM      9  C   UNL d   1      28.546  16.026 -23.173  0.00  0.00     0.030 A 
ATOM     10  F   UNL d   1      27.187  16.449 -23.201  0.00  0.00    -0.204 F 
ATOM     11  C   UNL d   1      29.335  16.123 -23.394  0.00  0.00     0.003 A 
ENDBRANCH   4   5
ENDBRANCH   2   4
BRANCH   1  12
ATOM     12  C   UNL d   1      31.965  16.839 -24.271  0.00  0.00     0.119 A 
ATOM     13  C   UNL d   1      32.623  16.610 -23.838  0.00  0.00     0.084 A 
ATOM     14  C   UNL d   1      32.926  17.282 -23.465  0.00  0.00     0.014 A 
ATOM     15  C   UNL d   1      32.447  17.929 -23.674  0.00  0.00     0.037 A 
ATOM     16  S   UNL d   1      31.858  17.642 -24.171  0.00  0.00    -0.067 SA
BRANCH  13  17
ATOM     17  C   UNL d   1      32.934  15.847 -23.779  0.00  0.00     0.299 C 
ATOM     18  O   UNL d   1      32.939  15.455 -23.058  0.00  0.00    -0.264 OA
ATOM     19  N   UNL d   1      33.241  15.479 -24.455  0.00  0.00    -0.102 N 
ENDBRANCH  13  17
ENDBRANCH   1  12
TORSDOF 4
ENDMDL
MODEL 3
REMARK VINA RESULT:      -1.5      3.574      5.035
REMARK  4 active torsions:
REMARK  status: ('A' for Active; 'I' for Inactive)
REMARK    1  A    between atoms: N_3  and  C_1 
REMARK    2  A    between atoms: C_4  and  C_2 
REMARK       I    between atoms: C_6  and  N_3 
REMARK    3  A    between atoms: C_11  and  C_6 
REMARK    4  A    between atoms: C_13  and  C_11 
ROOT
ATOM      1  N   UNL d   1      32.997  20.943 -21.323  0.00  0.00    -0.201 NA
ATOM      2  C   UNL d   1      32.994  20.204 -21.675  0.00  0.00     0.280 C 
ATOM      3  O   UNL d   1      32.986  19.523 -21.197  0.00  0.00    -0.265 OA
ENDROOT
BRANCH   2   4
ATOM      4  C   UNL d   1      32.999  20.120 -22.489  0.00  0.00     0.062 C 
BRANCH   4   5
ATOM      5  C   UNL d   1      32.915  19.379 -22.836  0.00  0.00     0.005 A 
ATOM      6  C   UNL d   1      32.507  19.298 -23.554  0.00  0.00     0.003 A 
ATOM      7  C   UNL d   1      32.428  18.551 -23.897  0.00  0.00     0.030 A 
ATOM      8  C   UNL d   1      32.750  17.886 -23.532  0.00  0.00     0.140 A 
ATOM      9  C   UNL d   1      33.152  17.969 -22.825  0.00  0.00     0.030 A 
ATOM     10  F   UNL d   1      32.663  17.152 -23.883  0.00  0.00    -0.204 F 
ATOM     11  C   UNL d   1      33.241  18.707 -22.468  0.00  0.00     0.003 A 
ENDBRANCH   4   5
ENDBRANCH   2   4
BRANCH   1  12
ATOM     12  C   UNL d   1      33.004  21.615 -21.801  0.00  0.00     0.119 A 
ATOM     13  C   UNL d   1      32.773  22.366 -21.567  0.00  0.00     0.084 A 
ATOM     14  C   UNL d   1      32.868  22.872 -22.213  0.00  0.00     0.014 A 
ATOM     15  C   UNL d   1      33.161  22.423 -22.849  0.00  0.00     0.037 A 
ATOM     16  S   UNL d   1      33.241  21.650 -22.581  0.00  0.00    -0.067 SA
BRANCH  13  17
ATOM     17  C   UNL d   1      32.494  22.586 -20.821  0.00  0.00     0.299 C 
ATOM     18  O   UNL d   1      31.715  22.437 -20.608  0.00  0.00    -0.264 OA
ATOM     19  N   UNL d   1      33.006  22.960 -20.288  0.00  0.00    -0.102 N 
ENDBRANCH  13  17
ENDBRANCH   1  12
TORSDOF 4
ENDMDL
MODEL 4
REMARK VINA RESULT:      -1.5      2.308      3.981
REMARK  4 active torsions:
REMARK  status: ('A' for Active; 'I' for Inactive)
REMARK    1  A    between atoms: N_3  and  C_1 
REMARK    2  A    between atoms: C_4  and  C_2 
REMARK       I    between atoms: C_6  and  N_3 
REMARK    3  A    between atoms: C_11  and  C_6 
REMARK    4  A    between atoms: C_13  and  C_11 
ROOT
ATOM      1  N   UNL d   1      31.526  17.332 -24.700  0.00  0.00    -0.201 NA
ATOM      2  C   UNL d   1      31.875  18.048 -24.514  0.00  0.00     0.280 C 
ATOM      3  O   UNL d   1      31.600  18.744 -24.877  0.00  0.00    -0.265 OA
ENDROOT
BRANCH   2   4
ATOM      4  C   UNL d   1      32.490  18.095 -23.976  0.00  0.00     0.062 C 
BRANCH   4   5
ATOM      5  C   UNL d   1      32.678  18.808 -23.612  0.00  0.00     0.005 A 
ATOM      6  C   UNL d   1      32.495  18.929 -22.812  0.00  0.00     0.003 A 
ATOM      7  C   UNL d   1      32.687  19.647 -22.453  0.00  0.00     0.030 A 
ATOM      8  C   UNL d   1      33.057  20.245 -22.883  0.00  0.00     0.140 A 
ATOM      9  C   UNL d   1      33.236  20.123 -23.671  0.00  0.00     0.030 A 
ATOM     10  F   UNL d   1      33.241  20.952 -22.514  0.00  0.00    -0.204 F 
ATOM     11  C   UNL d   1      33.052  19.411 -24.046  0.00  0.00     0.003 A 
ENDBRANCH   4   5
ENDBRANCH   2   4
BRANCH   1  12
ATOM     12  C   UNL d   1      31.802  16.645 -24.338  0.00  0.00     0.119 A 
ATOM     13  C   UNL d   1      31.332  16.027 -24.071  0.00  0.00     0.084 A 
ATOM     14  C   UNL d   1      31.829  15.453 -23.746  0.00  0.00     0.014 A 
ATOM     15  C   UNL d   1      32.613  15.724 -23.816  0.00  0.00     0.037 A 
ATOM     16  S   UNL d   1      32.582  16.460 -24.182  0.00  0.00    -0.067 SA
BRANCH  13  17
ATOM     17  C   UNL d   1      30.509  15.980 -24.115  0.00  0.00     0.299 C 
ATOM     18  O   UNL d   1      30.043  16.245 -23.493  0.00  0.00    -0.264 OA
ATOM     19  N   UNL d   1      30.155  15.661 -24.793  0.00  0.00    -0.102 N 
ENDBRANCH  13  17
ENDBRANCH   1  12
TORSDOF 4
ENDMDL
MODEL 5
REMARK VINA RESULT:      -1.4      2.343      4.079
REMARK  4 active torsions:
REMARK  status: ('A' for Active; 'I' for Inactive)
REMARK    1  A    between atoms: N_3  and  C_1 
REMARK    2  A    between atoms: C_4  and  C_2 
REMARK       I    between atoms: C_6  and  N_3 
REMARK    3  A    between atoms: C_11  and  C_6 
REMARK    4  A    between atoms: C_13  and  C_11 
ROOT
ATOM      1  N   UNL d   1      29.885  15.928 -23.270  0.00  0.00    -0.201 NA
ATOM      2  C   UNL d   1      30.617  16.241 -23.458  0.00  0.00     0.280 C 
ATOM      3  O   UNL d   1      31.176  16.367 -22.855  0.00  0.00    -0.265 OA
ENDROOT
BRANCH   2   4
ATOM      4  C   UNL d   1      30.812  16.434 -24.229  0.00  0.00     0.062 C 
BRANCH   4   5
ATOM      5  C   UNL d   1      31.417  16.967 -24.390  0.00  0.00     0.005 A 
ATOM      6  C   UNL d   1      32.196  16.698 -24.482  0.00  0.00     0.003 A 
ATOM      7  C   UNL d   1      32.799  17.239 -24.643  0.00  0.00     0.030 A 
ATOM      8  C   UNL d   1      32.633  18.043 -24.713  0.00  0.00     0.140 A 
ATOM      9  C   UNL d   1      31.864  18.305 -24.621  0.00  0.00     0.030 A 
ATOM     10  F   UNL d   1      33.240  18.568 -24.872  0.00  0.00    -0.204 F 
ATOM     11  C   UNL d   1      31.249  17.779 -24.460  0.00  0.00     0.003 A 
ENDBRANCH   4   5
ENDBRANCH   2   4
BRANCH   1  12
ATOM     12  C   UNL d   1      29.335  15.804 -23.870  0.00  0.00     0.119 A 
ATOM     13  C   UNL d   1      28.538  15.996 -23.831  0.00  0.00     0.084 A 
ATOM     14  C   UNL d   1      28.190  15.780 -24.549  0.00  0.00     0.014 A 
ATOM     15  C   UNL d   1      28.783  15.453 -25.032  0.00  0.00     0.037 A 
ATOM     16  S   UNL d   1      29.484  15.473 -24.602  0.00  0.00    -0.067 SA
BRANCH  13  17
ATOM     17  C   UNL d   1      28.145  16.343 -23.193  0.00  0.00     0.299 C 
ATOM     18  O   UNL d   1      27.923  17.133 -23.221  0.00  0.00    -0.264 OA
ATOM     19  N   UNL d   1      27.975  15.887 -22.522  0.00  0.00    -0.102 N 
ENDBRANCH  13  17
ENDBRANCH   1  12
TORSDOF 4
ENDMDL
MODEL 6
REMARK VINA RESULT:      -0.3      3.229      4.159
REMARK  4 active torsions:
REMARK  status: ('A' for Active; 'I' for Inactive)
REMARK    1  A    between atoms: N_3  and  C_1 
REMARK    2  A    between atoms: C_4  and  C_2 
REMARK       I    between atoms: C_6  and  N_3 
REMARK    3  A    between atoms: C_11  and  C_6 
REMARK    4  A    between atoms: C_13  and  C_11 
ROOT
ATOM      1  N   UNL d   1      32.965  19.567 -21.927  0.00  0.00    -0.201 NA
ATOM      2  C   UNL d   1      32.993  18.897 -22.396  0.00  0.00     0.280 C 
ATOM      3  O   UNL d   1      32.925  18.146 -22.043  0.00  0.00    -0.265 OA
ENDROOT
BRANCH   2   4
ATOM      4  C   UNL d   1      33.088  18.949 -23.208  0.00  0.00     0.062 C 
BRANCH   4   5
ATOM      5  C   UNL d   1      33.059  18.275 -23.679  0.00  0.00     0.005 A 
ATOM      6  C   UNL d   1      33.175  17.526 -23.343  0.00  0.00     0.003 A 
ATOM      7  C   UNL d   1      33.145  16.854 -23.822  0.00  0.00     0.030 A 
ATOM      8  C   UNL d   1      33.000  16.922 -24.630  0.00  0.00     0.140 A 
ATOM      9  C   UNL d   1      32.885  17.661 -24.958  0.00  0.00     0.030 A 
ATOM     10  F   UNL d   1      32.972  16.247 -25.092  0.00  0.00    -0.204 F 
ATOM     11  C   UNL d   1      32.912  18.344 -24.495  0.00  0.00     0.003 A 
ENDBRANCH   4   5
ENDBRANCH   2   4
BRANCH   1  12
ATOM     12  C   UNL d   1      33.034  20.308 -22.281  0.00  0.00     0.119 A 
ATOM     13  C   UNL d   1      32.908  21.027 -21.907  0.00  0.00     0.084 A 
ATOM     14  C   UNL d   1      33.035  21.626 -22.460  0.00  0.00     0.014 A 
ATOM     15  C   UNL d   1      33.241  21.268 -23.183  0.00  0.00     0.037 A 
ATOM     16  S   UNL d   1      33.236  20.455 -23.058  0.00  0.00    -0.067 SA
BRANCH  13  17
ATOM     17  C   UNL d   1      32.693  21.140 -21.117  0.00  0.00     0.299 C 
ATOM     18  O   UNL d   1      33.237  21.014 -20.515  0.00  0.00    -0.264 OA
ATOM     19  N   UNL d   1      31.922  21.383 -20.936  0.00  0.00    -0.102 N 
ENDBRANCH  13  17
ENDBRANCH   1  12
TORSDOF 4
ENDMDL
