MODEL 1
REMARK VINA RESULT:      -3.9      0.000      0.000
REMARK  1 active torsions:
REMARK  status: ('A' for Active; 'I' for Inactive)
REMARK    1  A    between atoms: C_7  and  N_2 
ROOT
ATOM      1  C   UNL d   1      57.079   0.370  33.993  0.00  0.00     0.304 A 
ATOM      2  N   UNL d   1      56.598   0.275  33.308  0.00  0.00    -0.272 N 
ATOM      3  C   UNL d   1      56.579   0.543  34.647  0.00  0.00     0.253 A 
ATOM      4  C   UNL d   1      55.825   0.385  33.523  0.00  0.00     0.070 A 
ATOM      5  C   UNL d   1      55.814   0.546  34.332  0.00  0.00     0.060 A 
ATOM      6  O   UNL d   1      57.933   0.301  34.019  0.00  0.00    -0.263 OA
ATOM      7  O   UNL d   1      56.762   0.682  35.425  0.00  0.00    -0.281 OA
ATOM      8  C   UNL d   1      55.169   0.365  33.138  0.00  0.00     0.018 A 
ATOM      9  C   UNL d   1      55.146   0.677  34.701  0.00  0.00     0.005 A 
ATOM     10  C   UNL d   1      54.419   0.497  33.480  0.00  0.00     0.002 A 
ATOM     11  C   UNL d   1      54.408   0.659  34.289  0.00  0.00     0.000 A 
ENDROOT
BRANCH   2  12
ATOM     12  C   UNL d   1      56.819   0.105  32.545  0.00  0.00     0.067 A 
ATOM     13  C   UNL d   1      57.137   0.678  32.059  0.00  0.00     0.018 A 
ATOM     14  C   UNL d   1      57.359   0.494  31.284  0.00  0.00     0.002 A 
ATOM     15  C   UNL d   1      57.259  -0.264  31.007  0.00  0.00     0.000 A 
ATOM     16  C   UNL d   1      56.936  -0.851  31.497  0.00  0.00     0.002 A 
ATOM     17  C   UNL d   1      56.716  -0.667  32.267  0.00  0.00     0.018 A 
ENDBRANCH   2  12
TORSDOF 1
ENDMDL
MODEL 2
REMARK VINA RESULT:      -3.6      1.391      3.261
REMARK  1 active torsions:
REMARK  status: ('A' for Active; 'I' for Inactive)
REMARK    1  A    between atoms: C_7  and  N_2 
ROOT
ATOM      1  C   UNL d   1      55.808  -1.397  32.887  0.00  0.00     0.304 A 
ATOM      2  N   UNL d   1      55.907  -0.587  33.093  0.00  0.00    -0.272 N 
ATOM      3  C   UNL d   1      56.276  -1.557  32.205  0.00  0.00     0.253 A 
ATOM      4  C   UNL d   1      56.417  -0.250  32.562  0.00  0.00     0.070 A 
ATOM      5  C   UNL d   1      56.640  -0.836  32.026  0.00  0.00     0.060 A 
ATOM      6  O   UNL d   1      55.315  -1.963  33.300  0.00  0.00    -0.263 OA
ATOM      7  O   UNL d   1      56.376  -2.245  31.787  0.00  0.00    -0.281 OA
ATOM      8  C   UNL d   1      56.699   0.453  32.483  0.00  0.00     0.018 A 
ATOM      9  C   UNL d   1      57.129  -0.680  31.447  0.00  0.00     0.005 A 
ATOM     10  C   UNL d   1      57.229   0.682  31.881  0.00  0.00     0.002 A 
ATOM     11  C   UNL d   1      57.452   0.096  31.345  0.00  0.00     0.000 A 
ENDROOT
BRANCH   2  12
ATOM     12  C   UNL d   1      55.574  -0.168  33.705  0.00  0.00     0.067 A 
ATOM     13  C   UNL d   1      55.948  -0.108  34.428  0.00  0.00     0.018 A 
ATOM     14  C   UNL d   1      55.601   0.320  35.044  0.00  0.00     0.002 A 
ATOM     15  C   UNL d   1      54.882   0.682  34.926  0.00  0.00     0.000 A 
ATOM     16  C   UNL d   1      54.497   0.624  34.192  0.00  0.00     0.002 A 
ATOM     17  C   UNL d   1      54.844   0.198  33.581  0.00  0.00     0.018 A 
ENDBRANCH   2  12
TORSDOF 1
ENDMDL
MODEL 3
REMARK VINA RESULT:      -3.6      1.551      1.966
REMARK  1 active torsions:
REMARK  status: ('A' for Active; 'I' for Inactive)
REMARK    1  A    between atoms: C_7  and  N_2 
ROOT
ATOM      1  C   UNL d   1      56.376  -1.401  32.225  0.00  0.00     0.304 A 
ATOM      2  N   UNL d   1      56.586  -0.588  32.282  0.00  0.00    -0.272 N 
ATOM      3  C   UNL d   1      55.786  -1.564  32.804  0.00  0.00     0.253 A 
ATOM      4  C   UNL d   1      56.147  -0.251  32.872  0.00  0.00     0.070 A 
ATOM      5  C   UNL d   1      55.664  -0.841  33.188  0.00  0.00     0.060 A 
ATOM      6  O   UNL d   1      56.705  -1.968  31.672  0.00  0.00    -0.263 OA
ATOM      7  O   UNL d   1      55.400  -2.255  32.980  0.00  0.00    -0.281 OA
ATOM      8  C   UNL d   1      56.110   0.453  33.158  0.00  0.00     0.018 A 
ATOM      9  C   UNL d   1      55.176  -0.686  33.768  0.00  0.00     0.005 A 
ATOM     10  C   UNL d   1      55.605   0.681  33.782  0.00  0.00     0.002 A 
ATOM     11  C   UNL d   1      55.122   0.091  34.098  0.00  0.00     0.000 A 
ENDROOT
BRANCH   2  12
ATOM     12  C   UNL d   1      57.127  -0.167  31.845  0.00  0.00     0.067 A 
ATOM     13  C   UNL d   1      56.945   0.109  31.099  0.00  0.00     0.018 A 
ATOM     14  C   UNL d   1      57.503   0.536  30.662  0.00  0.00     0.002 A 
ATOM     15  C   UNL d   1      58.236   0.682  30.983  0.00  0.00     0.000 A 
ATOM     16  C   UNL d   1      58.427   0.404  31.741  0.00  0.00     0.002 A 
ATOM     17  C   UNL d   1      57.872  -0.020  32.173  0.00  0.00     0.018 A 
ENDBRANCH   2  12
TORSDOF 1
ENDMDL
MODEL 4
REMARK VINA RESULT:      -3.4      0.888      1.418
REMARK  1 active torsions:
REMARK  status: ('A' for Active; 'I' for Inactive)
REMARK    1  A    between atoms: C_7  and  N_2 
ROOT
ATOM      1  C   UNL d   1      57.814   0.423  32.943  0.00  0.00     0.304 A 
ATOM      2  N   UNL d   1      57.292   0.134  32.348  0.00  0.00    -0.272 N 
ATOM      3  C   UNL d   1      57.395   0.448  33.674  0.00  0.00     0.253 A 
ATOM      4  C   UNL d   1      56.574  -0.015  32.690  0.00  0.00     0.070 A 
ATOM      5  C   UNL d   1      56.636   0.174  33.491  0.00  0.00     0.060 A 
ATOM      6  O   UNL d   1      58.632   0.651  32.826  0.00  0.00    -0.263 OA
ATOM      7  O   UNL d   1      57.641   0.681  34.411  0.00  0.00    -0.281 OA
ATOM      8  C   UNL d   1      55.912  -0.278  32.420  0.00  0.00     0.018 A 
ATOM      9  C   UNL d   1      56.033   0.089  33.967  0.00  0.00     0.005 A 
ATOM     10  C   UNL d   1      55.228  -0.391  32.884  0.00  0.00     0.002 A 
ATOM     11  C   UNL d   1      55.290  -0.201  33.684  0.00  0.00     0.000 A 
ENDROOT
BRANCH   2  12
ATOM     12  C   UNL d   1      57.434   0.010  31.558  0.00  0.00     0.067 A 
ATOM     13  C   UNL d   1      57.560  -0.741  31.264  0.00  0.00     0.018 A 
ATOM     14  C   UNL d   1      57.704  -0.857  30.458  0.00  0.00     0.002 A 
ATOM     15  C   UNL d   1      57.719  -0.217  29.958  0.00  0.00     0.000 A 
ATOM     16  C   UNL d   1      57.593   0.550  30.251  0.00  0.00     0.002 A 
ATOM     17  C   UNL d   1      57.450   0.663  31.051  0.00  0.00     0.018 A 
ENDBRANCH   2  12
TORSDOF 1
ENDMDL
MODEL 5
REMARK VINA RESULT:      -3.3      1.084      3.060
REMARK  1 active torsions:
REMARK  status: ('A' for Active; 'I' for Inactive)
REMARK    1  A    between atoms: C_7  and  N_2 
ROOT
ATOM      1  C   UNL d   1      57.962   0.344  32.942  0.00  0.00     0.304 A 
ATOM      2  N   UNL d   1      57.237   0.244  32.525  0.00  0.00    -0.272 N 
ATOM      3  C   UNL d   1      58.565   0.533  32.384  0.00  0.00     0.253 A 
ATOM      4  C   UNL d   1      57.377   0.365  31.737  0.00  0.00     0.070 A 
ATOM      5  C   UNL d   1      58.179   0.539  31.652  0.00  0.00     0.060 A 
ATOM      6  O   UNL d   1      58.069   0.268  33.788  0.00  0.00    -0.263 OA
ATOM      7  O   UNL d   1      59.354   0.681  32.496  0.00  0.00    -0.281 OA
ATOM      8  C   UNL d   1      56.933   0.346  31.119  0.00  0.00     0.018 A 
ATOM      9  C   UNL d   1      58.483   0.682  30.955  0.00  0.00     0.005 A 
ATOM     10  C   UNL d   1      57.202   0.491  30.342  0.00  0.00     0.002 A 
ATOM     11  C   UNL d   1      58.004   0.665  30.257  0.00  0.00     0.000 A 
ENDROOT
BRANCH   2  12
ATOM     12  C   UNL d   1      56.500   0.060  32.814  0.00  0.00     0.067 A 
ATOM     13  C   UNL d   1      56.264  -0.716  32.905  0.00  0.00     0.018 A 
ATOM     14  C   UNL d   1      55.512  -0.893  33.200  0.00  0.00     0.002 A 
ATOM     15  C   UNL d   1      55.008  -0.288  33.400  0.00  0.00     0.000 A 
ATOM     16  C   UNL d   1      55.242   0.503  33.310  0.00  0.00     0.002 A 
ATOM     17  C   UNL d   1      55.989   0.678  33.017  0.00  0.00     0.018 A 
ENDBRANCH   2  12
TORSDOF 1
ENDMDL
MODEL 6
REMARK VINA RESULT:      -2.9      9.770     10.745
REMARK  1 active torsions:
REMARK  status: ('A' for Active; 'I' for Inactive)
REMARK    1  A    between atoms: C_7  and  N_2 
ROOT
ATOM      1  C   UNL d   1      58.649  -9.487  33.785  0.00  0.00     0.304 A 
ATOM      2  N   UNL d   1      59.436  -9.389  34.067  0.00  0.00    -0.272 N 
ATOM      3  C   UNL d   1      58.683  -9.672  32.963  0.00  0.00     0.253 A 
ATOM      4  C   UNL d   1      59.945  -9.506  33.449  0.00  0.00     0.070 A 
ATOM      5  C   UNL d   1      59.490  -9.677  32.783  0.00  0.00     0.060 A 
ATOM      6  O   UNL d   1      57.935  -9.412  34.253  0.00  0.00    -0.263 OA
ATOM      7  O   UNL d   1      58.086  -9.818  32.434  0.00  0.00    -0.281 OA
ATOM      8  C   UNL d   1      60.703  -9.487  33.387  0.00  0.00     0.018 A 
ATOM      9  C   UNL d   1      59.824  -9.818  32.099  0.00  0.00     0.005 A 
ATOM     10  C   UNL d   1      61.121  -9.629  32.678  0.00  0.00     0.002 A 
ATOM     11  C   UNL d   1      60.666  -9.800  32.012  0.00  0.00     0.000 A 
ENDROOT
BRANCH   2  12
ATOM     12  C   UNL d   1      59.693  -9.207  34.817  0.00  0.00     0.067 A 
ATOM     13  C   UNL d   1      59.888  -9.794  35.349  0.00  0.00     0.018 A 
ATOM     14  C   UNL d   1      60.149  -9.599  36.110  0.00  0.00     0.002 A 
ATOM     15  C   UNL d   1      60.210  -8.817  36.324  0.00  0.00     0.000 A 
ATOM     16  C   UNL d   1      60.012  -8.216  35.787  0.00  0.00     0.002 A 
ATOM     17  C   UNL d   1      59.754  -8.411  35.032  0.00  0.00     0.018 A 
ENDBRANCH   2  12
TORSDOF 1
ENDMDL
MODEL 7
REMARK VINA RESULT:      -2.8      4.627      6.059
REMARK  1 active torsions:
REMARK  status: ('A' for Active; 'I' for Inactive)
REMARK    1  A    between atoms: C_7  and  N_2 
ROOT
ATOM      1  C   UNL d   1      60.318  -1.734  29.315  0.00  0.00     0.304 A 
ATOM      2  N   UNL d   1      59.514  -1.573  29.120  0.00  0.00    -0.272 N 
ATOM      3  C   UNL d   1      60.458  -2.557  29.203  0.00  0.00     0.253 A 
ATOM      4  C   UNL d   1      59.163  -2.267  28.895  0.00  0.00     0.070 A 
ATOM      5  C   UNL d   1      59.733  -2.861  28.945  0.00  0.00     0.060 A 
ATOM      6  O   UNL d   1      60.894  -1.158  29.581  0.00  0.00    -0.263 OA
ATOM      7  O   UNL d   1      61.133  -2.993  29.312  0.00  0.00    -0.281 OA
ATOM      8  C   UNL d   1      58.460  -2.445  28.665  0.00  0.00     0.018 A 
ATOM      9  C   UNL d   1      59.561  -3.593  28.763  0.00  0.00     0.005 A 
ATOM     10  C   UNL d   1      58.215  -3.214  28.456  0.00  0.00     0.002 A 
ATOM     11  C   UNL d   1      58.785  -3.809  28.506  0.00  0.00     0.000 A 
ENDROOT
BRANCH   2  12
ATOM     12  C   UNL d   1      59.114  -0.866  29.137  0.00  0.00     0.067 A 
ATOM     13  C   UNL d   1      58.725  -0.618  29.811  0.00  0.00     0.018 A 
ATOM     14  C   UNL d   1      58.320   0.103  29.818  0.00  0.00     0.002 A 
ATOM     15  C   UNL d   1      58.312   0.565  29.149  0.00  0.00     0.000 A 
ATOM     16  C   UNL d   1      58.706   0.318  28.461  0.00  0.00     0.002 A 
ATOM     17  C   UNL d   1      59.107  -0.399  28.455  0.00  0.00     0.018 A 
ENDBRANCH   2  12
TORSDOF 1
ENDMDL
MODEL 8
REMARK VINA RESULT:      -2.7      5.363      6.408
REMARK  1 active torsions:
REMARK  status: ('A' for Active; 'I' for Inactive)
REMARK    1  A    between atoms: C_7  and  N_2 
ROOT
ATOM      1  C   UNL d   1      58.986  -1.543  29.255  0.00  0.00     0.304 A 
ATOM      2  N   UNL d   1      59.814  -1.418  29.163  0.00  0.00    -0.272 N 
ATOM      3  C   UNL d   1      58.833  -2.368  29.185  0.00  0.00     0.253 A 
ATOM      4  C   UNL d   1      60.168  -2.135  29.039  0.00  0.00     0.070 A 
ATOM      5  C   UNL d   1      59.575  -2.709  29.052  0.00  0.00     0.060 A 
ATOM      6  O   UNL d   1      58.400  -0.934  29.397  0.00  0.00    -0.263 OA
ATOM      7  O   UNL d   1      58.135  -2.777  29.230  0.00  0.00    -0.281 OA
ATOM      8  C   UNL d   1      60.889  -2.348  28.923  0.00  0.00     0.018 A 
ATOM      9  C   UNL d   1      59.745  -3.457  28.949  0.00  0.00     0.005 A 
ATOM     10  C   UNL d   1      61.133  -3.137  28.806  0.00  0.00     0.002 A 
ATOM     11  C   UNL d   1      60.541  -3.711  28.819  0.00  0.00     0.000 A 
ENDROOT
BRANCH   2  12
ATOM     12  C   UNL d   1      60.233  -0.721  29.185  0.00  0.00     0.067 A 
ATOM     13  C   UNL d   1      60.416  -0.317  28.500  0.00  0.00     0.018 A 
ATOM     14  C   UNL d   1      60.843   0.391  28.533  0.00  0.00     0.002 A 
ATOM     15  C   UNL d   1      61.081   0.682  29.254  0.00  0.00     0.000 A 
ATOM     16  C   UNL d   1      60.897   0.275  29.954  0.00  0.00     0.002 A 
ATOM     17  C   UNL d   1      60.473  -0.428  29.919  0.00  0.00     0.018 A 
ENDBRANCH   2  12
TORSDOF 1
ENDMDL
MODEL 9
REMARK VINA RESULT:      -2.4      2.802      4.767
REMARK  1 active torsions:
REMARK  status: ('A' for Active; 'I' for Inactive)
REMARK    1  A    between atoms: C_7  and  N_2 
ROOT
ATOM      1  C   UNL d   1      58.322  -0.520  29.536  0.00  0.00     0.304 A 
ATOM      2  N   UNL d   1      58.347  -0.174  30.304  0.00  0.00    -0.272 N 
ATOM      3  C   UNL d   1      59.088  -0.457  29.192  0.00  0.00     0.253 A 
ATOM      4  C   UNL d   1      59.098   0.096  30.437  0.00  0.00     0.070 A 
ATOM      5  C   UNL d   1      59.546  -0.075  29.766  0.00  0.00     0.060 A 
ATOM      6  O   UNL d   1      57.635  -0.876  29.168  0.00  0.00    -0.263 OA
ATOM      7  O   UNL d   1      59.359  -0.701  28.468  0.00  0.00    -0.281 OA
ATOM      8  C   UNL d   1      59.428   0.449  31.025  0.00  0.00     0.018 A 
ATOM      9  C   UNL d   1      60.294   0.119  29.728  0.00  0.00     0.005 A 
ATOM     10  C   UNL d   1      60.229   0.682  31.043  0.00  0.00     0.002 A 
ATOM     11  C   UNL d   1      60.677   0.511  30.372  0.00  0.00     0.000 A 
ENDROOT
BRANCH   2  12
ATOM     12  C   UNL d   1      57.751  -0.099  30.852  0.00  0.00     0.067 A 
ATOM     13  C   UNL d   1      57.378   0.616  30.974  0.00  0.00     0.018 A 
ATOM     14  C   UNL d   1      56.773   0.682  31.534  0.00  0.00     0.002 A 
ATOM     15  C   UNL d   1      56.552   0.028  31.964  0.00  0.00     0.000 A 
ATOM     16  C   UNL d   1      56.928  -0.702  31.844  0.00  0.00     0.002 A 
ATOM     17  C   UNL d   1      57.529  -0.766  31.287  0.00  0.00     0.018 A 
ENDBRANCH   2  12
TORSDOF 1
ENDMDL
