MODEL 1
REMARK VINA RESULT:      -2.3      0.000      0.000
REMARK  4 active torsions:
REMARK  status: ('A' for Active; 'I' for Inactive)
REMARK    1  A    between atoms: C_9  and  C_2 
REMARK    2  A    between atoms: N_11  and  C_9 
REMARK    3  A    between atoms: C_14  and  N_11 
REMARK    4  A    between atoms: C_17  and  C_14 
ROOT
ATOM      1  C   UNL d   1      33.206  21.814 -22.572  0.00  0.00     0.106 A 
ATOM      2  C   UNL d   1      33.204  20.416 -22.864  0.00  0.00     0.025 A 
ATOM      3  C   UNL d   1      33.213  21.198 -23.120  0.00  0.00     0.025 A 
ATOM      4  O   UNL d   1      33.189  21.648 -21.766  0.00  0.00    -0.273 OA
ATOM      5  C   UNL d   1      33.215  22.596 -22.830  0.00  0.00     0.062 A 
ATOM      6  C   UNL d   1      33.180  20.861 -21.502  0.00  0.00     0.300 A 
ATOM      7  C   UNL d   1      33.188  20.245 -22.051  0.00  0.00     0.070 A 
ATOM      8  C   UNL d   1      33.230  21.364 -23.927  0.00  0.00     0.005 A 
ATOM      9  C   UNL d   1      33.231  22.758 -23.639  0.00  0.00     0.198 A 
ATOM     10  O   UNL d   1      33.163  20.698 -20.687  0.00  0.00    -0.259 OA
ATOM     11  C   UNL d   1      33.239  22.146 -24.184  0.00  0.00     0.042 A 
ATOM     12  O   UNL d   1      33.240  23.544 -23.900  0.00  0.00    -0.286 OA
ATOM     13  C   UNL d   1      33.207  23.212 -22.281  0.00  0.00     0.005 C 
ENDROOT
BRANCH   2  14
ATOM     14  C   UNL d   1      33.212  19.806 -23.407  0.00  0.00     0.081 C 
BRANCH  14  15
ATOM     15  N   UNL d   1      32.893  19.068 -23.201  0.00  0.00    -0.301 N 
ATOM     16  C   UNL d   1      33.239  18.636 -22.590  0.00  0.00     0.100 C 
BRANCH  15  17
ATOM     17  C   UNL d   1      32.236  18.769 -23.605  0.00  0.00     0.080 C 
BRANCH  17  18
ATOM     18  C   UNL d   1      32.262  18.014 -23.931  0.00  0.00     0.018 A 
ATOM     19  C   UNL d   1      32.674  17.882 -24.614  0.00  0.00     0.002 A 
ATOM     20  C   UNL d   1      32.705  17.127 -24.949  0.00  0.00     0.000 A 
ATOM     21  C   UNL d   1      32.305  16.492 -24.576  0.00  0.00     0.000 A 
ATOM     22  C   UNL d   1      31.887  16.642 -23.878  0.00  0.00     0.000 A 
ATOM     23  C   UNL d   1      31.865  17.393 -23.558  0.00  0.00     0.002 A 
ENDBRANCH  17  18
ENDBRANCH  15  17
ENDBRANCH  14  15
ENDBRANCH   2  14
TORSDOF 4
ENDMDL
MODEL 2
REMARK VINA RESULT:      -2.3      2.948      5.275
REMARK  4 active torsions:
REMARK  status: ('A' for Active; 'I' for Inactive)
REMARK    1  A    between atoms: C_9  and  C_2 
REMARK    2  A    between atoms: N_11  and  C_9 
REMARK    3  A    between atoms: C_14  and  N_11 
REMARK    4  A    between atoms: C_17  and  C_14 
ROOT
ATOM      1  C   UNL d   1      30.250  16.523 -24.698  0.00  0.00     0.106 A 
ATOM      2  C   UNL d   1      31.343  17.427 -24.531  0.00  0.00     0.025 A 
ATOM      3  C   UNL d   1      30.534  17.277 -24.519  0.00  0.00     0.025 A 
ATOM      4  O   UNL d   1      30.776  15.919 -24.889  0.00  0.00    -0.273 OA
ATOM      5  C   UNL d   1      29.440  16.374 -24.684  0.00  0.00     0.062 A 
ATOM      6  C   UNL d   1      31.593  16.066 -24.903  0.00  0.00     0.300 A 
ATOM      7  C   UNL d   1      31.877  16.820 -24.724  0.00  0.00     0.070 A 
ATOM      8  C   UNL d   1      30.008  17.881 -24.327  0.00  0.00     0.005 A 
ATOM      9  C   UNL d   1      28.917  16.982 -24.492  0.00  0.00     0.198 A 
ATOM     10  O   UNL d   1      32.120  15.454 -25.097  0.00  0.00    -0.259 OA
ATOM     11  C   UNL d   1      29.199  17.731 -24.314  0.00  0.00     0.042 A 
ATOM     12  O   UNL d   1      28.103  16.833 -24.479  0.00  0.00    -0.286 OA
ATOM     13  C   UNL d   1      29.157  15.620 -24.863  0.00  0.00     0.005 C 
ENDROOT
BRANCH   2  14
ATOM     14  C   UNL d   1      31.624  18.173 -24.355  0.00  0.00     0.081 C 
BRANCH  14  15
ATOM     15  N   UNL d   1      32.429  18.280 -24.179  0.00  0.00    -0.301 N 
ATOM     16  C   UNL d   1      32.973  18.330 -24.797  0.00  0.00     0.100 C 
BRANCH  15  17
ATOM     17  C   UNL d   1      32.682  18.334 -23.393  0.00  0.00     0.080 C 
BRANCH  17  18
ATOM     18  C   UNL d   1      32.867  19.068 -23.070  0.00  0.00     0.018 A 
ATOM     19  C   UNL d   1      32.868  19.166 -22.268  0.00  0.00     0.002 A 
ATOM     20  C   UNL d   1      33.053  19.899 -21.933  0.00  0.00     0.000 A 
ATOM     21  C   UNL d   1      33.240  20.546 -22.431  0.00  0.00     0.000 A 
ATOM     22  C   UNL d   1      33.235  20.429 -23.251  0.00  0.00     0.000 A 
ATOM     23  C   UNL d   1      33.051  19.700 -23.567  0.00  0.00     0.002 A 
ENDBRANCH  17  18
ENDBRANCH  15  17
ENDBRANCH  14  15
ENDBRANCH   2  14
TORSDOF 4
ENDMDL
