MODEL 1
REMARK VINA RESULT:      -5.6      0.000      0.000
REMARK  5 active torsions:
REMARK  status: ('A' for Active; 'I' for Inactive)
REMARK    1  A    between atoms: N_2  and  S_1 
REMARK    2  A    between atoms: C_4  and  S_1 
REMARK    3  A    between atoms: C_3  and  N_2 
REMARK    4  A    between atoms: N_7  and  C_3 
REMARK    5  A    between atoms: C_12  and  N_7 
ROOT
ATOM      1  S   UNL d   1      56.976  -0.327  31.444  0.00  0.00     0.287 S 
ATOM      2  O   UNL d   1      56.953   0.500  31.409  0.00  0.00    -0.198 OA
ATOM      3  O   UNL d   1      56.990  -1.158  31.493  0.00  0.00    -0.198 OA
ENDROOT
BRANCH   1   4
ATOM      4  N   UNL d   1      57.488  -0.349  30.795  0.00  0.00    -0.128 NA
BRANCH   4   5
ATOM      5  C   UNL d   1      58.077   0.021  30.347  0.00  0.00     0.232 C 
ATOM      6  S   UNL d   1      58.641   0.494  30.714  0.00  0.00    -0.036 SA
BRANCH   5   7
ATOM      7  N   UNL d   1      58.092  -0.088  29.533  0.00  0.00    -0.217 NA
BRANCH   7   8
ATOM      8  C   UNL d   1      58.776  -0.373  29.174  0.00  0.00     0.084 A 
ATOM      9  C   UNL d   1      59.334   0.156  28.892  0.00  0.00     0.019 A 
ATOM     10  C   UNL d   1      60.017  -0.121  28.533  0.00  0.00     0.002 A 
ATOM     11  C   UNL d   1      60.140  -0.931  28.458  0.00  0.00     0.000 A 
ATOM     12  C   UNL d   1      59.571  -1.455  28.746  0.00  0.00     0.002 A 
ATOM     13  C   UNL d   1      58.899  -1.180  29.098  0.00  0.00     0.019 A 
ENDBRANCH   7   8
ENDBRANCH   5   7
ENDBRANCH   4   5
ENDBRANCH   1   4
BRANCH   1  14
ATOM     14  C   UNL d   1      56.459  -0.306  32.101  0.00  0.00     0.105 A 
ATOM     15  C   UNL d   1      56.186   0.422  32.384  0.00  0.00     0.015 A 
ATOM     16  C   UNL d   1      55.677   0.446  33.030  0.00  0.00     0.030 A 
ATOM     17  C   UNL d   1      55.427  -0.258  33.410  0.00  0.00     0.140 A 
ATOM     18  C   UNL d   1      55.706  -0.986  33.118  0.00  0.00     0.030 A 
ATOM     19  F   UNL d   1      54.921  -0.225  34.050  0.00  0.00    -0.204 F 
ATOM     20  C   UNL d   1      56.219  -1.011  32.468  0.00  0.00     0.015 A 
ENDBRANCH   1  14
TORSDOF 5
ENDMDL
MODEL 2
REMARK VINA RESULT:      -4.3      1.084      1.557
REMARK  5 active torsions:
REMARK  status: ('A' for Active; 'I' for Inactive)
REMARK    1  A    between atoms: N_2  and  S_1 
REMARK    2  A    between atoms: C_4  and  S_1 
REMARK    3  A    between atoms: C_3  and  N_2 
REMARK    4  A    between atoms: N_7  and  C_3 
REMARK    5  A    between atoms: C_12  and  N_7 
ROOT
ATOM      1  S   UNL d   1      56.571   0.135  32.597  0.00  0.00     0.287 S 
ATOM      2  O   UNL d   1      57.109   0.676  32.917  0.00  0.00    -0.198 OA
ATOM      3  O   UNL d   1      56.019  -0.407  32.289  0.00  0.00    -0.198 OA
ENDROOT
BRANCH   1   4
ATOM      4  N   UNL d   1      57.073   0.001  31.954  0.00  0.00    -0.128 NA
BRANCH   4   5
ATOM      5  C   UNL d   1      57.588   0.309  31.385  0.00  0.00     0.232 C 
ATOM      6  S   UNL d   1      58.285   0.682  31.615  0.00  0.00    -0.036 SA
BRANCH   5   7
ATOM      7  N   UNL d   1      57.397   0.238  30.589  0.00  0.00    -0.217 NA
BRANCH   7   8
ATOM      8  C   UNL d   1      57.991   0.072  30.042  0.00  0.00     0.084 A 
ATOM      9  C   UNL d   1      58.277  -0.693  29.978  0.00  0.00     0.019 A 
ATOM     10  C   UNL d   1      58.867  -0.866  29.436  0.00  0.00     0.002 A 
ATOM     11  C   UNL d   1      59.170  -0.269  28.957  0.00  0.00     0.000 A 
ATOM     12  C   UNL d   1      58.873   0.498  29.030  0.00  0.00     0.002 A 
ATOM     13  C   UNL d   1      58.292   0.665  29.565  0.00  0.00     0.019 A 
ENDBRANCH   7   8
ENDBRANCH   5   7
ENDBRANCH   4   5
ENDBRANCH   1   4
BRANCH   1  14
ATOM     14  C   UNL d   1      56.062   0.269  33.247  0.00  0.00     0.105 A 
ATOM     15  C   UNL d   1      56.330   0.119  34.015  0.00  0.00     0.015 A 
ATOM     16  C   UNL d   1      55.832   0.250  34.657  0.00  0.00     0.030 A 
ATOM     17  C   UNL d   1      55.051   0.534  34.547  0.00  0.00     0.140 A 
ATOM     18  C   UNL d   1      54.790   0.682  33.771  0.00  0.00     0.030 A 
ATOM     19  F   UNL d   1      54.564   0.661  35.189  0.00  0.00    -0.204 F 
ATOM     20  C   UNL d   1      55.291   0.550  33.125  0.00  0.00     0.015 A 
ENDBRANCH   1  14
TORSDOF 5
ENDMDL
MODEL 3
REMARK VINA RESULT:      -4.3      2.036      4.780
REMARK  5 active torsions:
REMARK  status: ('A' for Active; 'I' for Inactive)
REMARK    1  A    between atoms: N_2  and  S_1 
REMARK    2  A    between atoms: C_4  and  S_1 
REMARK    3  A    between atoms: C_3  and  N_2 
REMARK    4  A    between atoms: N_7  and  C_3 
REMARK    5  A    between atoms: C_12  and  N_7 
ROOT
ATOM      1  S   UNL d   1      58.201   0.003  30.382  0.00  0.00     0.287 S 
ATOM      2  O   UNL d   1      57.694  -0.331  29.819  0.00  0.00    -0.198 OA
ATOM      3  O   UNL d   1      58.723   0.335  30.938  0.00  0.00    -0.198 OA
ENDROOT
BRANCH   1   4
ATOM      4  N   UNL d   1      57.555   0.193  30.863  0.00  0.00    -0.128 NA
BRANCH   4   5
ATOM      5  C   UNL d   1      57.205   0.181  31.612  0.00  0.00     0.232 C 
ATOM      6  S   UNL d   1      57.494   0.664  32.213  0.00  0.00    -0.036 SA
BRANCH   5   7
ATOM      7  N   UNL d   1      56.567  -0.318  31.750  0.00  0.00    -0.217 NA
BRANCH   7   8
ATOM      8  C   UNL d   1      56.090  -0.195  32.411  0.00  0.00     0.084 A 
ATOM      9  C   UNL d   1      55.920  -0.824  32.908  0.00  0.00     0.019 A 
ATOM     10  C   UNL d   1      55.446  -0.708  33.566  0.00  0.00     0.002 A 
ATOM     11  C   UNL d   1      55.143   0.040  33.727  0.00  0.00     0.000 A 
ATOM     12  C   UNL d   1      55.322   0.666  33.219  0.00  0.00     0.002 A 
ATOM     13  C   UNL d   1      55.789   0.549  32.570  0.00  0.00     0.019 A 
ENDBRANCH   7   8
ENDBRANCH   5   7
ENDBRANCH   4   5
ENDBRANCH   1   4
BRANCH   1  14
ATOM     14  C   UNL d   1      58.854  -0.188  29.897  0.00  0.00     0.105 A 
ATOM     15  C   UNL d   1      59.425   0.387  29.733  0.00  0.00     0.015 A 
ATOM     16  C   UNL d   1      60.070   0.202  29.255  0.00  0.00     0.030 A 
ATOM     17  C   UNL d   1      60.159  -0.565  28.928  0.00  0.00     0.140 A 
ATOM     18  C   UNL d   1      59.578  -1.137  29.098  0.00  0.00     0.030 A 
ATOM     19  F   UNL d   1      60.800  -0.740  28.455  0.00  0.00    -0.204 F 
ATOM     20  C   UNL d   1      58.930  -0.951  29.579  0.00  0.00     0.015 A 
ENDBRANCH   1  14
TORSDOF 5
ENDMDL
MODEL 4
REMARK VINA RESULT:      -4.3      1.934      4.838
REMARK  5 active torsions:
REMARK  status: ('A' for Active; 'I' for Inactive)
REMARK    1  A    between atoms: N_2  and  S_1 
REMARK    2  A    between atoms: C_4  and  S_1 
REMARK    3  A    between atoms: C_3  and  N_2 
REMARK    4  A    between atoms: N_7  and  C_3 
REMARK    5  A    between atoms: C_12  and  N_7 
ROOT
ATOM      1  S   UNL d   1      57.254  -0.451  31.107  0.00  0.00     0.287 S 
ATOM      2  O   UNL d   1      57.417   0.360  31.091  0.00  0.00    -0.198 OA
ATOM      3  O   UNL d   1      57.102  -1.269  31.111  0.00  0.00    -0.198 OA
ENDROOT
BRANCH   1   4
ATOM      4  N   UNL d   1      56.685  -0.335  31.696  0.00  0.00    -0.128 NA
BRANCH   4   5
ATOM      5  C   UNL d   1      56.451  -0.437  32.482  0.00  0.00     0.232 C 
ATOM      6  S   UNL d   1      56.132  -1.154  32.730  0.00  0.00    -0.036 SA
BRANCH   5   7
ATOM      7  N   UNL d   1      56.541   0.184  33.013  0.00  0.00    -0.217 NA
BRANCH   7   8
ATOM      8  C   UNL d   1      55.942   0.344  33.555  0.00  0.00     0.084 A 
ATOM      9  C   UNL d   1      56.137   0.521  34.331  0.00  0.00     0.019 A 
ATOM     10  C   UNL d   1      55.546   0.682  34.875  0.00  0.00     0.002 A 
ATOM     11  C   UNL d   1      54.757   0.665  34.641  0.00  0.00     0.000 A 
ATOM     12  C   UNL d   1      54.573   0.486  33.856  0.00  0.00     0.002 A 
ATOM     13  C   UNL d   1      55.157   0.328  33.322  0.00  0.00     0.019 A 
ENDBRANCH   7   8
ENDBRANCH   5   7
ENDBRANCH   4   5
ENDBRANCH   1   4
BRANCH   1  14
ATOM     14  C   UNL d   1      57.829  -0.570  30.512  0.00  0.00     0.105 A 
ATOM     15  C   UNL d   1      58.317   0.057  30.283  0.00  0.00     0.015 A 
ATOM     16  C   UNL d   1      58.885  -0.056  29.697  0.00  0.00     0.030 A 
ATOM     17  C   UNL d   1      58.979  -0.802  29.326  0.00  0.00     0.140 A 
ATOM     18  C   UNL d   1      58.483  -1.428  29.563  0.00  0.00     0.030 A 
ATOM     19  F   UNL d   1      59.544  -0.906  28.746  0.00  0.00    -0.204 F 
ATOM     20  C   UNL d   1      57.913  -1.314  30.152  0.00  0.00     0.015 A 
ENDBRANCH   1  14
TORSDOF 5
ENDMDL
MODEL 5
REMARK VINA RESULT:      -3.2      2.480      4.662
REMARK  5 active torsions:
REMARK  status: ('A' for Active; 'I' for Inactive)
REMARK    1  A    between atoms: N_2  and  S_1 
REMARK    2  A    between atoms: C_4  and  S_1 
REMARK    3  A    between atoms: C_3  and  N_2 
REMARK    4  A    between atoms: N_7  and  C_3 
REMARK    5  A    between atoms: C_12  and  N_7 
ROOT
ATOM      1  S   UNL d   1      58.665  -1.575  29.494  0.00  0.00     0.287 S 
ATOM      2  O   UNL d   1      59.069  -1.026  29.024  0.00  0.00    -0.198 OA
ATOM      3  O   UNL d   1      58.270  -2.139  29.962  0.00  0.00    -0.198 OA
ENDROOT
BRANCH   1   4
ATOM      4  N   UNL d   1      58.148  -0.985  29.755  0.00  0.00    -0.128 NA
BRANCH   4   5
ATOM      5  C   UNL d   1      58.019  -0.316  30.224  0.00  0.00     0.232 C 
ATOM      6  S   UNL d   1      58.635   0.208  30.377  0.00  0.00    -0.036 SA
BRANCH   5   7
ATOM      7  N   UNL d   1      57.271  -0.181  30.536  0.00  0.00    -0.217 NA
BRANCH   7   8
ATOM      8  C   UNL d   1      57.180  -0.085  31.349  0.00  0.00     0.084 A 
ATOM      9  C   UNL d   1      57.552   0.540  31.726  0.00  0.00     0.019 A 
ATOM     10  C   UNL d   1      57.465   0.641  32.535  0.00  0.00     0.002 A 
ATOM     11  C   UNL d   1      57.005   0.112  32.966  0.00  0.00     0.000 A 
ATOM     12  C   UNL d   1      56.636  -0.515  32.575  0.00  0.00     0.002 A 
ATOM     13  C   UNL d   1      56.723  -0.611  31.779  0.00  0.00     0.019 A 
ENDBRANCH   7   8
ENDBRANCH   5   7
ENDBRANCH   4   5
ENDBRANCH   1   4
BRANCH   1  14
ATOM     14  C   UNL d   1      59.187  -2.173  29.231  0.00  0.00     0.105 A 
ATOM     15  C   UNL d   1      60.001  -2.086  29.347  0.00  0.00     0.015 A 
ATOM     16  C   UNL d   1      60.518  -2.672  29.089  0.00  0.00     0.030 A 
ATOM     17  C   UNL d   1      60.233  -3.362  28.708  0.00  0.00     0.140 A 
ATOM     18  C   UNL d   1      59.412  -3.441  28.596  0.00  0.00     0.030 A 
ATOM     19  F   UNL d   1      60.753  -3.938  28.455  0.00  0.00    -0.204 F 
ATOM     20  C   UNL d   1      58.892  -2.852  28.855  0.00  0.00     0.015 A 
ENDBRANCH   1  14
TORSDOF 5
ENDMDL
