MODEL 1
REMARK VINA RESULT:      -7.3      0.000      0.000
REMARK  2 active torsions:
REMARK  status: ('A' for Active; 'I' for Inactive)
REMARK    1  A    between atoms: N_10  and  C_6 
REMARK    2  A    between atoms: C_12  and  N_10 
ROOT
ATOM      1  N   UNL d   1     -42.246-122.359 -51.010  0.00  0.00    -0.169 N 
ATOM      2  C   UNL d   1     -41.554-122.809 -50.973  0.00  0.00     0.201 A 
ATOM      3  C   UNL d   1     -42.779-122.386 -50.394  0.00  0.00     0.283 A 
ATOM      4  S   UNL d   1     -41.123-122.675 -51.663  0.00  0.00    -0.008 SA
ATOM      5  N   UNL d   1     -42.239-121.947 -51.729  0.00  0.00    -0.134 NA
ATOM      6  C   UNL d   1     -41.552-122.141 -52.126  0.00  0.00     0.216 A 
ATOM      7  N   UNL d   1     -41.393-123.280 -50.331  0.00  0.00    -0.221 NA
ATOM      8  C   UNL d   1     -42.628-122.862 -49.735  0.00  0.00     0.076 A 
ATOM      9  C   UNL d   1     -41.934-123.309 -49.703  0.00  0.00     0.088 A 
ATOM     10  O   UNL d   1     -43.473-121.939 -50.426  0.00  0.00    -0.265 OA
ATOM     11  C   UNL d   1     -43.165-122.894 -49.107  0.00  0.00     0.006 A 
ATOM     12  C   UNL d   1     -41.779-123.788 -49.044  0.00  0.00     0.019 A 
ATOM     13  C   UNL d   1     -43.003-123.377 -48.446  0.00  0.00     0.000 A 
ATOM     14  C   UNL d   1     -42.320-123.817 -48.415  0.00  0.00     0.002 A 
ENDROOT
BRANCH   6  15
ATOM     15  N   UNL d   1     -41.320-121.856 -52.866  0.00  0.00    -0.220 NA
BRANCH  15  16
ATOM     16  C   UNL d   1     -41.515-122.252 -53.557  0.00  0.00     0.084 A 
ATOM     17  C   UNL d   1     -41.987-121.896 -54.120  0.00  0.00     0.019 A 
ATOM     18  C   UNL d   1     -42.173-122.305 -54.807  0.00  0.00     0.002 A 
ATOM     19  C   UNL d   1     -42.647-121.954 -55.377  0.00  0.00     0.000 C 
ATOM     20  C   UNL d   1     -41.882-123.069 -54.919  0.00  0.00     0.000 A 
ATOM     21  C   UNL d   1     -41.412-123.423 -54.358  0.00  0.00     0.002 A 
ATOM     22  C   UNL d   1     -41.224-123.013 -53.668  0.00  0.00     0.019 A 
ENDBRANCH  15  16
ENDBRANCH   6  15
TORSDOF 2
ENDMDL
MODEL 2
REMARK VINA RESULT:      -6.1      1.083      4.513
REMARK  2 active torsions:
REMARK  status: ('A' for Active; 'I' for Inactive)
REMARK    1  A    between atoms: N_10  and  C_6 
REMARK    2  A    between atoms: C_12  and  N_10 
ROOT
ATOM      1  N   UNL d   1     -41.607-122.574 -52.706  0.00  0.00    -0.169 N 
ATOM      2  C   UNL d   1     -41.496-123.349 -52.969  0.00  0.00     0.201 A 
ATOM      3  C   UNL d   1     -41.806-121.990 -53.239  0.00  0.00     0.283 A 
ATOM      4  S   UNL d   1     -41.302-123.816 -52.318  0.00  0.00    -0.008 SA
ATOM      5  N   UNL d   1     -41.479-122.567 -51.887  0.00  0.00    -0.134 NA
ATOM      6  C   UNL d   1     -41.293-123.327 -51.652  0.00  0.00     0.216 A 
ATOM      7  N   UNL d   1     -41.582-123.543 -53.753  0.00  0.00    -0.221 NA
ATOM      8  C   UNL d   1     -41.897-122.174 -54.040  0.00  0.00     0.076 A 
ATOM      9  C   UNL d   1     -41.785-122.951 -54.298  0.00  0.00     0.088 A 
ATOM     10  O   UNL d   1     -41.918-121.213 -52.982  0.00  0.00    -0.265 OA
ATOM     11  C   UNL d   1     -42.098-121.586 -54.586  0.00  0.00     0.006 A 
ATOM     12  C   UNL d   1     -41.874-123.139 -55.100  0.00  0.00     0.019 A 
ATOM     13  C   UNL d   1     -42.187-121.782 -55.393  0.00  0.00     0.000 A 
ATOM     14  C   UNL d   1     -42.077-122.546 -55.646  0.00  0.00     0.002 A 
ENDROOT
BRANCH   6  15
ATOM     15  N   UNL d   1     -41.123-123.570 -50.881  0.00  0.00    -0.220 NA
BRANCH  15  16
ATOM     16  C   UNL d   1     -41.588-123.336 -50.247  0.00  0.00     0.084 A 
ATOM     17  C   UNL d   1     -42.303-123.701 -50.099  0.00  0.00     0.019 A 
ATOM     18  C   UNL d   1     -42.757-123.455 -49.460  0.00  0.00     0.002 A 
ATOM     19  C   UNL d   1     -43.476-123.817 -49.306  0.00  0.00     0.000 C 
ATOM     20  C   UNL d   1     -42.485-122.844 -48.977  0.00  0.00     0.000 A 
ATOM     21  C   UNL d   1     -41.772-122.481 -49.125  0.00  0.00     0.002 A 
ATOM     22  C   UNL d   1     -41.316-122.727 -49.766  0.00  0.00     0.019 A 
ENDBRANCH  15  16
ENDBRANCH   6  15
TORSDOF 2
ENDMDL
