MODEL 1
REMARK VINA RESULT:      55.4      0.000      0.000
REMARK  6 active torsions:
REMARK  status: ('A' for Active; 'I' for Inactive)
REMARK    1  A    between atoms: S_6  and  C_2 
REMARK    2  A    between atoms: C_9  and  S_6 
REMARK    3  A    between atoms: C_7  and  C_9 
REMARK    4  A    between atoms: C_8  and  C_7 
REMARK    5  A    between atoms: O_12  and  C_15 
REMARK    6  A    between atoms: C_18  and  O_12 
ROOT
ATOM      1  C   UNL d   1      60.202  48.640  50.801  0.00  0.00     0.040 A 
ATOM      2  C   UNL d   1      60.102  49.294  51.286  0.00  0.00     0.005 A 
ATOM      3  C   UNL d   1      59.542  48.335  50.379  0.00  0.00     0.005 A 
ATOM      4  C   UNL d   1      58.713  49.355  50.949  0.00  0.00     0.100 A 
ATOM      5  C   UNL d   1      59.366  49.652  51.363  0.00  0.00     0.025 A 
ATOM      6  C   UNL d   1      58.808  48.695  50.459  0.00  0.00     0.025 A 
ENDROOT
BRANCH   1   7
ATOM      7  C   UNL d   1      60.933  48.284  50.724  0.00  0.00     0.202 C 
ATOM      8  O   UNL d   1      61.597  48.636  51.075  0.00  0.00    -0.286 OA
BRANCH   7   9
ATOM      9  C   UNL d   1      61.009  47.580  50.302  0.00  0.00     0.080 C 
BRANCH   9  10
ATOM     10  S   UNL d   1      61.761  47.239  50.200  0.00  0.00    -0.043 SA
BRANCH  10  11
ATOM     11  C   UNL d   1      61.838  46.513  49.809  0.00  0.00     0.233 A 
ATOM     12  N   UNL d   1      61.625  45.776  50.105  0.00  0.00    -0.029 NA
ATOM     13  C   UNL d   1      61.796  45.208  49.534  0.00  0.00     0.788 A 
ATOM     14  N   UNL d   1      62.115  45.595  48.887  0.00  0.00     0.050 NA
ATOM     15  N   UNL d   1      61.666  44.397  49.611  0.00  0.00     0.064 N 
ATOM     16  N   UNL d   1      62.145  46.398  49.047  0.00  0.00    -0.105 NA
ENDBRANCH  10  11
ENDBRANCH   9  10
ENDBRANCH   7   9
ENDBRANCH   1   7
BRANCH   4  17
ATOM     17  O   UNL d   1      57.973  49.708  51.021  0.00  0.00    -0.307 OA
BRANCH  17  18
ATOM     18  C   UNL d   1      57.399  49.582  50.440  0.00  0.00     0.100 A 
ATOM     19  C   UNL d   1      57.574  49.708  49.652  0.00  0.00     0.025 A 
ATOM     20  C   UNL d   1      57.005  49.583  49.079  0.00  0.00     0.002 A 
ATOM     21  C   UNL d   1      56.246  49.328  49.294  0.00  0.00     0.000 A 
ATOM     22  C   UNL d   1      56.066  49.200  50.090  0.00  0.00     0.002 A 
ATOM     23  C   UNL d   1      56.642  49.327  50.668  0.00  0.00     0.025 A 
ENDBRANCH  17  18
ENDBRANCH   4  17
TORSDOF 6
ENDMDL
