MODEL 1
REMARK VINA RESULT:      -5.9      0.000      0.000
REMARK  7 active torsions:
REMARK  status: ('A' for Active; 'I' for Inactive)
REMARK    1  A    between atoms: C_10  and  N_2 
REMARK    2  A    between atoms: S_11  and  C_5 
REMARK    3  A    between atoms: C_12  and  C_10 
REMARK    4  A    between atoms: C_22  and  S_11 
REMARK    5  A    between atoms: C_14  and  C_22 
REMARK       I    between atoms: N_16  and  C_14 
REMARK    6  A    between atoms: C_23  and  N_16 
REMARK    7  A    between atoms: C_24  and  C_23 
ROOT
ATOM      1  C   UNL d   1     -45.390  12.171  22.813  0.00  0.00     0.104 A 
ATOM      2  N   UNL d   1     -46.691  12.541  23.255  0.00  0.00    -0.250 N 
ATOM      3  C   UNL d   1     -45.339  12.876  22.371  0.00  0.00     0.095 A 
ATOM      4  C   UNL d   1     -46.067  12.008  23.253  0.00  0.00     0.274 A 
ATOM      5  C   UNL d   1     -46.640  13.245  22.814  0.00  0.00     0.182 A 
ATOM      6  N   UNL d   1     -45.967  13.410  22.375  0.00  0.00    -0.222 NA
ATOM      7  S   UNL d   1     -44.675  11.751  22.698  0.00  0.00    -0.081 SA
ATOM      8  C   UNL d   1     -44.595  12.880  21.991  0.00  0.00     0.024 A 
ATOM      9  C   UNL d   1     -44.191  12.196  22.190  0.00  0.00     0.031 A 
ATOM     10  O   UNL d   1     -46.118  11.298  23.698  0.00  0.00    -0.266 OA
ATOM     11  C   UNL d   1     -44.244  13.432  21.487  0.00  0.00     0.002 A 
ATOM     12  C   UNL d   1     -43.432  12.043  21.895  0.00  0.00     0.006 A 
ATOM     13  C   UNL d   1     -43.487  13.298  21.182  0.00  0.00     0.000 A 
ATOM     14  C   UNL d   1     -43.081  12.599  21.388  0.00  0.00     0.001 A 
ENDROOT
BRANCH   5  15
ATOM     15  S   UNL d   1     -47.275  13.788  22.815  0.00  0.00    -0.044 SA
BRANCH  15  16
ATOM     16  C   UNL d   1     -47.123  14.606  22.718  0.00  0.00     0.101 C 
BRANCH  16  17
ATOM     17  C   UNL d   1     -47.732  15.113  22.501  0.00  0.00     0.286 C 
ATOM     18  N   UNL d   1     -48.454  15.076  22.901  0.00  0.00    -0.204 NA
ATOM     19  O   UNL d   1     -47.622  15.653  21.888  0.00  0.00    -0.265 OA
BRANCH  18  20
ATOM     20  C   UNL d   1     -49.066  15.584  22.684  0.00  0.00     0.127 C 
BRANCH  20  21
ATOM     21  C   UNL d   1     -49.814  15.484  23.009  0.00  0.00     0.119 A 
ATOM     22  O   UNL d   1     -50.221  15.730  23.684  0.00  0.00    -0.304 OA
ATOM     23  C   UNL d   1     -50.979  15.415  23.657  0.00  0.00     0.123 A 
ATOM     24  C   UNL d   1     -51.045  14.971  22.963  0.00  0.00     0.029 A 
ATOM     25  C   UNL d   1     -50.325  15.018  22.570  0.00  0.00     0.028 A 
ENDBRANCH  20  21
ENDBRANCH  18  20
ENDBRANCH  16  17
ENDBRANCH  15  16
ENDBRANCH   5  15
BRANCH   2  26
ATOM     26  C   UNL d   1     -47.375  12.380  23.698  0.00  0.00     0.110 C 
BRANCH  26  27
ATOM     27  C   UNL d   1     -47.990  11.929  23.369  0.00  0.00     0.118 A 
ATOM     28  O   UNL d   1     -47.947  11.520  22.669  0.00  0.00    -0.304 OA
ATOM     29  C   UNL d   1     -48.656  11.158  22.549  0.00  0.00     0.123 A 
ATOM     30  C   UNL d   1     -49.138  11.339  23.167  0.00  0.00     0.029 A 
ATOM     31  C   UNL d   1     -48.724  11.813  23.668  0.00  0.00     0.028 A 
ENDBRANCH  26  27
ENDBRANCH   2  26
TORSDOF 7
ENDMDL
MODEL 2
REMARK VINA RESULT:      -3.6      6.765      9.162
REMARK  7 active torsions:
REMARK  status: ('A' for Active; 'I' for Inactive)
REMARK    1  A    between atoms: C_10  and  N_2 
REMARK    2  A    between atoms: S_11  and  C_5 
REMARK    3  A    between atoms: C_12  and  C_10 
REMARK    4  A    between atoms: C_22  and  S_11 
REMARK    5  A    between atoms: C_14  and  C_22 
REMARK       I    between atoms: N_16  and  C_14 
REMARK    6  A    between atoms: C_23  and  N_16 
REMARK    7  A    between atoms: C_24  and  C_23 
ROOT
ATOM      1  C   UNL d   1     -40.157  15.163  17.591  0.00  0.00     0.104 A 
ATOM      2  N   UNL d   1     -40.412  15.293  18.985  0.00  0.00    -0.250 N 
ATOM      3  C   UNL d   1     -39.352  15.023  17.751  0.00  0.00     0.095 A 
ATOM      4  C   UNL d   1     -40.683  15.298  18.211  0.00  0.00     0.274 A 
ATOM      5  C   UNL d   1     -39.606  15.153  19.145  0.00  0.00     0.182 A 
ATOM      6  N   UNL d   1     -39.081  15.018  18.530  0.00  0.00    -0.222 NA
ATOM      7  S   UNL d   1     -40.257  15.133  16.761  0.00  0.00    -0.081 SA
ATOM      8  C   UNL d   1     -38.967  14.908  17.018  0.00  0.00     0.024 A 
ATOM      9  C   UNL d   1     -39.518  14.975  16.416  0.00  0.00     0.031 A 
ATOM     10  O   UNL d   1     -41.494  15.440  18.050  0.00  0.00    -0.266 OA
ATOM     11  C   UNL d   1     -38.178  14.750  16.836  0.00  0.00     0.002 A 
ATOM     12  C   UNL d   1     -39.300  14.888  15.622  0.00  0.00     0.006 A 
ATOM     13  C   UNL d   1     -37.940  14.659  16.049  0.00  0.00     0.000 A 
ATOM     14  C   UNL d   1     -38.506  14.729  15.440  0.00  0.00     0.001 A 
ENDROOT
BRANCH   5  15
ATOM     15  S   UNL d   1     -39.330  15.147  19.933  0.00  0.00    -0.044 SA
BRANCH  15  16
ATOM     16  C   UNL d   1     -38.507  15.196  20.085  0.00  0.00     0.101 C 
BRANCH  16  17
ATOM     17  C   UNL d   1     -38.235  15.216  20.860  0.00  0.00     0.286 C 
ATOM     18  N   UNL d   1     -38.257  14.529  21.317  0.00  0.00    -0.204 NA
ATOM     19  O   UNL d   1     -37.942  15.919  21.177  0.00  0.00    -0.265 OA
BRANCH  18  20
ATOM     20  C   UNL d   1     -37.984  14.549  22.095  0.00  0.00     0.127 C 
BRANCH  20  21
ATOM     21  C   UNL d   1     -38.148  13.922  22.602  0.00  0.00     0.119 A 
ATOM     22  O   UNL d   1     -37.964  13.119  22.654  0.00  0.00    -0.304 OA
ATOM     23  C   UNL d   1     -38.325  12.816  23.327  0.00  0.00     0.123 A 
ATOM     24  C   UNL d   1     -38.734  13.432  23.695  0.00  0.00     0.029 A 
ATOM     25  C   UNL d   1     -38.620  14.109  23.245  0.00  0.00     0.028 A 
ENDBRANCH  20  21
ENDBRANCH  18  20
ENDBRANCH  16  17
ENDBRANCH  15  16
ENDBRANCH   5  15
BRANCH   2  26
ATOM     26  C   UNL d   1     -40.939  15.429  19.613  0.00  0.00     0.110 C 
BRANCH  26  27
ATOM     27  C   UNL d   1     -41.306  14.790  19.996  0.00  0.00     0.118 A 
ATOM     28  O   UNL d   1     -41.628  14.145  19.624  0.00  0.00    -0.304 OA
ATOM     29  C   UNL d   1     -41.927  13.656  20.190  0.00  0.00     0.123 A 
ATOM     30  C   UNL d   1     -41.794  13.992  20.908  0.00  0.00     0.029 A 
ATOM     31  C   UNL d   1     -41.412  14.689  20.784  0.00  0.00     0.028 A 
ENDBRANCH  26  27
ENDBRANCH   2  26
TORSDOF 7
ENDMDL
