MODEL 1
REMARK VINA RESULT:      28.3      0.000      0.000
REMARK  4 active torsions:
REMARK  status: ('A' for Active; 'I' for Inactive)
REMARK    1  A    between atoms: C_6  and  C_4 
REMARK    2  A    between atoms: C_9  and  C_6 
REMARK    3  A    between atoms: O_15  and  C_8 
REMARK    4  A    between atoms: O_16  and  C_12 
ROOT
ATOM      1  C   UNL d   1      57.484  49.027  50.047  0.00  0.00     0.116 A 
ATOM      2  C   UNL d   1      58.783  49.531  50.356  0.00  0.00     0.003 A 
ATOM      3  C   UNL d   1      58.253  49.194  49.822  0.00  0.00     0.026 A 
ATOM      4  C   UNL d   1      57.227  49.197  50.820  0.00  0.00     0.116 A 
ATOM      5  C   UNL d   1      57.763  49.537  51.356  0.00  0.00     0.026 A 
ATOM      6  C   UNL d   1      58.532  49.703  51.130  0.00  0.00     0.002 A 
ENDROOT
BRANCH   2   7
ATOM      7  C   UNL d   1      59.557  49.698  50.128  0.00  0.00     0.009 C 
BRANCH   7   8
ATOM      8  C   UNL d   1      60.166  49.635  50.671  0.00  0.00     0.062 A 
ATOM      9  C   UNL d   1      60.977  49.639  50.495  0.00  0.00     0.145 A 
ATOM     10  N   UNL d   1      61.394  49.562  51.203  0.00  0.00    -0.191 NA
ATOM     11  S   UNL d   1      61.301  49.707  49.743  0.00  0.00    -0.057 SA
ATOM     12  C   UNL d   1      60.843  49.511  51.819  0.00  0.00     0.311 A 
ATOM     13  S   UNL d   1      60.092  49.556  51.489  0.00  0.00    -0.023 SA
ATOM     14  O   UNL d   1      61.025  49.429  52.621  0.00  0.00    -0.258 OA
ENDBRANCH   7   8
ENDBRANCH   2   7
BRANCH   1  15
ATOM     15  O   UNL d   1      56.959  48.689  49.505  0.00  0.00    -0.326 OA
ATOM     16  C   UNL d   1      56.407  49.169  49.110  0.00  0.00     0.181 C 
ENDBRANCH   1  15
BRANCH   4  17
ATOM     17  O   UNL d   1      56.461  49.034  51.052  0.00  0.00    -0.326 OA
ATOM     18  C   UNL d   1      56.063  49.543  51.566  0.00  0.00     0.181 C 
ENDBRANCH   4  17
TORSDOF 4
ENDMDL
