MODEL 1
REMARK VINA RESULT:     -10.2      0.000      0.000
REMARK  5 active torsions:
REMARK  status: ('A' for Active; 'I' for Inactive)
REMARK       I    between atoms: C_3  and  N_1 
REMARK    1  A    between atoms: C_8  and  C_3 
REMARK    2  A    between atoms: S_4  and  N_9 
REMARK    3  A    between atoms: C_10  and  C_5 
REMARK    4  A    between atoms: C_11  and  C_6 
REMARK    5  A    between atoms: N_9  and  C_23 
ROOT
ATOM      1  N   UNL d   1      52.971  32.528  53.549  0.00  0.00    -0.193 N 
ATOM      2  N   UNL d   1      52.260  32.638  53.133  0.00  0.00    -0.163 NA
ATOM      3  C   UNL d   1      53.369  31.806  53.642  0.00  0.00     0.303 C 
ATOM      4  C   UNL d   1      53.205  33.269  53.849  0.00  0.00     0.088 A 
ATOM      5  C   UNL d   1      52.056  33.438  53.175  0.00  0.00     0.103 A 
ATOM      6  C   UNL d   1      52.641  33.824  53.618  0.00  0.00     0.040 A 
ATOM      7  O   UNL d   1      54.078  31.788  54.076  0.00  0.00    -0.263 OA
ENDROOT
BRANCH   5   8
ATOM      8  C   UNL d   1      51.391  33.790  52.839  0.00  0.00     0.019 A 
ATOM      9  C   UNL d   1      51.436  34.123  52.076  0.00  0.00     0.003 A 
ATOM     10  C   UNL d   1      50.772  34.474  51.742  0.00  0.00     0.020 A 
ATOM     11  C   UNL d   1      50.056  34.498  52.159  0.00  0.00     0.093 A 
ATOM     12  C   UNL d   1      50.013  34.165  52.921  0.00  0.00     0.020 A 
ATOM     13  C   UNL d   1      50.684  33.810  53.258  0.00  0.00     0.003 A 
BRANCH  11  14
ATOM     14  N   UNL d   1      49.383  34.849  51.830  0.00  0.00    -0.162 NA
BRANCH  14  15
ATOM     15  S   UNL d   1      48.937  34.459  51.262  0.00  0.00     0.266 S 
ATOM     16  O   UNL d   1      48.346  34.549  51.840  0.00  0.00    -0.203 OA
ATOM     17  O   UNL d   1      48.259  34.109  50.934  0.00  0.00    -0.203 OA
ATOM     18  C   UNL d   1      49.505  34.356  50.672  0.00  0.00     0.165 C 
ENDBRANCH  14  15
ENDBRANCH  11  14
ENDBRANCH   5   8
BRANCH   4  19
ATOM     19  C   UNL d   1      53.879  33.410  54.295  0.00  0.00     0.018 A 
ATOM     20  C   UNL d   1      53.826  33.407  55.118  0.00  0.00     0.004 A 
ATOM     21  C   UNL d   1      54.503  33.549  55.574  0.00  0.00     0.030 A 
ATOM     22  C   UNL d   1      55.217  33.690  55.200  0.00  0.00     0.140 A 
ATOM     23  C   UNL d   1      55.269  33.692  54.388  0.00  0.00     0.030 A 
ATOM     24  F   UNL d   1      55.899  33.832  55.662  0.00  0.00    -0.204 F 
ATOM     25  C   UNL d   1      54.604  33.553  53.928  0.00  0.00     0.004 A 
ENDBRANCH   4  19
BRANCH   3  26
ATOM     26  C   UNL d   1      53.066  31.125  53.312  0.00  0.00     0.158 A 
ATOM     27  O   UNL d   1      53.063  30.931  52.489  0.00  0.00    -0.300 OA
ATOM     28  C   UNL d   1      52.701  30.190  52.411  0.00  0.00     0.123 A 
ATOM     29  C   UNL d   1      52.484  29.928  53.160  0.00  0.00     0.029 A 
ATOM     30  C   UNL d   1      52.714  30.512  53.705  0.00  0.00     0.032 A 
ENDBRANCH   3  26
TORSDOF 5
ENDMDL
MODEL 2
REMARK VINA RESULT:      -8.9      1.374      2.813
REMARK  5 active torsions:
REMARK  status: ('A' for Active; 'I' for Inactive)
REMARK       I    between atoms: C_3  and  N_1 
REMARK    1  A    between atoms: C_8  and  C_3 
REMARK    2  A    between atoms: S_4  and  N_9 
REMARK    3  A    between atoms: C_10  and  C_5 
REMARK    4  A    between atoms: C_11  and  C_6 
REMARK    5  A    between atoms: N_9  and  C_23 
ROOT
ATOM      1  N   UNL d   1      53.244  32.254  53.823  0.00  0.00    -0.193 N 
ATOM      2  N   UNL d   1      52.857  32.968  53.648  0.00  0.00    -0.163 NA
ATOM      3  C   UNL d   1      53.974  32.182  54.209  0.00  0.00     0.303 C 
ATOM      4  C   UNL d   1      52.765  31.633  53.542  0.00  0.00     0.088 A 
ATOM      5  C   UNL d   1      52.148  32.792  53.263  0.00  0.00     0.103 A 
ATOM      6  C   UNL d   1      52.095  31.967  53.199  0.00  0.00     0.040 A 
ATOM      7  O   UNL d   1      54.288  31.424  54.344  0.00  0.00    -0.263 OA
ENDROOT
BRANCH   5   8
ATOM      8  C   UNL d   1      51.593  33.338  52.990  0.00  0.00     0.019 A 
ATOM      9  C   UNL d   1      50.855  33.409  53.374  0.00  0.00     0.003 A 
ATOM     10  C   UNL d   1      50.304  33.952  53.101  0.00  0.00     0.020 A 
ATOM     11  C   UNL d   1      50.474  34.432  52.446  0.00  0.00     0.093 A 
ATOM     12  C   UNL d   1      51.210  34.359  52.065  0.00  0.00     0.020 A 
ATOM     13  C   UNL d   1      51.769  33.809  52.341  0.00  0.00     0.003 A 
BRANCH  11  14
ATOM     14  N   UNL d   1      49.923  34.982  52.166  0.00  0.00    -0.162 NA
BRANCH  14  15
ATOM     15  S   UNL d   1      49.207  34.738  51.847  0.00  0.00     0.266 S 
ATOM     16  O   UNL d   1      48.915  35.110  52.532  0.00  0.00    -0.203 OA
ATOM     17  O   UNL d   1      48.382  34.647  51.808  0.00  0.00    -0.203 OA
ATOM     18  C   UNL d   1      49.470  34.363  51.161  0.00  0.00     0.165 C 
ENDBRANCH  14  15
ENDBRANCH  11  14
ENDBRANCH   5   8
BRANCH   4  19
ATOM     19  C   UNL d   1      52.940  30.834  53.601  0.00  0.00     0.018 A 
ATOM     20  C   UNL d   1      52.760  30.431  54.299  0.00  0.00     0.004 A 
ATOM     21  C   UNL d   1      52.934  29.625  54.364  0.00  0.00     0.030 A 
ATOM     22  C   UNL d   1      53.283  29.236  53.735  0.00  0.00     0.140 A 
ATOM     23  C   UNL d   1      53.461  29.633  53.046  0.00  0.00     0.030 A 
ATOM     24  F   UNL d   1      53.458  28.422  53.803  0.00  0.00    -0.204 F 
ATOM     25  C   UNL d   1      53.292  30.432  52.972  0.00  0.00     0.004 A 
ENDBRANCH   4  19
BRANCH   3  26
ATOM     26  C   UNL d   1      54.377  32.848  54.453  0.00  0.00     0.158 A 
ATOM     27  O   UNL d   1      54.917  33.299  53.985  0.00  0.00    -0.300 OA
ATOM     28  C   UNL d   1      55.192  33.923  54.457  0.00  0.00     0.123 A 
ATOM     29  C   UNL d   1      54.835  33.863  55.196  0.00  0.00     0.029 A 
ATOM     30  C   UNL d   1      54.337  33.198  55.180  0.00  0.00     0.032 A 
ENDBRANCH   3  26
TORSDOF 5
ENDMDL
MODEL 3
REMARK VINA RESULT:      -7.7      2.700      5.203
REMARK  5 active torsions:
REMARK  status: ('A' for Active; 'I' for Inactive)
REMARK       I    between atoms: C_3  and  N_1 
REMARK    1  A    between atoms: C_8  and  C_3 
REMARK    2  A    between atoms: S_4  and  N_9 
REMARK    3  A    between atoms: C_10  and  C_5 
REMARK    4  A    between atoms: C_11  and  C_6 
REMARK    5  A    between atoms: N_9  and  C_23 
ROOT
ATOM      1  N   UNL d   1      51.977  33.870  53.292  0.00  0.00    -0.193 N 
ATOM      2  N   UNL d   1      52.496  33.267  53.534  0.00  0.00    -0.163 NA
ATOM      3  C   UNL d   1      52.048  34.674  53.482  0.00  0.00     0.303 C 
ATOM      4  C   UNL d   1      51.380  33.518  52.829  0.00  0.00     0.088 A 
ATOM      5  C   UNL d   1      52.224  32.551  53.225  0.00  0.00     0.103 A 
ATOM      6  C   UNL d   1      51.535  32.710  52.791  0.00  0.00     0.040 A 
ATOM      7  O   UNL d   1      51.480  35.209  53.196  0.00  0.00    -0.263 OA
ENDROOT
BRANCH   5   8
ATOM      8  C   UNL d   1      52.573  31.811  53.328  0.00  0.00     0.019 A 
ATOM      9  C   UNL d   1      52.149  31.119  53.136  0.00  0.00     0.003 A 
ATOM     10  C   UNL d   1      52.499  30.384  53.240  0.00  0.00     0.020 A 
ATOM     11  C   UNL d   1      53.271  30.323  53.535  0.00  0.00     0.093 A 
ATOM     12  C   UNL d   1      53.692  31.015  53.727  0.00  0.00     0.020 A 
ATOM     13  C   UNL d   1      53.339  31.760  53.622  0.00  0.00     0.003 A 
BRANCH  11  14
ATOM     14  N   UNL d   1      53.630  29.585  53.643  0.00  0.00    -0.162 NA
BRANCH  14  15
ATOM     15  S   UNL d   1      53.425  29.104  54.275  0.00  0.00     0.266 S 
ATOM     16  O   UNL d   1      53.037  28.684  53.671  0.00  0.00    -0.203 OA
ATOM     17  O   UNL d   1      53.066  28.459  54.656  0.00  0.00    -0.203 OA
ATOM     18  C   UNL d   1      53.801  29.501  54.893  0.00  0.00     0.165 C 
ENDBRANCH  14  15
ENDBRANCH  11  14
ENDBRANCH   5   8
BRANCH   4  19
ATOM     19  C   UNL d   1      50.753  33.915  52.479  0.00  0.00     0.018 A 
ATOM     20  C   UNL d   1      50.789  34.097  51.675  0.00  0.00     0.004 A 
ATOM     21  C   UNL d   1      50.161  34.498  51.316  0.00  0.00     0.030 A 
ATOM     22  C   UNL d   1      49.509  34.709  51.764  0.00  0.00     0.140 A 
ATOM     23  C   UNL d   1      49.474  34.529  52.557  0.00  0.00     0.030 A 
ATOM     24  F   UNL d   1      48.876  35.113  51.400  0.00  0.00    -0.204 F 
ATOM     25  C   UNL d   1      50.092  34.132  52.922  0.00  0.00     0.004 A 
ENDBRANCH   4  19
BRANCH   3  26
ATOM     26  C   UNL d   1      52.669  34.933  53.944  0.00  0.00     0.158 A 
ATOM     27  O   UNL d   1      52.715  34.881  54.786  0.00  0.00    -0.300 OA
ATOM     28  C   UNL d   1      53.440  35.211  55.014  0.00  0.00     0.123 A 
ATOM     29  C   UNL d   1      53.834  35.462  54.337  0.00  0.00     0.029 A 
ATOM     30  C   UNL d   1      53.349  35.285  53.685  0.00  0.00     0.032 A 
ENDBRANCH   3  26
TORSDOF 5
ENDMDL
