MODEL 1
REMARK VINA RESULT:      49.8      0.000      0.000
REMARK  6 active torsions:
REMARK  status: ('A' for Active; 'I' for Inactive)
REMARK    1  A    between atoms: C_3  and  S_1 
REMARK    2  A    between atoms: N_12  and  S_1 
REMARK    3  A    between atoms: C_6  and  C_16 
REMARK    4  A    between atoms: C_17  and  N_12 
REMARK    5  A    between atoms: O_18  and  C_13 
REMARK    6  A    between atoms: C_16  and  C_17 
ROOT
ATOM      1  S   UNL d   1     -51.249  25.463  33.503  0.00  0.00     0.285 S 
ATOM      2  O   UNL d   1     -51.827  26.029  33.306  0.00  0.00    -0.198 OA
ATOM      3  O   UNL d   1     -50.676  24.899  33.699  0.00  0.00    -0.198 OA
ENDROOT
BRANCH   1   4
ATOM      4  C   UNL d   1     -51.843  24.925  33.689  0.00  0.00     0.105 A 
ATOM      5  C   UNL d   1     -52.605  25.039  33.404  0.00  0.00     0.015 A 
ATOM      6  C   UNL d   1     -53.200  24.491  33.596  0.00  0.00     0.023 A 
ATOM      7  C   UNL d   1     -53.970  24.604  33.310  0.00  0.00     0.002 C 
ATOM      8  C   UNL d   1     -53.028  23.846  34.063  0.00  0.00     0.094 A 
ATOM      9  C   UNL d   1     -52.263  23.734  34.347  0.00  0.00     0.025 A 
ATOM     10  C   UNL d   1     -51.672  24.270  34.161  0.00  0.00     0.015 A 
BRANCH   8  11
ATOM     11  O   UNL d   1     -53.619  23.305  34.252  0.00  0.00    -0.328 OA
ATOM     12  C   UNL d   1     -53.840  23.192  35.034  0.00  0.00     0.181 C 
ENDBRANCH   8  11
ENDBRANCH   1   4
BRANCH   1  13
ATOM     13  N   UNL d   1     -50.659  26.009  33.314  0.00  0.00    -0.157 NA
BRANCH  13  14
ATOM     14  C   UNL d   1     -50.212  26.360  33.932  0.00  0.00     0.114 C 
BRANCH  14  15
ATOM     15  C   UNL d   1     -49.965  27.139  33.863  0.00  0.00     0.041 C 
BRANCH  15  16
ATOM     16  C   UNL d   1     -49.468  27.475  34.430  0.00  0.00     0.090 A 
ATOM     17  N   UNL d   1     -49.047  28.182  34.338  0.00  0.00    -0.238 NA
ATOM     18  C   UNL d   1     -48.623  28.310  35.038  0.00  0.00     0.111 A 
ATOM     19  C   UNL d   1     -48.120  28.955  35.197  0.00  0.00     0.028 C 
ATOM     20  S   UNL d   1     -48.780  27.689  35.558  0.00  0.00    -0.066 SA
ATOM     21  C   UNL d   1     -49.306  27.170  35.179  0.00  0.00     0.056 A 
ENDBRANCH  15  16
ENDBRANCH  14  15
ENDBRANCH  13  14
ENDBRANCH   1  13
TORSDOF 6
ENDMDL
MODEL 2
REMARK VINA RESULT:      50.2      2.694      6.429
REMARK  6 active torsions:
REMARK  status: ('A' for Active; 'I' for Inactive)
REMARK    1  A    between atoms: C_3  and  S_1 
REMARK    2  A    between atoms: N_12  and  S_1 
REMARK    3  A    between atoms: C_6  and  C_16 
REMARK    4  A    between atoms: C_17  and  N_12 
REMARK    5  A    between atoms: O_18  and  C_13 
REMARK    6  A    between atoms: C_16  and  C_17 
ROOT
ATOM      1  S   UNL d   1     -48.210  28.741  35.110  0.00  0.00     0.285 S 
ATOM      2  O   UNL d   1     -47.809  28.684  34.384  0.00  0.00    -0.198 OA
ATOM      3  O   UNL d   1     -48.608  28.800  35.834  0.00  0.00    -0.198 OA
ENDROOT
BRANCH   1   4
ATOM      4  C   UNL d   1     -47.908  29.499  35.214  0.00  0.00     0.105 A 
ATOM      5  C   UNL d   1     -47.454  29.674  35.876  0.00  0.00     0.015 A 
ATOM      6  C   UNL d   1     -47.152  30.443  35.974  0.00  0.00     0.023 A 
ATOM      7  C   UNL d   1     -46.693  30.621  36.640  0.00  0.00     0.002 C 
ATOM      8  C   UNL d   1     -47.306  31.017  35.418  0.00  0.00     0.094 A 
ATOM      9  C   UNL d   1     -47.763  30.840  34.754  0.00  0.00     0.025 A 
ATOM     10  C   UNL d   1     -48.062  30.085  34.653  0.00  0.00     0.015 A 
BRANCH   8  11
ATOM     11  O   UNL d   1     -47.007  31.777  35.517  0.00  0.00    -0.328 OA
ATOM     12  C   UNL d   1     -47.387  32.419  35.175  0.00  0.00     0.181 C 
ENDBRANCH   8  11
ENDBRANCH   1   4
BRANCH   1  13
ATOM     13  N   UNL d   1     -48.509  27.980  34.998  0.00  0.00    -0.157 NA
BRANCH  13  14
ATOM     14  C   UNL d   1     -49.094  27.851  34.410  0.00  0.00     0.114 C 
BRANCH  14  15
ATOM     15  C   UNL d   1     -49.176  27.107  34.076  0.00  0.00     0.041 C 
BRANCH  15  16
ATOM     16  C   UNL d   1     -49.910  26.848  33.800  0.00  0.00     0.090 A 
ATOM     17  N   UNL d   1     -50.152  26.057  33.754  0.00  0.00    -0.238 NA
ATOM     18  C   UNL d   1     -50.922  26.051  33.449  0.00  0.00     0.111 A 
ATOM     19  C   UNL d   1     -51.389  25.376  33.306  0.00  0.00     0.028 C 
ATOM     20  S   UNL d   1     -51.154  26.830  33.307  0.00  0.00    -0.066 SA
ATOM     21  C   UNL d   1     -50.524  27.325  33.526  0.00  0.00     0.056 A 
ENDBRANCH  15  16
ENDBRANCH  14  15
ENDBRANCH  13  14
ENDBRANCH   1  13
TORSDOF 6
ENDMDL
MODEL 3
REMARK VINA RESULT:      51.3      3.031      6.357
REMARK  6 active torsions:
REMARK  status: ('A' for Active; 'I' for Inactive)
REMARK    1  A    between atoms: C_3  and  S_1 
REMARK    2  A    between atoms: N_12  and  S_1 
REMARK    3  A    between atoms: C_6  and  C_16 
REMARK    4  A    between atoms: C_17  and  N_12 
REMARK    5  A    between atoms: O_18  and  C_13 
REMARK    6  A    between atoms: C_16  and  C_17 
ROOT
ATOM      1  S   UNL d   1     -48.115  28.837  35.132  0.00  0.00     0.285 S 
ATOM      2  O   UNL d   1     -47.878  28.875  34.335  0.00  0.00    -0.198 OA
ATOM      3  O   UNL d   1     -48.351  28.802  35.925  0.00  0.00    -0.198 OA
ENDROOT
BRANCH   1   4
ATOM      4  C   UNL d   1     -47.888  29.621  35.234  0.00  0.00     0.105 A 
ATOM      5  C   UNL d   1     -48.174  30.202  34.728  0.00  0.00     0.015 A 
ATOM      6  C   UNL d   1     -47.940  30.992  34.838  0.00  0.00     0.023 A 
ATOM      7  C   UNL d   1     -48.227  31.580  34.329  0.00  0.00     0.002 C 
ATOM      8  C   UNL d   1     -47.430  31.189  35.442  0.00  0.00     0.094 A 
ATOM      9  C   UNL d   1     -47.144  30.604  35.948  0.00  0.00     0.025 A 
ATOM     10  C   UNL d   1     -47.371  29.824  35.845  0.00  0.00     0.015 A 
BRANCH   8  11
ATOM     11  O   UNL d   1     -47.200  31.971  35.548  0.00  0.00    -0.328 OA
ATOM     12  C   UNL d   1     -47.259  32.507  34.930  0.00  0.00     0.181 C 
ENDBRANCH   8  11
ENDBRANCH   1   4
BRANCH   1  13
ATOM     13  N   UNL d   1     -48.341  28.051  35.021  0.00  0.00    -0.157 NA
BRANCH  13  14
ATOM     14  C   UNL d   1     -48.986  27.877  34.513  0.00  0.00     0.114 C 
BRANCH  14  15
ATOM     15  C   UNL d   1     -48.973  27.194  34.060  0.00  0.00     0.041 C 
BRANCH  15  16
ATOM     16  C   UNL d   1     -49.677  26.853  33.792  0.00  0.00     0.090 A 
ATOM     17  N   UNL d   1     -50.408  27.239  33.746  0.00  0.00    -0.238 NA
ATOM     18  C   UNL d   1     -50.957  26.694  33.449  0.00  0.00     0.111 A 
ATOM     19  C   UNL d   1     -51.766  26.838  33.310  0.00  0.00     0.028 C 
ATOM     20  S   UNL d   1     -50.569  25.979  33.313  0.00  0.00    -0.066 SA
ATOM     21  C   UNL d   1     -49.773  26.078  33.526  0.00  0.00     0.056 A 
ENDBRANCH  15  16
ENDBRANCH  14  15
ENDBRANCH  13  14
ENDBRANCH   1  13
TORSDOF 6
ENDMDL
