MODEL 1
REMARK VINA RESULT:      81.3      0.000      0.000
REMARK  4 active torsions:
REMARK  status: ('A' for Active; 'I' for Inactive)
REMARK    1  A    between atoms: C_7  and  N_1 
REMARK    2  A    between atoms: C_9  and  C_7 
REMARK       I    between atoms: N_16  and  C_9 
REMARK    3  A    between atoms: C_21  and  N_16 
REMARK    4  A    between atoms: C_20  and  C_21 
ROOT
ATOM      1  C   UNL d   1      61.162  49.700  50.210  0.00  0.00     0.146 C 
ENDROOT
BRANCH   1   2
ATOM      2  N   UNL d   1      60.348  49.702  50.294  0.00  0.00    -0.269 N 
ATOM      3  C   UNL d   1      59.894  49.702  49.612  0.00  0.00     0.265 A 
ATOM      4  C   UNL d   1      59.030  49.704  49.580  0.00  0.00     0.068 A 
ATOM      5  O   UNL d   1      60.309  49.701  48.884  0.00  0.00    -0.267 OA
ATOM      6  C   UNL d   1      58.483  49.705  50.233  0.00  0.00     0.034 A 
ATOM      7  C   UNL d   1      57.692  49.707  50.047  0.00  0.00     0.007 C 
ATOM      8  S   UNL d   1      58.670  49.706  51.031  0.00  0.00    -0.085 SA
ATOM      9  C   UNL d   1      59.318  49.705  51.297  0.00  0.00     0.046 A 
ATOM     10  C   UNL d   1      60.097  49.703  50.976  0.00  0.00     0.073 A 
ATOM     11  C   UNL d   1      59.218  49.705  52.130  0.00  0.00     0.008 A 
ATOM     12  C   UNL d   1      60.761  49.702  51.476  0.00  0.00     0.018 A 
ATOM     13  C   UNL d   1      60.658  49.703  52.302  0.00  0.00     0.002 A 
ATOM     14  C   UNL d   1      59.883  49.705  52.630  0.00  0.00     0.001 A 
ENDBRANCH   1   2
BRANCH   1  15
ATOM     15  C   UNL d   1      61.586  49.029  50.423  0.00  0.00     0.297 C 
ATOM     16  N   UNL d   1      61.407  48.299  50.109  0.00  0.00    -0.205 NA
ATOM     17  O   UNL d   1      62.200  49.098  50.961  0.00  0.00    -0.264 OA
BRANCH  16  18
ATOM     18  C   UNL d   1      61.828  47.641  50.323  0.00  0.00     0.102 C 
BRANCH  18  19
ATOM     19  C   UNL d   1      61.554  46.896  50.128  0.00  0.00     0.021 A 
ATOM     20  C   UNL d   1      61.407  46.350  50.727  0.00  0.00     0.028 A 
ATOM     21  C   UNL d   1      61.129  45.594  50.528  0.00  0.00     0.119 A 
ATOM     22  O   UNL d   1      60.937  44.951  50.973  0.00  0.00    -0.300 OA
ATOM     23  C   UNL d   1      61.006  45.405  49.744  0.00  0.00     0.119 A 
ATOM     24  C   UNL d   1      60.693  44.355  50.474  0.00  0.00     0.304 A 
ATOM     25  O   UNL d   1      60.734  44.631  49.709  0.00  0.00    -0.300 OA
ATOM     26  C   UNL d   1      61.158  45.963  49.154  0.00  0.00     0.026 A 
ATOM     27  C   UNL d   1      61.432  46.707  49.357  0.00  0.00     0.004 A 
ENDBRANCH  18  19
ENDBRANCH  16  18
ENDBRANCH   1  15
TORSDOF 4
ENDMDL
MODEL 2
REMARK VINA RESULT:      82.0      0.983      1.911
REMARK  4 active torsions:
REMARK  status: ('A' for Active; 'I' for Inactive)
REMARK    1  A    between atoms: C_7  and  N_1 
REMARK    2  A    between atoms: C_9  and  C_7 
REMARK       I    between atoms: N_16  and  C_9 
REMARK    3  A    between atoms: C_21  and  N_16 
REMARK    4  A    between atoms: C_20  and  C_21 
ROOT
ATOM      1  C   UNL d   1      60.919  49.705  51.109  0.00  0.00     0.146 C 
ENDROOT
BRANCH   1   2
ATOM      2  N   UNL d   1      60.334  49.705  51.682  0.00  0.00    -0.269 N 
ATOM      3  C   UNL d   1      60.569  49.705  52.467  0.00  0.00     0.265 A 
ATOM      4  C   UNL d   1      60.041  49.705  53.152  0.00  0.00     0.068 A 
ATOM      5  O   UNL d   1      61.394  49.706  52.613  0.00  0.00    -0.267 OA
ATOM      6  C   UNL d   1      59.190  49.705  53.156  0.00  0.00     0.034 A 
ATOM      7  C   UNL d   1      58.828  49.705  53.884  0.00  0.00     0.007 C 
ATOM      8  S   UNL d   1      58.695  49.704  52.502  0.00  0.00    -0.085 SA
ATOM      9  C   UNL d   1      58.905  49.704  51.834  0.00  0.00     0.046 A 
ATOM     10  C   UNL d   1      59.649  49.704  51.440  0.00  0.00     0.073 A 
ATOM     11  C   UNL d   1      58.200  49.704  51.379  0.00  0.00     0.008 A 
ATOM     12  C   UNL d   1      59.688  49.704  50.609  0.00  0.00     0.018 A 
ATOM     13  C   UNL d   1      58.987  49.704  50.161  0.00  0.00     0.002 A 
ATOM     14  C   UNL d   1      58.239  49.703  50.548  0.00  0.00     0.001 A 
ENDBRANCH   1   2
BRANCH   1  15
ATOM     15  C   UNL d   1      61.429  49.062  51.057  0.00  0.00     0.297 C 
ATOM     16  N   UNL d   1      61.280  48.446  50.545  0.00  0.00    -0.205 NA
ATOM     17  O   UNL d   1      62.098  49.043  51.528  0.00  0.00    -0.264 OA
BRANCH  16  18
ATOM     18  C   UNL d   1      61.786  47.815  50.497  0.00  0.00     0.102 C 
BRANCH  18  19
ATOM     19  C   UNL d   1      61.501  47.072  50.310  0.00  0.00     0.021 A 
ATOM     20  C   UNL d   1      62.004  46.523  49.958  0.00  0.00     0.028 A 
ATOM     21  C   UNL d   1      61.712  45.769  49.769  0.00  0.00     0.119 A 
ATOM     22  O   UNL d   1      62.055  45.124  49.430  0.00  0.00    -0.300 OA
ATOM     23  C   UNL d   1      60.935  45.586  49.935  0.00  0.00     0.119 A 
ATOM     24  C   UNL d   1      61.497  44.532  49.380  0.00  0.00     0.304 A 
ATOM     25  O   UNL d   1      60.799  44.813  49.692  0.00  0.00    -0.300 OA
ATOM     26  C   UNL d   1      60.443  46.147  50.288  0.00  0.00     0.026 A 
ATOM     27  C   UNL d   1      60.736  46.888  50.472  0.00  0.00     0.004 A 
ENDBRANCH  18  19
ENDBRANCH  16  18
ENDBRANCH   1  15
TORSDOF 4
ENDMDL
