MODEL 1
REMARK VINA RESULT:      69.8      0.000      0.000
REMARK  6 active torsions:
REMARK  status: ('A' for Active; 'I' for Inactive)
REMARK    1  A    between atoms: C_6  and  C_1 
REMARK    2  A    between atoms: C_8  and  C_4 
REMARK       I    between atoms: N_22  and  C_6 
REMARK    3  A    between atoms: N_9  and  C_23 
REMARK    4  A    between atoms: C_25  and  N_22 
REMARK    5  A    between atoms: C_23  and  C_24 
REMARK    6  A    between atoms: C_24  and  C_25 
ROOT
ATOM      1  C   UNL d   1      60.585  48.608  50.491  0.00  0.00     0.168 A 
ATOM      2  N   UNL d   1      60.677  49.317  50.880  0.00  0.00    -0.121 NA
ATOM      3  C   UNL d   1      59.772  48.496  50.358  0.00  0.00     0.053 A 
ATOM      4  C   UNL d   1      59.379  49.141  50.670  0.00  0.00     0.127 A 
ATOM      5  O   UNL d   1      59.943  49.647  50.992  0.00  0.00    -0.211 OA
ENDROOT
BRANCH   1   6
ATOM      6  C   UNL d   1      61.724  47.556  50.027  0.00  0.00     0.299 C 
ATOM      7  O   UNL d   1      62.479  47.548  50.345  0.00  0.00    -0.263 OA
ATOM      8  N   UNL d   1      61.529  46.981  49.422  0.00  0.00    -0.205 NA
BRANCH   8   9
ATOM      9  C   UNL d   1      62.126  46.407  49.159  0.00  0.00     0.104 C 
BRANCH   9  10
ATOM     10  C   UNL d   1      62.322  45.741  49.663  0.00  0.00     0.040 C 
BRANCH  10  11
ATOM     11  C   UNL d   1      61.973  44.970  49.521  0.00  0.00     0.083 C 
BRANCH  11  12
ATOM     12  N   UNL d   1      61.656  44.508  50.171  0.00  0.00    -0.285 N 
ATOM     13  C   UNL d   1      61.073  44.770  50.742  0.00  0.00     0.183 A 
ATOM     14  N   UNL d   1      60.934  44.106  51.289  0.00  0.00    -0.222 NA
ATOM     15  C   UNL d   1      61.416  43.463  51.058  0.00  0.00     0.120 A 
ATOM     16  C   UNL d   1      61.873  43.696  50.362  0.00  0.00     0.102 A 
ENDBRANCH  11  12
ENDBRANCH  10  11
ENDBRANCH   9  10
ENDBRANCH   8   9
ENDBRANCH   1   6
BRANCH   4  17
ATOM     17  C   UNL d   1      58.587  49.289  50.679  0.00  0.00     0.027 A 
ATOM     18  C   UNL d   1      58.154  49.254  49.983  0.00  0.00     0.028 A 
ATOM     19  C   UNL d   1      57.360  49.403  49.999  0.00  0.00     0.119 A 
ATOM     20  O   UNL d   1      56.799  49.409  49.407  0.00  0.00    -0.300 OA
ATOM     21  C   UNL d   1      56.975  49.587  50.692  0.00  0.00     0.119 A 
ATOM     22  C   UNL d   1      56.081  49.595  49.734  0.00  0.00     0.304 A 
ATOM     23  O   UNL d   1      56.187  49.706  50.531  0.00  0.00    -0.300 OA
ATOM     24  C   UNL d   1      57.404  49.624  51.395  0.00  0.00     0.026 A 
ATOM     25  C   UNL d   1      58.194  49.477  51.384  0.00  0.00     0.004 A 
ENDBRANCH   4  17
TORSDOF 6
ENDMDL
