MODEL 1
REMARK VINA RESULT:      51.2      0.000      0.000
REMARK  4 active torsions:
REMARK  status: ('A' for Active; 'I' for Inactive)
REMARK    1  A    between atoms: C_9  and  N_1 
REMARK    2  A    between atoms: C_2  and  N_5 
REMARK    3  A    between atoms: N_5  and  O_12 
REMARK    4  A    between atoms: O_12  and  C_16 
ROOT
ATOM      1  N   UNL d   1      60.798  49.591  50.923  0.00  0.00    -0.126 NA
ENDROOT
BRANCH   1   2
ATOM      2  C   UNL d   1      59.974  49.620  50.914  0.00  0.00     0.108 A 
ATOM      3  C   UNL d   1      59.556  49.626  51.637  0.00  0.00     0.023 A 
ATOM      4  C   UNL d   1      58.752  49.654  51.628  0.00  0.00     0.044 A 
ATOM      5  C   UNL d   1      59.984  49.603  52.397  0.00  0.00     0.002 C 
ATOM      6  C   UNL d   1      58.341  49.677  50.896  0.00  0.00     0.196 A 
ATOM      7  C   UNL d   1      58.769  49.670  50.205  0.00  0.00     0.044 A 
ATOM      8  O   UNL d   1      57.516  49.705  50.886  0.00  0.00    -0.287 OA
ATOM      9  C   UNL d   1      59.593  49.641  50.215  0.00  0.00     0.023 A 
ATOM     10  C   UNL d   1      59.973  49.635  49.550  0.00  0.00     0.002 C 
ENDBRANCH   1   2
BRANCH   1  11
ATOM     11  O   UNL d   1      61.193  48.963  51.254  0.00  0.00    -0.211 OA
BRANCH  11  12
ATOM     12  C   UNL d   1      61.369  48.304  50.819  0.00  0.00     0.125 A 
ATOM     13  C   UNL d   1      61.749  48.377  50.078  0.00  0.00     0.029 A 
ATOM     14  C   UNL d   1      61.928  47.705  49.635  0.00  0.00     0.026 A 
ATOM     15  C   UNL d   1      61.730  46.950  49.927  0.00  0.00     0.127 A 
ATOM     16  C   UNL d   1      61.355  46.878  50.657  0.00  0.00     0.026 A 
ATOM     17  C   UNL d   1      61.172  47.564  51.110  0.00  0.00     0.029 A 
BRANCH  15  18
ATOM     18  N   UNL d   1      61.906  46.287  49.490  0.00  0.00    -0.114 N 
ATOM     19  O   UNL d   1      61.361  45.740  49.205  0.00  0.00    -0.532 OA
ATOM     20  O   UNL d   1      62.660  46.075  49.273  0.00  0.00    -0.532 OA
ENDBRANCH  15  18
ENDBRANCH  11  12
ENDBRANCH   1  11
TORSDOF 4
ENDMDL
