MODEL 1
REMARK VINA RESULT:      54.6      0.000      0.000
REMARK  6 active torsions:
REMARK  status: ('A' for Active; 'I' for Inactive)
REMARK    1  A    between atoms: C_9  and  N_1 
REMARK    2  A    between atoms: N_6  and  C_2 
REMARK    3  A    between atoms: C_7  and  C_5 
REMARK    4  A    between atoms: C_13  and  N_6 
REMARK    5  A    between atoms: C_8  and  C_7 
REMARK       I    between atoms: N_10  and  C_8 
REMARK    6  A    between atoms: C_14  and  N_10 
ROOT
ATOM      1  N   UNL d   1      13.849  13.191  -3.583  0.00  0.00    -0.254 N 
ATOM      2  C   UNL d   1      14.016  12.920  -2.821  0.00  0.00     0.182 A 
ATOM      3  C   UNL d   1      13.904  13.984  -3.592  0.00  0.00     0.272 A 
ATOM      4  S   UNL d   1      14.180  13.599  -2.352  0.00  0.00    -0.045 SA
ATOM      5  C   UNL d   1      14.108  14.258  -2.837  0.00  0.00     0.093 A 
ATOM      6  O   UNL d   1      13.779  14.467  -4.245  0.00  0.00    -0.266 OA
ENDROOT
BRANCH   5   7
ATOM      7  C   UNL d   1      14.219  15.031  -2.613  0.00  0.00     0.074 C 
BRANCH   7   8
ATOM      8  C   UNL d   1      14.750  15.202  -2.008  0.00  0.00     0.280 C 
ATOM      9  N   UNL d   1      15.207  15.907  -2.064  0.00  0.00    -0.208 NA
ATOM     10  O   UNL d   1      14.829  14.711  -1.382  0.00  0.00    -0.265 OA
BRANCH   9  11
ATOM     11  C   UNL d   1      15.114  16.397  -2.709  0.00  0.00     0.085 A 
ATOM     12  C   UNL d   1      14.524  16.984  -2.700  0.00  0.00     0.019 A 
ATOM     13  C   UNL d   1      14.420  17.491  -3.354  0.00  0.00     0.002 A 
ATOM     14  C   UNL d   1      14.913  17.397  -4.008  0.00  0.00     0.000 A 
ATOM     15  C   UNL d   1      15.503  16.810  -4.020  0.00  0.00     0.002 A 
ATOM     16  C   UNL d   1      15.604  16.312  -3.373  0.00  0.00     0.019 A 
ENDBRANCH   9  11
ENDBRANCH   7   8
ENDBRANCH   5   7
BRANCH   1  17
ATOM     17  C   UNL d   1      13.660  12.725  -4.219  0.00  0.00     0.069 A 
ATOM     18  C   UNL d   1      14.189  12.679  -4.859  0.00  0.00     0.018 A 
ATOM     19  C   UNL d   1      14.006  12.205  -5.517  0.00  0.00     0.002 A 
ATOM     20  C   UNL d   1      13.297  11.781  -5.527  0.00  0.00     0.000 A 
ATOM     21  C   UNL d   1      12.769  11.827  -4.887  0.00  0.00     0.002 A 
ATOM     22  C   UNL d   1      12.958  12.299  -4.240  0.00  0.00     0.018 A 
ENDBRANCH   1  17
BRANCH   2  23
ATOM     23  N   UNL d   1      14.037  12.164  -2.516  0.00  0.00    -0.222 NA
BRANCH  23  24
ATOM     24  C   UNL d   1      14.096  12.040  -1.711  0.00  0.00     0.084 A 
ATOM     25  C   UNL d   1      13.416  11.940  -1.256  0.00  0.00     0.019 A 
ATOM     26  C   UNL d   1      13.485  11.814  -0.434  0.00  0.00     0.002 A 
ATOM     27  C   UNL d   1      14.213  11.789  -0.088  0.00  0.00     0.000 A 
ATOM     28  C   UNL d   1      14.900  11.890  -0.546  0.00  0.00     0.002 A 
ATOM     29  C   UNL d   1      14.841  12.015  -1.359  0.00  0.00     0.019 A 
ENDBRANCH  23  24
ENDBRANCH   2  23
TORSDOF 6
ENDMDL
MODEL 2
REMARK VINA RESULT:      56.1      1.580      3.892
REMARK  6 active torsions:
REMARK  status: ('A' for Active; 'I' for Inactive)
REMARK    1  A    between atoms: C_9  and  N_1 
REMARK    2  A    between atoms: N_6  and  C_2 
REMARK    3  A    between atoms: C_7  and  C_5 
REMARK    4  A    between atoms: C_13  and  N_6 
REMARK    5  A    between atoms: C_8  and  C_7 
REMARK       I    between atoms: N_10  and  C_8 
REMARK    6  A    between atoms: C_14  and  N_10 
ROOT
ATOM      1  N   UNL d   1      13.528  13.057  -3.084  0.00  0.00    -0.254 N 
ATOM      2  C   UNL d   1      13.235  12.324  -3.326  0.00  0.00     0.182 A 
ATOM      3  C   UNL d   1      13.849  12.980  -2.361  0.00  0.00     0.272 A 
ATOM      4  S   UNL d   1      13.393  11.781  -2.703  0.00  0.00    -0.045 SA
ATOM      5  C   UNL d   1      13.776  12.195  -2.105  0.00  0.00     0.093 A 
ATOM      6  O   UNL d   1      14.201  13.581  -1.925  0.00  0.00    -0.266 OA
ENDROOT
BRANCH   5   7
ATOM      7  C   UNL d   1      14.031  11.887  -1.398  0.00  0.00     0.074 C 
BRANCH   7   8
ATOM      8  C   UNL d   1      13.560  11.971  -0.729  0.00  0.00     0.280 C 
ATOM      9  N   UNL d   1      13.914  12.264  -0.024  0.00  0.00    -0.208 NA
ATOM     10  O   UNL d   1      12.784  11.780  -0.749  0.00  0.00    -0.265 OA
BRANCH   9  11
ATOM     11  C   UNL d   1      14.707  12.455  -0.021  0.00  0.00     0.085 A 
ATOM     12  C   UNL d   1      14.939  13.253  -0.017  0.00  0.00     0.019 A 
ATOM     13  C   UNL d   1      15.748  13.460  -0.014  0.00  0.00     0.002 A 
ATOM     14  C   UNL d   1      16.309  12.855  -0.015  0.00  0.00     0.000 A 
ATOM     15  C   UNL d   1      16.079  12.056  -0.019  0.00  0.00     0.002 A 
ATOM     16  C   UNL d   1      15.281  11.856  -0.022  0.00  0.00     0.019 A 
ENDBRANCH   9  11
ENDBRANCH   7   8
ENDBRANCH   5   7
BRANCH   1  17
ATOM     17  C   UNL d   1      13.496  13.744  -3.514  0.00  0.00     0.069 A 
ATOM     18  C   UNL d   1      14.180  14.210  -3.585  0.00  0.00     0.018 A 
ATOM     19  C   UNL d   1      14.160  14.916  -4.023  0.00  0.00     0.002 A 
ATOM     20  C   UNL d   1      13.454  15.148  -4.386  0.00  0.00     0.000 A 
ATOM     21  C   UNL d   1      12.770  14.681  -4.315  0.00  0.00     0.002 A 
ATOM     22  C   UNL d   1      12.800  13.984  -3.879  0.00  0.00     0.018 A 
ENDBRANCH   1  17
BRANCH   2  23
ATOM     23  N   UNL d   1      12.857  12.101  -4.013  0.00  0.00    -0.222 NA
BRANCH  23  24
ATOM     24  C   UNL d   1      13.278  11.994  -4.705  0.00  0.00     0.084 A 
ATOM     25  C   UNL d   1      14.099  11.930  -4.684  0.00  0.00     0.019 A 
ATOM     26  C   UNL d   1      14.522  11.822  -5.396  0.00  0.00     0.002 A 
ATOM     27  C   UNL d   1      14.127  11.780  -6.098  0.00  0.00     0.000 A 
ATOM     28  C   UNL d   1      13.299  11.845  -6.121  0.00  0.00     0.002 A 
ATOM     29  C   UNL d   1      12.874  11.952  -5.422  0.00  0.00     0.019 A 
ENDBRANCH  23  24
ENDBRANCH   2  23
TORSDOF 6
ENDMDL
MODEL 3
REMARK VINA RESULT:      56.6      0.980      2.943
REMARK  6 active torsions:
REMARK  status: ('A' for Active; 'I' for Inactive)
REMARK    1  A    between atoms: C_9  and  N_1 
REMARK    2  A    between atoms: N_6  and  C_2 
REMARK    3  A    between atoms: C_7  and  C_5 
REMARK    4  A    between atoms: C_13  and  N_6 
REMARK    5  A    between atoms: C_8  and  C_7 
REMARK       I    between atoms: N_10  and  C_8 
REMARK    6  A    between atoms: C_14  and  N_10 
ROOT
ATOM      1  N   UNL d   1      14.360  13.432  -1.839  0.00  0.00    -0.254 N 
ATOM      2  C   UNL d   1      13.911  13.335  -2.524  0.00  0.00     0.182 A 
ATOM      3  C   UNL d   1      14.710  14.145  -1.858  0.00  0.00     0.272 A 
ATOM      4  S   UNL d   1      14.002  14.038  -2.976  0.00  0.00    -0.045 SA
ATOM      5  C   UNL d   1      14.500  14.539  -2.557  0.00  0.00     0.093 A 
ATOM      6  O   UNL d   1      15.204  14.455  -1.279  0.00  0.00    -0.266 OA
ENDROOT
BRANCH   5   7
ATOM      7  C   UNL d   1      14.740  15.280  -2.789  0.00  0.00     0.074 C 
BRANCH   7   8
ATOM      8  C   UNL d   1      14.655  15.911  -2.267  0.00  0.00     0.280 C 
ATOM      9  N   UNL d   1      14.792  16.690  -2.556  0.00  0.00    -0.208 NA
ATOM     10  O   UNL d   1      14.449  15.787  -1.505  0.00  0.00    -0.265 OA
BRANCH   9  11
ATOM     11  C   UNL d   1      15.001  16.799  -3.336  0.00  0.00     0.085 A 
ATOM     12  C   UNL d   1      14.461  16.610  -3.939  0.00  0.00     0.019 A 
ATOM     13  C   UNL d   1      14.666  16.718  -4.741  0.00  0.00     0.002 A 
ATOM     14  C   UNL d   1      15.414  17.015  -4.921  0.00  0.00     0.000 A 
ATOM     15  C   UNL d   1      15.956  17.205  -4.319  0.00  0.00     0.002 A 
ATOM     16  C   UNL d   1      15.751  17.097  -3.529  0.00  0.00     0.019 A 
ENDBRANCH   9  11
ENDBRANCH   7   8
ENDBRANCH   5   7
BRANCH   1  17
ATOM     17  C   UNL d   1      14.434  12.887  -1.241  0.00  0.00     0.069 A 
ATOM     18  C   UNL d   1      13.787  12.749  -0.738  0.00  0.00     0.018 A 
ATOM     19  C   UNL d   1      13.850  12.194  -0.122  0.00  0.00     0.002 A 
ATOM     20  C   UNL d   1      14.559  11.783  -0.017  0.00  0.00     0.000 A 
ATOM     21  C   UNL d   1      15.206  11.922  -0.521  0.00  0.00     0.002 A 
ATOM     22  C   UNL d   1      15.134  12.474  -1.128  0.00  0.00     0.018 A 
ENDBRANCH   1  17
BRANCH   2  23
ATOM     23  N   UNL d   1      13.449  12.712  -2.776  0.00  0.00    -0.222 NA
BRANCH  23  24
ATOM     24  C   UNL d   1      13.260  12.624  -3.566  0.00  0.00     0.084 A 
ATOM     25  C   UNL d   1      13.178  13.288  -4.048  0.00  0.00     0.019 A 
ATOM     26  C   UNL d   1      12.985  13.189  -4.854  0.00  0.00     0.002 A 
ATOM     27  C   UNL d   1      12.880  12.449  -5.158  0.00  0.00     0.000 A 
ATOM     28  C   UNL d   1      12.963  11.779  -4.673  0.00  0.00     0.002 A 
ATOM     29  C   UNL d   1      13.153  11.868  -3.875  0.00  0.00     0.019 A 
ENDBRANCH  23  24
ENDBRANCH   2  23
TORSDOF 6
ENDMDL
