MODEL 1
REMARK VINA RESULT:      -2.7      0.000      0.000
REMARK  9 active torsions:
REMARK  status: ('A' for Active; 'I' for Inactive)
REMARK    1  A    between atoms: N_6  and  C_1 
REMARK    2  A    between atoms: N_2  and  C_12 
REMARK    3  A    between atoms: C_3  and  N_6 
REMARK    4  A    between atoms: N_4  and  C_3 
REMARK       I    between atoms: C_7  and  N_4 
REMARK    5  A    between atoms: C_16  and  C_7 
REMARK    6  A    between atoms: C_10  and  C_8 
REMARK    7  A    between atoms: C_13  and  C_10 
REMARK    8  A    between atoms: O_24  and  C_13 
REMARK    9  A    between atoms: C_25  and  O_24 
ROOT
ATOM      1  C   UNL d   1      32.635  17.784 -23.755  0.00  0.00     0.277 C 
ATOM      2  S   UNL d   1      33.239  17.347 -24.107  0.00  0.00    -0.023 SA
ENDROOT
BRANCH   1   3
ATOM      3  N   UNL d   1      32.784  18.554 -23.496  0.00  0.00    -0.347 NA
BRANCH   3   4
ATOM      4  C   UNL d   1      32.936  19.322 -23.242  0.00  0.00     0.248 A 
ATOM      5  N   UNL d   1      32.973  19.585 -22.455  0.00  0.00    -0.210 NA
ATOM      6  C   UNL d   1      33.139  20.393 -22.465  0.00  0.00     0.096 A 
ATOM      7  C   UNL d   1      33.204  20.628 -23.254  0.00  0.00     0.059 A 
ATOM      8  S   UNL d   1      33.080  19.975 -23.727  0.00  0.00    -0.033 SA
BRANCH   6   9
ATOM      9  C   UNL d   1      33.224  20.873 -21.804  0.00  0.00     0.088 C 
BRANCH   9  10
ATOM     10  C   UNL d   1      32.565  21.201 -21.439  0.00  0.00     0.302 C 
ATOM     11  O   UNL d   1      32.022  20.705 -21.067  0.00  0.00    -0.259 OA
BRANCH  10  12
ATOM     12  O   UNL d   1      32.446  22.013 -21.443  0.00  0.00    -0.271 OA
BRANCH  12  13
ATOM     13  C   UNL d   1      31.973  22.365 -20.868  0.00  0.00     0.126 C 
ATOM     14  C   UNL d   1      32.067  23.161 -20.688  0.00  0.00     0.029 C 
ENDBRANCH  12  13
ENDBRANCH  10  12
ENDBRANCH   9  10
ENDBRANCH   6   9
ENDBRANCH   3   4
ENDBRANCH   1   3
BRANCH   1  15
ATOM     15  N   UNL d   1      31.889  17.449 -23.663  0.00  0.00    -0.168 NA
ATOM     16  C   UNL d   1      31.403  17.327 -24.322  0.00  0.00     0.282 C 
ATOM     17  O   UNL d   1      31.663  17.540 -25.071  0.00  0.00    -0.265 OA
BRANCH  16  18
ATOM     18  C   UNL d   1      30.654  16.989 -24.223  0.00  0.00     0.058 A 
ATOM     19  C   UNL d   1      30.010  17.303 -24.610  0.00  0.00     0.006 A 
ATOM     20  C   UNL d   1      29.261  16.964 -24.510  0.00  0.00     0.024 A 
ATOM     21  C   UNL d   1      29.169  16.307 -24.017  0.00  0.00     0.127 A 
ATOM     22  C   UNL d   1      29.828  15.990 -23.624  0.00  0.00     0.024 A 
ATOM     23  C   UNL d   1      30.568  16.329 -23.726  0.00  0.00     0.006 A 
BRANCH  21  24
ATOM     24  N   UNL d   1      28.427  15.966 -23.914  0.00  0.00    -0.114 N 
ATOM     25  O   UNL d   1      27.927  15.852 -24.564  0.00  0.00    -0.532 OA
ATOM     26  O   UNL d   1      28.184  15.740 -23.163  0.00  0.00    -0.532 OA
ENDBRANCH  21  24
ENDBRANCH  16  18
ENDBRANCH   1  15
TORSDOF 9
ENDMDL
MODEL 2
REMARK VINA RESULT:      -1.9      2.416      3.064
REMARK  9 active torsions:
REMARK  status: ('A' for Active; 'I' for Inactive)
REMARK    1  A    between atoms: N_6  and  C_1 
REMARK    2  A    between atoms: N_2  and  C_12 
REMARK    3  A    between atoms: C_3  and  N_6 
REMARK    4  A    between atoms: N_4  and  C_3 
REMARK       I    between atoms: C_7  and  N_4 
REMARK    5  A    between atoms: C_16  and  C_7 
REMARK    6  A    between atoms: C_10  and  C_8 
REMARK    7  A    between atoms: C_13  and  C_10 
REMARK    8  A    between atoms: O_24  and  C_13 
REMARK    9  A    between atoms: C_25  and  O_24 
ROOT
ATOM      1  C   UNL d   1      33.238  20.401 -23.256  0.00  0.00     0.277 C 
ATOM      2  S   UNL d   1      33.241  20.819 -23.967  0.00  0.00    -0.023 SA
ENDROOT
BRANCH   1   3
ATOM      3  N   UNL d   1      33.231  20.810 -22.539  0.00  0.00    -0.347 NA
BRANCH   3   4
ATOM      4  C   UNL d   1      33.230  21.220 -21.826  0.00  0.00     0.248 A 
ATOM      5  N   UNL d   1      33.223  22.045 -21.729  0.00  0.00    -0.210 NA
ATOM      6  C   UNL d   1      33.225  22.206 -20.920  0.00  0.00     0.096 A 
ATOM      7  C   UNL d   1      33.232  21.484 -20.519  0.00  0.00     0.059 A 
ATOM      8  S   UNL d   1      33.235  20.884 -21.071  0.00  0.00    -0.033 SA
BRANCH   6   9
ATOM      9  C   UNL d   1      33.219  22.953 -20.579  0.00  0.00     0.088 C 
BRANCH   9  10
ATOM     10  C   UNL d   1      32.686  23.136 -19.982  0.00  0.00     0.302 C 
ATOM     11  O   UNL d   1      31.898  23.279 -20.175  0.00  0.00    -0.259 OA
BRANCH  10  12
ATOM     12  O   UNL d   1      32.932  23.176 -19.200  0.00  0.00    -0.271 OA
BRANCH  12  13
ATOM     13  C   UNL d   1      32.541  23.668 -18.667  0.00  0.00     0.126 C 
ATOM     14  C   UNL d   1      32.747  23.660 -17.872  0.00  0.00     0.029 C 
ENDBRANCH  12  13
ENDBRANCH  10  12
ENDBRANCH   9  10
ENDBRANCH   6   9
ENDBRANCH   3   4
ENDBRANCH   1   3
BRANCH   1  15
ATOM     15  N   UNL d   1      33.241  19.577 -23.267  0.00  0.00    -0.168 NA
ATOM     16  C   UNL d   1      32.740  19.165 -23.780  0.00  0.00     0.282 C 
ATOM     17  O   UNL d   1      32.236  19.576 -24.282  0.00  0.00    -0.265 OA
BRANCH  16  18
ATOM     18  C   UNL d   1      32.748  18.338 -23.786  0.00  0.00     0.058 A 
ATOM     19  C   UNL d   1      33.041  17.937 -24.431  0.00  0.00     0.006 A 
ATOM     20  C   UNL d   1      33.049  17.109 -24.437  0.00  0.00     0.024 A 
ATOM     21  C   UNL d   1      32.759  16.690 -23.785  0.00  0.00     0.127 A 
ATOM     22  C   UNL d   1      32.461  17.103 -23.129  0.00  0.00     0.024 A 
ATOM     23  C   UNL d   1      32.455  17.923 -23.128  0.00  0.00     0.006 A 
BRANCH  21  24
ATOM     24  N   UNL d   1      32.764  15.867 -23.785  0.00  0.00    -0.114 N 
ATOM     25  O   UNL d   1      33.028  15.453 -23.119  0.00  0.00    -0.532 OA
ATOM     26  O   UNL d   1      32.507  15.459 -24.449  0.00  0.00    -0.532 OA
ENDBRANCH  21  24
ENDBRANCH  16  18
ENDBRANCH   1  15
TORSDOF 9
ENDMDL
MODEL 3
REMARK VINA RESULT:      -1.7      1.710      6.027
REMARK  9 active torsions:
REMARK  status: ('A' for Active; 'I' for Inactive)
REMARK    1  A    between atoms: N_6  and  C_1 
REMARK    2  A    between atoms: N_2  and  C_12 
REMARK    3  A    between atoms: C_3  and  N_6 
REMARK    4  A    between atoms: N_4  and  C_3 
REMARK       I    between atoms: C_7  and  N_4 
REMARK    5  A    between atoms: C_16  and  C_7 
REMARK    6  A    between atoms: C_10  and  C_8 
REMARK    7  A    between atoms: C_13  and  C_10 
REMARK    8  A    between atoms: O_24  and  C_13 
REMARK    9  A    between atoms: C_25  and  O_24 
ROOT
ATOM      1  C   UNL d   1      33.044  20.729 -23.512  0.00  0.00     0.277 C 
ATOM      2  S   UNL d   1      33.158  21.247 -24.144  0.00  0.00    -0.023 SA
ENDROOT
BRANCH   1   3
ATOM      3  N   UNL d   1      32.983  19.918 -23.651  0.00  0.00    -0.347 NA
BRANCH   3   4
ATOM      4  C   UNL d   1      32.921  19.108 -23.785  0.00  0.00     0.248 A 
ATOM      5  N   UNL d   1      32.526  18.557 -23.305  0.00  0.00    -0.210 NA
ATOM      6  C   UNL d   1      32.607  17.813 -23.653  0.00  0.00     0.096 A 
ATOM      7  C   UNL d   1      33.050  17.905 -24.345  0.00  0.00     0.059 A 
ATOM      8  S   UNL d   1      33.241  18.695 -24.424  0.00  0.00    -0.033 SA
BRANCH   6   9
ATOM      9  C   UNL d   1      32.301  17.110 -23.361  0.00  0.00     0.088 C 
BRANCH   9  10
ATOM     10  C   UNL d   1      31.696  16.721 -23.759  0.00  0.00     0.302 C 
ATOM     11  O   UNL d   1      31.825  16.455 -24.528  0.00  0.00    -0.259 OA
BRANCH  10  12
ATOM     12  O   UNL d   1      30.971  16.596 -23.396  0.00  0.00    -0.271 OA
BRANCH  12  13
ATOM     13  C   UNL d   1      30.433  16.062 -23.718  0.00  0.00     0.126 C 
ATOM     14  C   UNL d   1      29.628  16.159 -23.589  0.00  0.00     0.029 C 
ENDBRANCH  12  13
ENDBRANCH  10  12
ENDBRANCH   9  10
ENDBRANCH   6   9
ENDBRANCH   3   4
ENDBRANCH   1   3
BRANCH   1  15
ATOM     15  N   UNL d   1      32.993  21.027 -22.746  0.00  0.00    -0.168 NA
ATOM     16  C   UNL d   1      33.091  21.837 -22.605  0.00  0.00     0.282 C 
ATOM     17  O   UNL d   1      33.240  22.347 -23.231  0.00  0.00    -0.265 OA
BRANCH  16  18
ATOM     18  C   UNL d   1      33.038  22.129 -21.834  0.00  0.00     0.058 A 
ATOM     19  C   UNL d   1      32.868  22.915 -21.705  0.00  0.00     0.006 A 
ATOM     20  C   UNL d   1      32.815  23.207 -20.932  0.00  0.00     0.024 A 
ATOM     21  C   UNL d   1      32.935  22.698 -20.291  0.00  0.00     0.127 A 
ATOM     22  C   UNL d   1      33.107  21.897 -20.426  0.00  0.00     0.024 A 
ATOM     23  C   UNL d   1      33.159  21.612 -21.194  0.00  0.00     0.006 A 
BRANCH  21  24
ATOM     24  N   UNL d   1      32.883  22.982 -19.520  0.00  0.00    -0.114 N 
ATOM     25  O   UNL d   1      33.241  23.700 -19.316  0.00  0.00    -0.532 OA
ATOM     26  O   UNL d   1      32.475  22.551 -18.954  0.00  0.00    -0.532 OA
ENDBRANCH  21  24
ENDBRANCH  16  18
ENDBRANCH   1  15
TORSDOF 9
ENDMDL
MODEL 4
REMARK VINA RESULT:      -0.9      2.835      7.006
REMARK  9 active torsions:
REMARK  status: ('A' for Active; 'I' for Inactive)
REMARK    1  A    between atoms: N_6  and  C_1 
REMARK    2  A    between atoms: N_2  and  C_12 
REMARK    3  A    between atoms: C_3  and  N_6 
REMARK    4  A    between atoms: N_4  and  C_3 
REMARK       I    between atoms: C_7  and  N_4 
REMARK    5  A    between atoms: C_16  and  C_7 
REMARK    6  A    between atoms: C_10  and  C_8 
REMARK    7  A    between atoms: C_13  and  C_10 
REMARK    8  A    between atoms: O_24  and  C_13 
REMARK    9  A    between atoms: C_25  and  O_24 
ROOT
ATOM      1  C   UNL d   1      32.249  22.172 -21.017  0.00  0.00     0.277 C 
ATOM      2  S   UNL d   1      31.997  22.771 -21.525  0.00  0.00    -0.023 SA
ENDROOT
BRANCH   1   3
ATOM      3  N   UNL d   1      32.513  21.454 -21.329  0.00  0.00    -0.347 NA
BRANCH   3   4
ATOM      4  C   UNL d   1      32.772  20.736 -21.637  0.00  0.00     0.248 A 
ATOM      5  N   UNL d   1      32.817  20.529 -22.440  0.00  0.00    -0.210 NA
ATOM      6  C   UNL d   1      33.107  19.758 -22.488  0.00  0.00     0.096 A 
ATOM      7  C   UNL d   1      33.240  19.490 -21.718  0.00  0.00     0.059 A 
ATOM      8  S   UNL d   1      33.036  20.087 -21.200  0.00  0.00    -0.033 SA
BRANCH   6   9
ATOM      9  C   UNL d   1      33.238  19.337 -23.180  0.00  0.00     0.088 C 
BRANCH   9  10
ATOM     10  C   UNL d   1      32.833  18.637 -23.326  0.00  0.00     0.302 C 
ATOM     11  O   UNL d   1      33.026  17.962 -22.894  0.00  0.00    -0.259 OA
BRANCH  10  12
ATOM     12  O   UNL d   1      32.242  18.607 -23.894  0.00  0.00    -0.271 OA
BRANCH  12  13
ATOM     13  C   UNL d   1      32.042  17.890 -24.246  0.00  0.00     0.126 C 
ATOM     14  C   UNL d   1      31.911  17.851 -25.056  0.00  0.00     0.029 C 
ENDBRANCH  12  13
ENDBRANCH  10  12
ENDBRANCH   9  10
ENDBRANCH   6   9
ENDBRANCH   3   4
ENDBRANCH   1   3
BRANCH   1  15
ATOM     15  N   UNL d   1      32.235  22.294 -20.203  0.00  0.00    -0.168 NA
ATOM     16  C   UNL d   1      32.696  22.891 -19.863  0.00  0.00     0.282 C 
ATOM     17  O   UNL d   1      33.171  23.365 -20.337  0.00  0.00    -0.265 OA
BRANCH  16  18
ATOM     18  C   UNL d   1      32.678  23.008 -19.044  0.00  0.00     0.058 A 
ATOM     19  C   UNL d   1      33.210  23.513 -18.691  0.00  0.00     0.006 A 
ATOM     20  C   UNL d   1      33.191  23.631 -17.872  0.00  0.00     0.024 A 
ATOM     21  C   UNL d   1      32.629  23.233 -17.413  0.00  0.00     0.127 A 
ATOM     22  C   UNL d   1      32.088  22.719 -17.776  0.00  0.00     0.024 A 
ATOM     23  C   UNL d   1      32.111  22.606 -18.589  0.00  0.00     0.006 A 
BRANCH  21  24
ATOM     24  N   UNL d   1      32.605  23.346 -16.598  0.00  0.00    -0.114 N 
ATOM     25  O   UNL d   1      31.944  23.104 -16.163  0.00  0.00    -0.532 OA
ATOM     26  O   UNL d   1      33.241  23.700 -16.218  0.00  0.00    -0.532 OA
ENDBRANCH  21  24
ENDBRANCH  16  18
ENDBRANCH   1  15
TORSDOF 9
ENDMDL
