MODEL 1
REMARK VINA RESULT:      -3.1      0.000      0.000
REMARK  4 active torsions:
REMARK  status: ('A' for Active; 'I' for Inactive)
REMARK    1  A    between atoms: S_6  and  C_1 
REMARK    2  A    between atoms: C_19  and  S_6 
REMARK    3  A    between atoms: C_7  and  C_19 
REMARK       I    between atoms: N_10  and  C_7 
REMARK    4  A    between atoms: C_14  and  N_10 
ROOT
ATOM      1  C   UNL d   1      57.554   0.391  31.237  0.00  0.00     0.286 C 
ATOM      2  N   UNL d   1      57.432   0.180  30.454  0.00  0.00    -0.207 NA
ATOM      3  O   UNL d   1      58.326   0.431  31.531  0.00  0.00    -0.265 OA
ENDROOT
BRANCH   1   4
ATOM      4  C   UNL d   1      56.918   0.561  31.725  0.00  0.00     0.099 C 
BRANCH   4   5
ATOM      5  S   UNL d   1      56.983   0.467  32.535  0.00  0.00    -0.062 SA
BRANCH   5   6
ATOM      6  C   UNL d   1      56.311   0.497  33.014  0.00  0.00     0.114 A 
ATOM      7  C   UNL d   1      56.386   0.558  33.830  0.00  0.00     0.042 A 
ATOM      8  C   UNL d   1      55.713   0.588  34.310  0.00  0.00     0.085 A 
ATOM      9  C   UNL d   1      57.138   0.590  34.169  0.00  0.00     0.004 A 
ATOM     10  C   UNL d   1      55.792   0.650  35.129  0.00  0.00     0.019 A 
ATOM     11  N   UNL d   1      54.965   0.557  33.974  0.00  0.00    -0.224 NA
ATOM     12  C   UNL d   1      56.543   0.682  35.468  0.00  0.00     0.002 A 
ATOM     13  C   UNL d   1      57.216   0.651  34.989  0.00  0.00     0.000 A 
ATOM     14  C   UNL d   1      54.886   0.495  33.155  0.00  0.00     0.200 A 
ATOM     15  N   UNL d   1      55.559   0.465  32.675  0.00  0.00    -0.217 NA
ENDBRANCH   5   6
ENDBRANCH   4   5
ENDBRANCH   1   4
BRANCH   2  16
ATOM     16  C   UNL d   1      58.069   0.009  29.961  0.00  0.00     0.087 A 
ATOM     17  C   UNL d   1      58.290  -0.772  29.842  0.00  0.00     0.045 A 
ATOM     18  C   UNL d   1      58.929  -0.945  29.348  0.00  0.00     0.121 A 
ATOM     19  O   UNL d   1      59.272  -1.666  29.127  0.00  0.00    -0.299 OA
ATOM     20  C   UNL d   1      59.340  -0.336  28.980  0.00  0.00     0.119 A 
ATOM     21  C   UNL d   1      59.896  -1.492  28.622  0.00  0.00     0.304 A 
ATOM     22  O   UNL d   1      59.943  -0.673  28.527  0.00  0.00    -0.300 OA
ATOM     23  C   UNL d   1      59.111   0.445  29.107  0.00  0.00     0.028 A 
ATOM     24  C   UNL d   1      58.480   0.619  29.594  0.00  0.00     0.021 A 
ENDBRANCH   2  16
TORSDOF 4
ENDMDL
MODEL 2
REMARK VINA RESULT:      -2.8      1.466      2.009
REMARK  4 active torsions:
REMARK  status: ('A' for Active; 'I' for Inactive)
REMARK    1  A    between atoms: S_6  and  C_1 
REMARK    2  A    between atoms: C_19  and  S_6 
REMARK    3  A    between atoms: C_7  and  C_19 
REMARK       I    between atoms: N_10  and  C_7 
REMARK    4  A    between atoms: C_14  and  N_10 
ROOT
ATOM      1  C   UNL d   1      57.832  -0.878  30.532  0.00  0.00     0.286 C 
ATOM      2  N   UNL d   1      58.522  -0.771  30.101  0.00  0.00    -0.207 NA
ATOM      3  O   UNL d   1      57.452  -1.613  30.515  0.00  0.00    -0.265 OA
ENDROOT
BRANCH   1   4
ATOM      4  C   UNL d   1      57.520  -0.264  30.975  0.00  0.00     0.099 C 
BRANCH   4   5
ATOM      5  S   UNL d   1      56.993  -0.419  31.582  0.00  0.00    -0.062 SA
BRANCH   5   6
ATOM      6  C   UNL d   1      57.085  -0.056  32.318  0.00  0.00     0.114 A 
ATOM      7  C   UNL d   1      56.471  -0.064  32.864  0.00  0.00     0.042 A 
ATOM      8  C   UNL d   1      56.563   0.300  33.601  0.00  0.00     0.085 A 
ATOM      9  C   UNL d   1      55.760  -0.438  32.673  0.00  0.00     0.004 A 
ATOM     10  C   UNL d   1      55.944   0.289  34.147  0.00  0.00     0.019 A 
ATOM     11  N   UNL d   1      57.269   0.672  33.792  0.00  0.00    -0.224 NA
ATOM     12  C   UNL d   1      55.234  -0.084  33.956  0.00  0.00     0.002 A 
ATOM     13  C   UNL d   1      55.142  -0.448  33.219  0.00  0.00     0.000 A 
ATOM     14  C   UNL d   1      57.888   0.682  33.247  0.00  0.00     0.200 A 
ATOM     15  N   UNL d   1      57.796   0.318  32.510  0.00  0.00    -0.217 NA
ENDBRANCH   5   6
ENDBRANCH   4   5
ENDBRANCH   1   4
BRANCH   2  16
ATOM     16  C   UNL d   1      58.837  -1.387  29.655  0.00  0.00     0.087 A 
ATOM     17  C   UNL d   1      59.464  -1.824  29.953  0.00  0.00     0.045 A 
ATOM     18  C   UNL d   1      59.781  -2.442  29.507  0.00  0.00     0.121 A 
ATOM     19  O   UNL d   1      60.402  -2.968  29.661  0.00  0.00    -0.299 OA
ATOM     20  C   UNL d   1      59.468  -2.616  28.767  0.00  0.00     0.119 A 
ATOM     21  C   UNL d   1      60.465  -3.464  29.010  0.00  0.00     0.304 A 
ATOM     22  O   UNL d   1      59.891  -3.252  28.455  0.00  0.00    -0.300 OA
ATOM     23  C   UNL d   1      58.838  -2.172  28.477  0.00  0.00     0.028 A 
ATOM     24  C   UNL d   1      58.523  -1.561  28.915  0.00  0.00     0.021 A 
ENDBRANCH   2  16
TORSDOF 4
ENDMDL
MODEL 3
REMARK VINA RESULT:      -2.6      1.080      1.694
REMARK  4 active torsions:
REMARK  status: ('A' for Active; 'I' for Inactive)
REMARK    1  A    between atoms: S_6  and  C_1 
REMARK    2  A    between atoms: C_19  and  S_6 
REMARK    3  A    between atoms: C_7  and  C_19 
REMARK       I    between atoms: N_10  and  C_7 
REMARK    4  A    between atoms: C_14  and  N_10 
ROOT
ATOM      1  C   UNL d   1      57.206  -0.090  32.001  0.00  0.00     0.286 C 
ATOM      2  N   UNL d   1      57.733   0.435  31.654  0.00  0.00    -0.207 NA
ATOM      3  O   UNL d   1      56.873  -0.692  31.543  0.00  0.00    -0.265 OA
ENDROOT
BRANCH   1   4
ATOM      4  C   UNL d   1      57.010  -0.018  32.793  0.00  0.00     0.099 C 
BRANCH   4   5
ATOM      5  S   UNL d   1      56.237   0.136  33.015  0.00  0.00    -0.062 SA
BRANCH   5   6
ATOM      6  C   UNL d   1      56.051   0.283  33.806  0.00  0.00     0.114 A 
ATOM      7  C   UNL d   1      55.270   0.409  34.031  0.00  0.00     0.042 A 
ATOM      8  C   UNL d   1      55.084   0.556  34.823  0.00  0.00     0.085 A 
ATOM      9  C   UNL d   1      54.673   0.386  33.462  0.00  0.00     0.004 A 
ATOM     10  C   UNL d   1      54.300   0.682  35.046  0.00  0.00     0.019 A 
ATOM     11  N   UNL d   1      55.678   0.579  35.390  0.00  0.00    -0.224 NA
ATOM     12  C   UNL d   1      53.702   0.659  34.479  0.00  0.00     0.002 A 
ATOM     13  C   UNL d   1      53.888   0.512  33.687  0.00  0.00     0.000 A 
ATOM     14  C   UNL d   1      56.462   0.454  35.166  0.00  0.00     0.200 A 
ATOM     15  N   UNL d   1      56.648   0.306  34.374  0.00  0.00    -0.217 NA
ENDBRANCH   5   6
ENDBRANCH   4   5
ENDBRANCH   1   4
BRANCH   2  16
ATOM     16  C   UNL d   1      57.932   0.365  30.859  0.00  0.00     0.087 A 
ATOM     17  C   UNL d   1      58.624  -0.020  30.646  0.00  0.00     0.045 A 
ATOM     18  C   UNL d   1      58.825  -0.091  29.848  0.00  0.00     0.121 A 
ATOM     19  O   UNL d   1      59.475  -0.443  29.475  0.00  0.00    -0.299 OA
ATOM     20  C   UNL d   1      58.331   0.225  29.272  0.00  0.00     0.119 A 
ATOM     21  C   UNL d   1      59.373  -0.340  28.666  0.00  0.00     0.304 A 
ATOM     22  O   UNL d   1      58.670   0.071  28.535  0.00  0.00    -0.300 OA
ATOM     23  C   UNL d   1      57.638   0.610  29.496  0.00  0.00     0.028 A 
ATOM     24  C   UNL d   1      57.437   0.681  30.283  0.00  0.00     0.021 A 
ENDBRANCH   2  16
TORSDOF 4
ENDMDL
MODEL 4
REMARK VINA RESULT:      -1.6      9.736     10.852
REMARK  4 active torsions:
REMARK  status: ('A' for Active; 'I' for Inactive)
REMARK    1  A    between atoms: S_6  and  C_1 
REMARK    2  A    between atoms: C_19  and  S_6 
REMARK    3  A    between atoms: C_7  and  C_19 
REMARK       I    between atoms: N_10  and  C_7 
REMARK    4  A    between atoms: C_14  and  N_10 
ROOT
ATOM      1  C   UNL d   1      58.845  -9.416  32.821  0.00  0.00     0.286 C 
ATOM      2  N   UNL d   1      59.378  -9.741  33.354  0.00  0.00    -0.207 NA
ATOM      3  O   UNL d   1      58.508  -8.679  32.982  0.00  0.00    -0.265 OA
ENDROOT
BRANCH   1   4
ATOM      4  C   UNL d   1      58.648  -9.818  32.135  0.00  0.00     0.099 C 
BRANCH   4   5
ATOM      5  S   UNL d   1      59.124  -9.761  31.472  0.00  0.00    -0.062 SA
BRANCH   5   6
ATOM      6  C   UNL d   1      58.791  -9.769  30.716  0.00  0.00     0.114 A 
ATOM      7  C   UNL d   1      59.273  -9.774  30.051  0.00  0.00     0.042 A 
ATOM      8  C   UNL d   1      58.939  -9.782  29.294  0.00  0.00     0.085 A 
ATOM      9  C   UNL d   1      60.093  -9.769  30.141  0.00  0.00     0.004 A 
ATOM     10  C   UNL d   1      59.426  -9.786  28.628  0.00  0.00     0.019 A 
ATOM     11  N   UNL d   1      58.123  -9.786  29.203  0.00  0.00    -0.224 NA
ATOM     12  C   UNL d   1      60.246  -9.782  28.718  0.00  0.00     0.002 A 
ATOM     13  C   UNL d   1      60.580  -9.773  29.474  0.00  0.00     0.000 A 
ATOM     14  C   UNL d   1      57.636  -9.782  29.869  0.00  0.00     0.200 A 
ATOM     15  N   UNL d   1      57.970  -9.774  30.626  0.00  0.00    -0.217 NA
ENDBRANCH   5   6
ENDBRANCH   4   5
ENDBRANCH   1   4
BRANCH   2  16
ATOM     16  C   UNL d   1      59.578  -9.339  34.045  0.00  0.00     0.087 A 
ATOM     17  C   UNL d   1      60.256  -8.877  34.062  0.00  0.00     0.045 A 
ATOM     18  C   UNL d   1      60.457  -8.474  34.754  0.00  0.00     0.121 A 
ATOM     19  O   UNL d   1      61.095  -7.976  34.933  0.00  0.00    -0.299 OA
ATOM     20  C   UNL d   1      59.979  -8.536  35.420  0.00  0.00     0.119 A 
ATOM     21  C   UNL d   1      61.002  -7.736  35.713  0.00  0.00     0.304 A 
ATOM     22  O   UNL d   1      60.316  -8.078  36.019  0.00  0.00    -0.300 OA
ATOM     23  C   UNL d   1      59.301  -9.003  35.391  0.00  0.00     0.028 A 
ATOM     24  C   UNL d   1      59.099  -9.402  34.710  0.00  0.00     0.021 A 
ENDBRANCH   2  16
TORSDOF 4
ENDMDL
