MODEL 1
REMARK VINA RESULT:      -5.5      0.000      0.000
REMARK  5 active torsions:
REMARK  status: ('A' for Active; 'I' for Inactive)
REMARK    1  A    between atoms: C_3  and  C_1 
REMARK    2  A    between atoms: S_2  and  C_3 
REMARK    3  A    between atoms: C_8  and  S_2 
REMARK    4  A    between atoms: C_9  and  C_3 
REMARK    5  A    between atoms: N_7  and  C_4 
ROOT
ATOM      1  C   UNL d   1     -49.083  13.659  22.354  0.00  0.00     0.128 A 
ATOM      2  C   UNL d   1     -49.519  13.185  22.869  0.00  0.00     0.166 A 
ATOM      3  N   UNL d   1     -49.252  14.460  22.288  0.00  0.00    -0.240 NA
ATOM      4  N   UNL d   1     -50.130  13.520  23.321  0.00  0.00    -0.225 NA
ATOM      5  C   UNL d   1     -49.855  14.786  22.735  0.00  0.00     0.099 A 
ATOM      6  C   UNL d   1     -50.292  14.318  23.249  0.00  0.00     0.101 A 
ATOM      7  C   UNL d   1     -50.902  14.655  23.698  0.00  0.00     0.021 A 
ATOM      8  C   UNL d   1     -50.023  15.591  22.666  0.00  0.00     0.021 A 
ATOM      9  C   UNL d   1     -51.064  15.455  23.626  0.00  0.00     0.002 A 
ATOM     10  C   UNL d   1     -50.626  15.922  23.112  0.00  0.00     0.002 A 
ENDROOT
BRANCH   1  11
ATOM     11  C   UNL d   1     -48.477  13.330  21.906  0.00  0.00     0.129 C 
BRANCH  11  12
ATOM     12  S   UNL d   1     -47.705  13.776  21.861  0.00  0.00     0.213 S 
ATOM     13  O   UNL d   1     -47.641  14.419  21.248  0.00  0.00    -0.217 OA
ATOM     14  O   UNL d   1     -48.193  14.104  21.276  0.00  0.00    -0.217 OA
BRANCH  12  15
ATOM     15  C   UNL d   1     -46.991  13.725  22.285  0.00  0.00     0.088 A 
ATOM     16  C   UNL d   1     -46.405  13.198  22.045  0.00  0.00     0.011 A 
ATOM     17  C   UNL d   1     -45.692  13.145  22.465  0.00  0.00     0.001 A 
ATOM     18  C   UNL d   1     -45.113  12.623  22.226  0.00  0.00     0.000 C 
ATOM     19  C   UNL d   1     -45.574  13.628  23.129  0.00  0.00     0.000 A 
ATOM     20  C   UNL d   1     -46.171  14.161  23.369  0.00  0.00     0.001 A 
ATOM     21  C   UNL d   1     -46.874  14.206  22.946  0.00  0.00     0.011 A 
ENDBRANCH  12  15
ENDBRANCH  11  12
BRANCH  11  22
ATOM     22  C   UNL d   1     -48.457  12.598  21.452  0.00  0.00     0.135 C 
ATOM     23  N   UNL d   1     -48.618  12.485  20.587  0.00  0.00    -0.146 N 
ENDBRANCH  11  22
ENDBRANCH   1  11
BRANCH   2  24
ATOM     24  N   UNL d   1     -49.342  12.375  22.931  0.00  0.00    -0.288 N 
ATOM     25  C   UNL d   1     -48.993  12.007  23.596  0.00  0.00     0.082 A 
ATOM     26  C   UNL d   1     -48.914  11.192  23.421  0.00  0.00     0.021 A 
ATOM     27  C   UNL d   1     -49.213  11.065  22.652  0.00  0.00     0.021 A 
ATOM     28  C   UNL d   1     -49.478  11.801  22.351  0.00  0.00     0.082 A 
ENDBRANCH   2  24
TORSDOF 5
ENDMDL
MODEL 2
REMARK VINA RESULT:      -4.6      1.070      2.610
REMARK  5 active torsions:
REMARK  status: ('A' for Active; 'I' for Inactive)
REMARK    1  A    between atoms: C_3  and  C_1 
REMARK    2  A    between atoms: S_2  and  C_3 
REMARK    3  A    between atoms: C_8  and  S_2 
REMARK    4  A    between atoms: C_9  and  C_3 
REMARK    5  A    between atoms: N_7  and  C_4 
ROOT
ATOM      1  C   UNL d   1     -48.456  13.829  22.178  0.00  0.00     0.128 A 
ATOM      2  C   UNL d   1     -47.970  14.300  22.649  0.00  0.00     0.166 A 
ATOM      3  N   UNL d   1     -49.258  14.000  22.113  0.00  0.00    -0.240 NA
ATOM      4  N   UNL d   1     -48.292  14.946  23.059  0.00  0.00    -0.225 NA
ATOM      5  C   UNL d   1     -49.571  14.638  22.519  0.00  0.00     0.099 A 
ATOM      6  C   UNL d   1     -49.090  15.109  22.989  0.00  0.00     0.101 A 
ATOM      7  C   UNL d   1     -49.415  15.754  23.397  0.00  0.00     0.021 A 
ATOM      8  C   UNL d   1     -50.376  14.807  22.452  0.00  0.00     0.021 A 
ATOM      9  C   UNL d   1     -50.215  15.917  23.327  0.00  0.00     0.002 A 
ATOM     10  C   UNL d   1     -50.694  15.445  22.857  0.00  0.00     0.002 A 
ENDROOT
BRANCH   1  11
ATOM     11  C   UNL d   1     -48.140  13.189  21.771  0.00  0.00     0.129 C 
BRANCH  11  12
ATOM     12  S   UNL d   1     -48.573  12.410  21.823  0.00  0.00     0.213 S 
ATOM     13  O   UNL d   1     -48.925  12.088  21.070  0.00  0.00    -0.217 OA
ATOM     14  O   UNL d   1     -48.617  12.643  21.028  0.00  0.00    -0.217 OA
BRANCH  12  15
ATOM     15  C   UNL d   1     -48.732  11.886  22.449  0.00  0.00     0.088 A 
ATOM     16  C   UNL d   1     -48.129  11.417  22.758  0.00  0.00     0.011 A 
ATOM     17  C   UNL d   1     -48.284  10.893  23.382  0.00  0.00     0.001 A 
ATOM     18  C   UNL d   1     -47.686  10.430  23.687  0.00  0.00     0.000 C 
ATOM     19  C   UNL d   1     -49.052  10.846  23.692  0.00  0.00     0.000 A 
ATOM     20  C   UNL d   1     -49.660  11.323  23.376  0.00  0.00     0.001 A 
ATOM     21  C   UNL d   1     -49.496  11.839  22.757  0.00  0.00     0.011 A 
ENDBRANCH  12  15
ENDBRANCH  11  12
BRANCH  11  22
ATOM     22  C   UNL d   1     -47.433  13.136  21.281  0.00  0.00     0.135 C 
ATOM     23  N   UNL d   1     -47.381  13.067  20.398  0.00  0.00    -0.146 N 
ENDBRANCH  11  22
ENDBRANCH   1  11
BRANCH   2  24
ATOM     24  N   UNL d   1     -47.160  14.120  22.709  0.00  0.00    -0.288 N 
ATOM     25  C   UNL d   1     -46.808  13.685  23.330  0.00  0.00     0.082 A 
ATOM     26  C   UNL d   1     -45.987  13.636  23.170  0.00  0.00     0.021 A 
ATOM     27  C   UNL d   1     -45.841  14.040  22.455  0.00  0.00     0.021 A 
ATOM     28  C   UNL d   1     -46.571  14.340  22.171  0.00  0.00     0.082 A 
ENDBRANCH   2  24
TORSDOF 5
ENDMDL
MODEL 3
REMARK VINA RESULT:      -3.0      6.819      9.251
REMARK  5 active torsions:
REMARK  status: ('A' for Active; 'I' for Inactive)
REMARK    1  A    between atoms: C_3  and  C_1 
REMARK    2  A    between atoms: S_2  and  C_3 
REMARK    3  A    between atoms: C_8  and  S_2 
REMARK    4  A    between atoms: C_9  and  C_3 
REMARK    5  A    between atoms: N_7  and  C_4 
ROOT
ATOM      1  C   UNL d   1     -40.138  15.005  19.583  0.00  0.00     0.128 A 
ATOM      2  C   UNL d   1     -39.570  14.557  19.188  0.00  0.00     0.166 A 
ATOM      3  N   UNL d   1     -40.702  15.425  19.157  0.00  0.00    -0.240 NA
ATOM      4  N   UNL d   1     -39.568  14.531  18.359  0.00  0.00    -0.225 NA
ATOM      5  C   UNL d   1     -40.697  15.396  18.339  0.00  0.00     0.099 A 
ATOM      6  C   UNL d   1     -40.132  14.951  17.942  0.00  0.00     0.101 A 
ATOM      7  C   UNL d   1     -40.133  14.926  17.114  0.00  0.00     0.021 A 
ATOM      8  C   UNL d   1     -41.263  15.817  17.914  0.00  0.00     0.021 A 
ATOM      9  C   UNL d   1     -40.698  15.347  16.696  0.00  0.00     0.002 A 
ATOM     10  C   UNL d   1     -41.262  15.791  17.094  0.00  0.00     0.002 A 
ENDROOT
BRANCH   1  11
ATOM     11  C   UNL d   1     -40.142  15.034  20.405  0.00  0.00     0.129 C 
BRANCH  11  12
ATOM     12  S   UNL d   1     -40.921  14.903  20.821  0.00  0.00     0.213 S 
ATOM     13  O   UNL d   1     -41.409  15.624  21.008  0.00  0.00    -0.217 OA
ATOM     14  O   UNL d   1     -40.855  15.723  20.712  0.00  0.00    -0.217 OA
BRANCH  12  15
ATOM     15  C   UNL d   1     -41.318  14.223  21.089  0.00  0.00     0.088 A 
ATOM     16  C   UNL d   1     -42.043  14.011  20.758  0.00  0.00     0.011 A 
ATOM     17  C   UNL d   1     -42.442  13.334  21.023  0.00  0.00     0.001 A 
ATOM     18  C   UNL d   1     -43.158  13.126  20.694  0.00  0.00     0.000 C 
ATOM     19  C   UNL d   1     -42.105  12.872  21.623  0.00  0.00     0.000 A 
ATOM     20  C   UNL d   1     -41.370  13.090  21.956  0.00  0.00     0.001 A 
ATOM     21  C   UNL d   1     -40.983  13.764  21.686  0.00  0.00     0.011 A 
ENDBRANCH  12  15
ENDBRANCH  11  12
BRANCH  11  22
ATOM     22  C   UNL d   1     -39.497  15.174  20.959  0.00  0.00     0.135 C 
ATOM     23  N   UNL d   1     -39.300  15.922  21.394  0.00  0.00    -0.146 N 
ENDBRANCH  11  22
ENDBRANCH   1  11
BRANCH   2  24
ATOM     24  N   UNL d   1     -39.002  14.136  19.628  0.00  0.00    -0.288 N 
ATOM     25  C   UNL d   1     -38.979  13.304  19.712  0.00  0.00     0.082 A 
ATOM     26  C   UNL d   1     -38.322  13.118  20.196  0.00  0.00     0.021 A 
ATOM     27  C   UNL d   1     -37.947  13.834  20.406  0.00  0.00     0.021 A 
ATOM     28  C   UNL d   1     -38.372  14.463  20.051  0.00  0.00     0.082 A 
ENDBRANCH   2  24
TORSDOF 5
ENDMDL
MODEL 4
REMARK VINA RESULT:      -2.8      1.804      4.318
REMARK  5 active torsions:
REMARK  status: ('A' for Active; 'I' for Inactive)
REMARK    1  A    between atoms: C_3  and  C_1 
REMARK    2  A    between atoms: S_2  and  C_3 
REMARK    3  A    between atoms: C_8  and  S_2 
REMARK    4  A    between atoms: C_9  and  C_3 
REMARK    5  A    between atoms: N_7  and  C_4 
ROOT
ATOM      1  C   UNL d   1     -47.632  12.939  23.115  0.00  0.00     0.128 A 
ATOM      2  C   UNL d   1     -47.006  13.375  22.802  0.00  0.00     0.166 A 
ATOM      3  N   UNL d   1     -47.501  12.181  23.404  0.00  0.00    -0.240 NA
ATOM      4  N   UNL d   1     -46.244  13.048  22.779  0.00  0.00    -0.225 NA
ATOM      5  C   UNL d   1     -46.748  11.861  23.380  0.00  0.00     0.099 A 
ATOM      6  C   UNL d   1     -46.122  12.293  23.069  0.00  0.00     0.101 A 
ATOM      7  C   UNL d   1     -45.363  11.962  23.047  0.00  0.00     0.021 A 
ATOM      8  C   UNL d   1     -46.619  11.100  23.671  0.00  0.00     0.021 A 
ATOM      9  C   UNL d   1     -45.240  11.206  23.337  0.00  0.00     0.002 A 
ATOM     10  C   UNL d   1     -45.866  10.776  23.648  0.00  0.00     0.002 A 
ENDROOT
BRANCH   1  11
ATOM     11  C   UNL d   1     -48.388  13.261  23.139  0.00  0.00     0.129 C 
BRANCH  11  12
ATOM     12  S   UNL d   1     -49.070  12.737  22.902  0.00  0.00     0.213 S 
ATOM     13  O   UNL d   1     -49.399  12.189  23.524  0.00  0.00    -0.217 OA
ATOM     14  O   UNL d   1     -48.912  12.561  23.698  0.00  0.00    -0.217 OA
BRANCH  12  15
ATOM     15  C   UNL d   1     -49.493  12.636  22.193  0.00  0.00     0.088 A 
ATOM     16  C   UNL d   1     -50.064  13.188  21.972  0.00  0.00     0.011 A 
ATOM     17  C   UNL d   1     -50.488  13.091  21.266  0.00  0.00     0.001 A 
ATOM     18  C   UNL d   1     -51.052  13.638  21.049  0.00  0.00     0.000 C 
ATOM     19  C   UNL d   1     -50.332  12.434  20.785  0.00  0.00     0.000 A 
ATOM     20  C   UNL d   1     -49.753  11.877  21.013  0.00  0.00     0.001 A 
ATOM     21  C   UNL d   1     -49.338  11.982  21.715  0.00  0.00     0.011 A 
ENDBRANCH  12  15
ENDBRANCH  11  12
BRANCH  11  22
ATOM     22  C   UNL d   1     -48.648  14.052  23.363  0.00  0.00     0.135 C 
ATOM     23  N   UNL d   1     -49.432  14.297  23.698  0.00  0.00    -0.146 N 
ENDBRANCH  11  22
ENDBRANCH   1  11
BRANCH   2  24
ATOM     24  N   UNL d   1     -47.147  14.142  22.511  0.00  0.00    -0.288 N 
ATOM     25  C   UNL d   1     -47.232  14.343  21.704  0.00  0.00     0.082 A 
ATOM     26  C   UNL d   1     -47.366  15.169  21.662  0.00  0.00     0.021 A 
ATOM     27  C   UNL d   1     -47.362  15.468  22.442  0.00  0.00     0.021 A 
ATOM     28  C   UNL d   1     -47.226  14.829  22.966  0.00  0.00     0.082 A 
ENDBRANCH   2  24
TORSDOF 5
ENDMDL
MODEL 5
REMARK VINA RESULT:      -2.5      7.437      9.572
REMARK  5 active torsions:
REMARK  status: ('A' for Active; 'I' for Inactive)
REMARK    1  A    between atoms: C_3  and  C_1 
REMARK    2  A    between atoms: S_2  and  C_3 
REMARK    3  A    between atoms: C_8  and  S_2 
REMARK    4  A    between atoms: C_9  and  C_3 
REMARK    5  A    between atoms: N_7  and  C_4 
ROOT
ATOM      1  C   UNL d   1     -39.687  14.381  21.032  0.00  0.00     0.128 A 
ATOM      2  C   UNL d   1     -40.308  14.011  21.429  0.00  0.00     0.166 A 
ATOM      3  N   UNL d   1     -38.942  14.416  21.376  0.00  0.00    -0.240 NA
ATOM      4  N   UNL d   1     -40.179  13.673  22.176  0.00  0.00    -0.225 NA
ATOM      5  C   UNL d   1     -38.818  14.082  22.113  0.00  0.00     0.099 A 
ATOM      6  C   UNL d   1     -39.434  13.712  22.511  0.00  0.00     0.101 A 
ATOM      7  C   UNL d   1     -39.301  13.376  23.257  0.00  0.00     0.021 A 
ATOM      8  C   UNL d   1     -38.068  14.118  22.455  0.00  0.00     0.021 A 
ATOM      9  C   UNL d   1     -38.554  13.415  23.592  0.00  0.00     0.002 A 
ATOM     10  C   UNL d   1     -37.940  13.785  23.193  0.00  0.00     0.002 A 
ENDROOT
BRANCH   1  11
ATOM     11  C   UNL d   1     -39.813  14.716  20.292  0.00  0.00     0.129 C 
BRANCH  11  12
ATOM     12  S   UNL d   1     -39.143  14.684  19.703  0.00  0.00     0.213 S 
ATOM     13  O   UNL d   1     -38.559  15.356  19.713  0.00  0.00    -0.217 OA
ATOM     14  O   UNL d   1     -39.035  15.384  20.135  0.00  0.00    -0.217 OA
BRANCH  12  15
ATOM     15  C   UNL d   1     -38.927  14.138  19.113  0.00  0.00     0.088 A 
ATOM     16  C   UNL d   1     -39.408  14.033  18.453  0.00  0.00     0.011 A 
ATOM     17  C   UNL d   1     -39.196  13.490  17.863  0.00  0.00     0.001 A 
ATOM     18  C   UNL d   1     -39.674  13.388  17.210  0.00  0.00     0.000 C 
ATOM     19  C   UNL d   1     -38.496  13.054  17.944  0.00  0.00     0.000 A 
ATOM     20  C   UNL d   1     -38.011  13.164  18.615  0.00  0.00     0.001 A 
ATOM     21  C   UNL d   1     -38.230  13.705  19.195  0.00  0.00     0.011 A 
ENDBRANCH  12  15
ENDBRANCH  11  12
BRANCH  11  22
ATOM     22  C   UNL d   1     -40.509  15.111  19.972  0.00  0.00     0.135 C 
ATOM     23  N   UNL d   1     -40.565  15.922  19.616  0.00  0.00    -0.146 N 
ENDBRANCH  11  22
ENDBRANCH   1  11
BRANCH   2  24
ATOM     24  N   UNL d   1     -41.060  13.980  21.074  0.00  0.00    -0.288 N 
ATOM     25  C   UNL d   1     -41.359  13.335  20.634  0.00  0.00     0.082 A 
ATOM     26  C   UNL d   1     -42.131  13.538  20.381  0.00  0.00     0.021 A 
ATOM     27  C   UNL d   1     -42.301  14.304  20.667  0.00  0.00     0.021 A 
ATOM     28  C   UNL d   1     -41.635  14.575  21.097  0.00  0.00     0.082 A 
ENDBRANCH   2  24
TORSDOF 5
ENDMDL
