MODEL 1
REMARK VINA RESULT:      -1.3      0.000      0.000
REMARK  5 active torsions:
REMARK  status: ('A' for Active; 'I' for Inactive)
REMARK    1  A    between atoms: C_10  and  N_1 
REMARK    2  A    between atoms: S_7  and  C_2 
REMARK    3  A    between atoms: C_12  and  S_7 
REMARK    4  A    between atoms: C_9  and  C_12 
REMARK    5  A    between atoms: O_16  and  C_9 
ROOT
ATOM      1  N   UNL d   1      31.360  16.732 -23.949  0.00  0.00    -0.254 N 
ATOM      2  C   UNL d   1      31.458  17.532 -24.149  0.00  0.00     0.182 A 
ATOM      3  C   UNL d   1      30.628  16.362 -24.074  0.00  0.00     0.274 A 
ATOM      4  C   UNL d   1      30.000  16.787 -24.397  0.00  0.00     0.104 A 
ATOM      5  N   UNL d   1      30.824  17.961 -24.474  0.00  0.00    -0.222 NA
ATOM      6  C   UNL d   1      30.097  17.587 -24.597  0.00  0.00     0.095 A 
ATOM      7  S   UNL d   1      29.230  16.575 -24.580  0.00  0.00    -0.080 SA
ATOM      8  O   UNL d   1      30.531  15.567 -23.875  0.00  0.00    -0.266 OA
ATOM      9  C   UNL d   1      29.387  17.863 -24.903  0.00  0.00     0.027 A 
ATOM     10  C   UNL d   1      28.852  17.249 -24.896  0.00  0.00     0.037 A 
ENDROOT
BRANCH   2  11
ATOM     11  S   UNL d   1      32.192  17.906 -24.024  0.00  0.00    -0.044 SA
BRANCH  11  12
ATOM     12  C   UNL d   1      32.293  18.680 -24.307  0.00  0.00     0.095 C 
ATOM     13  C   UNL d   1      32.149  18.849 -25.097  0.00  0.00     0.013 C 
BRANCH  12  14
ATOM     14  C   UNL d   1      32.478  19.126 -23.920  0.00  0.00     0.302 C 
ATOM     15  O   UNL d   1      32.287  19.085 -23.121  0.00  0.00    -0.259 OA
BRANCH  14  16
ATOM     16  O   UNL d   1      32.918  19.767 -24.212  0.00  0.00    -0.295 OA
ATOM     17  C   UNL d   1      33.223  20.334 -23.693  0.00  0.00     0.185 C 
ENDBRANCH  14  16
ENDBRANCH  12  14
ENDBRANCH  11  12
ENDBRANCH   2  11
BRANCH   1  18
ATOM     18  C   UNL d   1      31.985  16.308 -23.628  0.00  0.00     0.069 A 
ATOM     19  C   UNL d   1      32.020  16.179 -22.809  0.00  0.00     0.018 A 
ATOM     20  C   UNL d   1      32.647  15.753 -22.484  0.00  0.00     0.002 A 
ATOM     21  C   UNL d   1      33.240  15.453 -22.973  0.00  0.00     0.000 A 
ATOM     22  C   UNL d   1      33.205  15.581 -23.792  0.00  0.00     0.002 A 
ATOM     23  C   UNL d   1      32.578  16.008 -24.117  0.00  0.00     0.018 A 
ENDBRANCH   1  18
TORSDOF 5
ENDMDL
MODEL 2
REMARK VINA RESULT:       0.7      1.522      3.294
REMARK  5 active torsions:
REMARK  status: ('A' for Active; 'I' for Inactive)
REMARK    1  A    between atoms: C_10  and  N_1 
REMARK    2  A    between atoms: S_7  and  C_2 
REMARK    3  A    between atoms: C_12  and  S_7 
REMARK    4  A    between atoms: C_9  and  C_12 
REMARK    5  A    between atoms: O_16  and  C_9 
ROOT
ATOM      1  N   UNL d   1      30.174  17.063 -24.385  0.00  0.00    -0.254 N 
ATOM      2  C   UNL d   1      30.916  16.725 -24.229  0.00  0.00     0.182 A 
ATOM      3  C   UNL d   1      30.127  17.839 -24.674  0.00  0.00     0.274 A 
ATOM      4  C   UNL d   1      30.815  18.274 -24.806  0.00  0.00     0.104 A 
ATOM      5  N   UNL d   1      31.610  17.162 -24.362  0.00  0.00    -0.222 NA
ATOM      6  C   UNL d   1      31.557  17.935 -24.650  0.00  0.00     0.095 A 
ATOM      7  S   UNL d   1      30.940  19.035 -25.083  0.00  0.00    -0.080 SA
ATOM      8  O   UNL d   1      29.390  18.175 -24.830  0.00  0.00    -0.266 OA
ATOM      9  C   UNL d   1      32.134  18.490 -24.831  0.00  0.00     0.027 A 
ATOM     10  C   UNL d   1      31.765  19.165 -25.096  0.00  0.00     0.037 A 
ENDROOT
BRANCH   2  11
ATOM     11  S   UNL d   1      30.965  15.945 -23.939  0.00  0.00    -0.044 SA
BRANCH  11  12
ATOM     12  C   UNL d   1      31.716  15.636 -23.763  0.00  0.00     0.095 C 
ATOM     13  C   UNL d   1      32.235  15.454 -24.372  0.00  0.00     0.013 C 
BRANCH  12  14
ATOM     14  C   UNL d   1      31.880  15.545 -23.174  0.00  0.00     0.302 C 
ATOM     15  O   UNL d   1      31.306  15.512 -22.586  0.00  0.00    -0.259 OA
BRANCH  14  16
ATOM     16  O   UNL d   1      32.682  15.455 -22.980  0.00  0.00    -0.295 OA
ATOM     17  C   UNL d   1      32.923  15.453 -22.189  0.00  0.00     0.185 C 
ENDBRANCH  14  16
ENDBRANCH  12  14
ENDBRANCH  11  12
ENDBRANCH   2  11
BRANCH   1  18
ATOM     18  C   UNL d   1      29.487  16.632 -24.255  0.00  0.00     0.069 A 
ATOM     19  C   UNL d   1      29.027  16.781 -23.582  0.00  0.00     0.018 A 
ATOM     20  C   UNL d   1      28.337  16.349 -23.449  0.00  0.00     0.002 A 
ATOM     21  C   UNL d   1      28.104  15.767 -23.985  0.00  0.00     0.000 A 
ATOM     22  C   UNL d   1      28.564  15.618 -24.658  0.00  0.00     0.002 A 
ATOM     23  C   UNL d   1      29.254  16.050 -24.791  0.00  0.00     0.018 A 
ENDBRANCH   1  18
TORSDOF 5
ENDMDL
