MODEL 1
REMARK VINA RESULT:      -5.2      0.000      0.000
REMARK  4 active torsions:
REMARK  status: ('A' for Active; 'I' for Inactive)
REMARK    1  A    between atoms: N_3  and  S_1 
REMARK    2  A    between atoms: C_5  and  S_1 
REMARK    3  A    between atoms: C_2  and  N_3 
REMARK    4  A    between atoms: O_18  and  C_11 
ROOT
ATOM      1  C   UNL d   1      58.860  -0.307  29.670  0.00  0.00     0.113 A 
ATOM      2  C   UNL d   1      59.617  -0.186  29.344  0.00  0.00     0.100 A 
ATOM      3  C   UNL d   1      58.496  -1.036  29.645  0.00  0.00     0.046 A 
ATOM      4  C   UNL d   1      60.011  -0.794  28.991  0.00  0.00     0.021 A 
ATOM      5  N   UNL d   1      59.964   0.563  29.382  0.00  0.00    -0.242 NA
ATOM      6  C   UNL d   1      58.907  -1.660  29.280  0.00  0.00     0.096 A 
ATOM      7  C   UNL d   1      59.665  -1.539  28.953  0.00  0.00     0.026 A 
ATOM      8  C   UNL d   1      60.757  -0.675  28.669  0.00  0.00     0.003 A 
ATOM      9  C   UNL d   1      60.710   0.682  29.061  0.00  0.00     0.099 A 
ATOM     10  C   UNL d   1      61.133   0.056  28.689  0.00  0.00     0.021 A 
ENDROOT
BRANCH   1  11
ATOM     11  N   UNL d   1      58.431   0.337  30.049  0.00  0.00    -0.157 NA
BRANCH  11  12
ATOM     12  S   UNL d   1      57.877   0.188  30.655  0.00  0.00     0.285 S 
ATOM     13  O   UNL d   1      58.501   0.212  31.230  0.00  0.00    -0.198 OA
ATOM     14  O   UNL d   1      57.275   0.165  30.100  0.00  0.00    -0.198 OA
BRANCH  12  15
ATOM     15  C   UNL d   1      57.327   0.040  31.259  0.00  0.00     0.105 A 
ATOM     16  C   UNL d   1      56.984   0.663  31.672  0.00  0.00     0.013 A 
ATOM     17  C   UNL d   1      56.437   0.515  32.272  0.00  0.00     0.001 A 
ATOM     18  C   UNL d   1      56.221  -0.258  32.471  0.00  0.00     0.000 A 
ATOM     19  C   UNL d   1      56.570  -0.879  32.051  0.00  0.00     0.001 A 
ATOM     20  C   UNL d   1      55.677  -0.404  33.067  0.00  0.00     0.000 C 
ATOM     21  C   UNL d   1      57.117  -0.732  31.452  0.00  0.00     0.013 A 
ENDBRANCH  12  15
ENDBRANCH  11  12
ENDBRANCH   1  11
BRANCH   6  22
ATOM     22  O   UNL d   1      58.528  -2.427  29.252  0.00  0.00    -0.328 OA
ATOM     23  C   UNL d   1      58.814  -3.034  28.757  0.00  0.00     0.181 C 
ENDBRANCH   6  22
TORSDOF 4
ENDMDL
MODEL 2
REMARK VINA RESULT:      -3.5      1.717      4.863
REMARK  4 active torsions:
REMARK  status: ('A' for Active; 'I' for Inactive)
REMARK    1  A    between atoms: N_3  and  S_1 
REMARK    2  A    between atoms: C_5  and  S_1 
REMARK    3  A    between atoms: C_2  and  N_3 
REMARK    4  A    between atoms: O_18  and  C_11 
ROOT
ATOM      1  C   UNL d   1      56.687   0.295  32.516  0.00  0.00     0.113 A 
ATOM      2  C   UNL d   1      56.071   0.402  33.068  0.00  0.00     0.100 A 
ATOM      3  C   UNL d   1      57.470   0.360  32.733  0.00  0.00     0.046 A 
ATOM      4  C   UNL d   1      56.238   0.576  33.837  0.00  0.00     0.021 A 
ATOM      5  N   UNL d   1      55.286   0.330  32.823  0.00  0.00    -0.242 NA
ATOM      6  C   UNL d   1      57.637   0.539  33.527  0.00  0.00     0.096 A 
ATOM      7  C   UNL d   1      57.021   0.647  34.079  0.00  0.00     0.026 A 
ATOM      8  C   UNL d   1      55.632   0.682  34.380  0.00  0.00     0.003 A 
ATOM      9  C   UNL d   1      54.680   0.436  33.366  0.00  0.00     0.099 A 
ATOM     10  C   UNL d   1      54.839   0.618  34.173  0.00  0.00     0.021 A 
ENDROOT
BRANCH   1  11
ATOM     11  N   UNL d   1      56.518   0.109  31.692  0.00  0.00    -0.157 NA
BRANCH  11  12
ATOM     12  S   UNL d   1      57.126  -0.118  31.168  0.00  0.00     0.285 S 
ATOM     13  O   UNL d   1      56.938  -0.934  31.303  0.00  0.00    -0.198 OA
ATOM     14  O   UNL d   1      57.308   0.671  31.038  0.00  0.00    -0.198 OA
BRANCH  12  15
ATOM     15  C   UNL d   1      57.732  -0.343  30.647  0.00  0.00     0.105 A 
ATOM     16  C   UNL d   1      57.867  -1.138  30.484  0.00  0.00     0.013 A 
ATOM     17  C   UNL d   1      58.468  -1.363  29.966  0.00  0.00     0.001 A 
ATOM     18  C   UNL d   1      58.948  -0.797  29.599  0.00  0.00     0.000 A 
ATOM     19  C   UNL d   1      58.806   0.000  29.768  0.00  0.00     0.001 A 
ATOM     20  C   UNL d   1      59.546  -1.020  29.084  0.00  0.00     0.000 C 
ATOM     21  C   UNL d   1      58.205   0.225  30.286  0.00  0.00     0.013 A 
ENDBRANCH  12  15
ENDBRANCH  11  12
ENDBRANCH   1  11
BRANCH   6  22
ATOM     22  O   UNL d   1      58.459   0.609  33.758  0.00  0.00    -0.328 OA
ATOM     23  C   UNL d   1      58.679   0.679  34.559  0.00  0.00     0.181 C 
ENDBRANCH   6  22
TORSDOF 4
ENDMDL
MODEL 3
REMARK VINA RESULT:      -3.2      1.296      2.290
REMARK  4 active torsions:
REMARK  status: ('A' for Active; 'I' for Inactive)
REMARK    1  A    between atoms: N_3  and  S_1 
REMARK    2  A    between atoms: C_5  and  S_1 
REMARK    3  A    between atoms: C_2  and  N_3 
REMARK    4  A    between atoms: O_18  and  C_11 
ROOT
ATOM      1  C   UNL d   1      58.726  -1.522  29.237  0.00  0.00     0.113 A 
ATOM      2  C   UNL d   1      59.041  -2.268  29.037  0.00  0.00     0.100 A 
ATOM      3  C   UNL d   1      59.170  -0.841  29.175  0.00  0.00     0.046 A 
ATOM      4  C   UNL d   1      59.800  -2.333  28.776  0.00  0.00     0.021 A 
ATOM      5  N   UNL d   1      58.570  -2.942  29.110  0.00  0.00    -0.242 NA
ATOM      6  C   UNL d   1      59.953  -0.915  28.904  0.00  0.00     0.096 A 
ATOM      7  C   UNL d   1      60.268  -1.661  28.704  0.00  0.00     0.026 A 
ATOM      8  C   UNL d   1      60.110  -3.068  28.579  0.00  0.00     0.003 A 
ATOM      9  C   UNL d   1      58.880  -3.677  28.913  0.00  0.00     0.099 A 
ATOM     10  C   UNL d   1      59.671  -3.761  28.638  0.00  0.00     0.021 A 
ENDROOT
BRANCH   1  11
ATOM     11  N   UNL d   1      57.916  -1.441  29.518  0.00  0.00    -0.157 NA
BRANCH  11  12
ATOM     12  S   UNL d   1      57.741  -1.015  30.213  0.00  0.00     0.285 S 
ATOM     13  O   UNL d   1      57.578  -0.324  29.748  0.00  0.00    -0.198 OA
ATOM     14  O   UNL d   1      57.898  -1.683  30.662  0.00  0.00    -0.198 OA
BRANCH  12  15
ATOM     15  C   UNL d   1      57.567  -0.591  30.904  0.00  0.00     0.105 A 
ATOM     16  C   UNL d   1      56.984  -0.856  31.421  0.00  0.00     0.013 A 
ATOM     17  C   UNL d   1      56.811  -0.434  32.108  0.00  0.00     0.001 A 
ATOM     18  C   UNL d   1      57.217   0.262  32.294  0.00  0.00     0.000 A 
ATOM     19  C   UNL d   1      57.801   0.523  31.771  0.00  0.00     0.001 A 
ATOM     20  C   UNL d   1      57.045   0.682  32.978  0.00  0.00     0.000 C 
ATOM     21  C   UNL d   1      57.974   0.101  31.083  0.00  0.00     0.013 A 
ENDBRANCH  12  15
ENDBRANCH  11  12
ENDBRANCH   1  11
BRANCH   6  22
ATOM     22  O   UNL d   1      60.422  -0.201  28.837  0.00  0.00    -0.328 OA
ATOM     23  C   UNL d   1      61.132  -0.108  29.265  0.00  0.00     0.181 C 
ENDBRANCH   6  22
TORSDOF 4
ENDMDL
MODEL 4
REMARK VINA RESULT:      -2.7      1.031      1.289
REMARK  4 active torsions:
REMARK  status: ('A' for Active; 'I' for Inactive)
REMARK    1  A    between atoms: N_3  and  S_1 
REMARK    2  A    between atoms: C_5  and  S_1 
REMARK    3  A    between atoms: C_2  and  N_3 
REMARK    4  A    between atoms: O_18  and  C_11 
ROOT
ATOM      1  C   UNL d   1      58.675   0.260  30.638  0.00  0.00     0.113 A 
ATOM      2  C   UNL d   1      59.494   0.264  30.481  0.00  0.00     0.100 A 
ATOM      3  C   UNL d   1      58.152  -0.142  30.159  0.00  0.00     0.046 A 
ATOM      4  C   UNL d   1      59.790  -0.134  29.846  0.00  0.00     0.021 A 
ATOM      5  N   UNL d   1      60.003   0.678  30.982  0.00  0.00    -0.242 NA
ATOM      6  C   UNL d   1      58.462  -0.550  29.505  0.00  0.00     0.096 A 
ATOM      7  C   UNL d   1      59.281  -0.547  29.348  0.00  0.00     0.026 A 
ATOM      8  C   UNL d   1      60.596  -0.131  29.692  0.00  0.00     0.003 A 
ATOM      9  C   UNL d   1      60.810   0.682  30.828  0.00  0.00     0.099 A 
ATOM     10  C   UNL d   1      61.133   0.271  30.168  0.00  0.00     0.021 A 
ENDROOT
BRANCH   1  11
ATOM     11  N   UNL d   1      58.349   0.682  31.314  0.00  0.00    -0.157 NA
BRANCH  11  12
ATOM     12  S   UNL d   1      57.681   0.393  31.721  0.00  0.00     0.285 S 
ATOM     13  O   UNL d   1      57.240   0.391  30.997  0.00  0.00    -0.198 OA
ATOM     14  O   UNL d   1      58.107   0.395  32.421  0.00  0.00    -0.198 OA
BRANCH  12  15
ATOM     15  C   UNL d   1      57.016   0.106  32.126  0.00  0.00     0.105 A 
ATOM     16  C   UNL d   1      56.371   0.596  32.269  0.00  0.00     0.013 A 
ATOM     17  C   UNL d   1      55.710   0.310  32.672  0.00  0.00     0.001 A 
ATOM     18  C   UNL d   1      55.680  -0.471  32.941  0.00  0.00     0.000 A 
ATOM     19  C   UNL d   1      56.332  -0.958  32.794  0.00  0.00     0.001 A 
ATOM     20  C   UNL d   1      55.023  -0.755  33.341  0.00  0.00     0.000 C 
ATOM     21  C   UNL d   1      56.993  -0.673  32.391  0.00  0.00     0.013 A 
ENDBRANCH  12  15
ENDBRANCH  11  12
ENDBRANCH   1  11
BRANCH   6  22
ATOM     22  O   UNL d   1      57.914  -0.973  29.000  0.00  0.00    -0.328 OA
ATOM     23  C   UNL d   1      58.177  -1.573  28.483  0.00  0.00     0.181 C 
ENDBRANCH   6  22
TORSDOF 4
ENDMDL
