MODEL 1
REMARK VINA RESULT:      44.5      0.000      0.000
REMARK  1 active torsions:
REMARK  status: ('A' for Active; 'I' for Inactive)
REMARK    1  A    between atoms: N_2  and  C_1 
ROOT
ATOM      1  C   UNL d   1     -52.343  25.552  33.331  0.00  0.00     0.110 A 
ATOM      2  C   UNL d   1     -52.416  24.716  33.323  0.00  0.00     0.212 A 
ATOM      3  C   UNL d   1     -53.023  26.025  33.333  0.00  0.00     0.056 A 
ATOM      4  C   UNL d   1     -53.162  24.374  33.318  0.00  0.00     0.046 A 
ATOM      5  S   UNL d   1     -53.778  25.663  33.328  0.00  0.00    -0.085 SA
ATOM      6  C   UNL d   1     -53.846  24.841  33.321  0.00  0.00     0.033 A 
ATOM      7  O   UNL d   1     -51.741  24.247  33.321  0.00  0.00    -0.285 OA
ATOM      8  C   UNL d   1     -53.237  23.553  33.311  0.00  0.00     0.004 A 
ATOM      9  C   UNL d   1     -54.591  24.494  33.316  0.00  0.00     0.007 A 
ATOM     10  C   UNL d   1     -53.978  23.199  33.306  0.00  0.00     0.000 A 
ATOM     11  C   UNL d   1     -54.658  23.672  33.309  0.00  0.00     0.001 A 
ENDROOT
BRANCH   1  12
ATOM     12  N   UNL d   1     -51.594  25.905  33.336  0.00  0.00    -0.301 N 
ATOM     13  C   UNL d   1     -51.525  26.716  33.319  0.00  0.00     0.080 A 
ATOM     14  C   UNL d   1     -50.776  27.074  33.324  0.00  0.00     0.018 A 
ATOM     15  C   UNL d   1     -50.708  27.891  33.306  0.00  0.00     0.002 A 
ATOM     16  C   UNL d   1     -50.102  26.605  33.346  0.00  0.00     0.003 A 
ATOM     17  C   UNL d   1     -49.962  28.246  33.311  0.00  0.00     0.000 A 
ATOM     18  C   UNL d   1     -49.285  27.775  33.334  0.00  0.00     0.000 A 
ATOM     19  C   UNL d   1     -49.355  26.951  33.351  0.00  0.00     0.000 A 
ATOM     20  C   UNL d   1     -50.166  25.772  33.363  0.00  0.00     0.019 A 
ATOM     21  C   UNL d   1     -50.914  25.432  33.358  0.00  0.00     0.080 A 
ENDBRANCH   1  12
TORSDOF 1
ENDMDL
