MODEL 1
REMARK VINA RESULT:      -5.7      0.000      0.000
REMARK  3 active torsions:
REMARK  status: ('A' for Active; 'I' for Inactive)
REMARK    1  A    between atoms: C_5  and  C_3 
REMARK       I    between atoms: N_10  and  C_5 
REMARK    2  A    between atoms: C_13  and  N_10 
REMARK    3  A    between atoms: C_15  and  C_13 
ROOT
ATOM      1  N   UNL d   1     -41.704-122.601 -54.050  0.00  0.00    -0.254 N 
ATOM      2  C   UNL d   1     -41.699-122.276 -53.287  0.00  0.00     0.272 A 
ATOM      3  C   UNL d   1     -41.409-122.714 -52.648  0.00  0.00     0.133 A 
ATOM      4  C   UNL d   1     -41.416-123.365 -54.164  0.00  0.00     0.182 A 
ATOM      5  N   UNL d   1     -41.127-123.803 -53.530  0.00  0.00    -0.220 NA
ATOM      6  C   UNL d   1     -41.123-123.478 -52.770  0.00  0.00     0.111 A 
ATOM      7  S   UNL d   1     -41.486-123.547 -54.967  0.00  0.00    -0.048 SA
ATOM      8  C   UNL d   1     -41.951-122.308 -54.773  0.00  0.00     0.075 A 
ATOM      9  C   UNL d   1     -41.821-122.883 -55.343  0.00  0.00     0.056 A 
ATOM     10  O   UNL d   1     -41.987-121.511 -53.173  0.00  0.00    -0.266 OA
ATOM     11  C   UNL d   1     -42.275-121.566 -54.911  0.00  0.00     0.020 C 
ENDROOT
BRANCH   3  12
ATOM     12  C   UNL d   1     -41.410-122.376 -51.891  0.00  0.00     0.285 C 
ATOM     13  N   UNL d   1     -41.705-122.812 -51.258  0.00  0.00    -0.208 NA
ATOM     14  O   UNL d   1     -41.123-121.620 -51.773  0.00  0.00    -0.265 OA
BRANCH  13  15
ATOM     15  C   UNL d   1     -41.711-122.486 -50.503  0.00  0.00     0.085 C 
ATOM     16  C   UNL d   1     -41.310-121.791 -50.345  0.00  0.00     0.021 C 
BRANCH  15  17
ATOM     17  C   UNL d   1     -42.127-122.869 -49.902  0.00  0.00     0.018 A 
ATOM     18  C   UNL d   1     -42.926-122.685 -49.792  0.00  0.00     0.002 A 
ATOM     19  C   UNL d   1     -43.342-123.069 -49.191  0.00  0.00     0.000 A 
ATOM     20  C   UNL d   1     -42.969-123.632 -48.700  0.00  0.00     0.000 A 
ATOM     21  C   UNL d   1     -42.170-123.806 -48.822  0.00  0.00     0.000 A 
ATOM     22  C   UNL d   1     -41.744-123.429 -49.420  0.00  0.00     0.002 A 
ENDBRANCH  15  17
ENDBRANCH  13  15
ENDBRANCH   3  12
TORSDOF 3
ENDMDL
MODEL 2
REMARK VINA RESULT:      -4.7      1.773      4.581
REMARK  3 active torsions:
REMARK  status: ('A' for Active; 'I' for Inactive)
REMARK    1  A    between atoms: C_5  and  C_3 
REMARK       I    between atoms: N_10  and  C_5 
REMARK    2  A    between atoms: C_13  and  N_10 
REMARK    3  A    between atoms: C_15  and  C_13 
ROOT
ATOM      1  N   UNL d   1     -42.331-123.173 -49.171  0.00  0.00    -0.254 N 
ATOM      2  C   UNL d   1     -41.939-122.801 -49.801  0.00  0.00     0.272 A 
ATOM      3  C   UNL d   1     -42.363-122.544 -50.463  0.00  0.00     0.133 A 
ATOM      4  C   UNL d   1     -43.147-123.284 -49.213  0.00  0.00     0.182 A 
ATOM      5  N   UNL d   1     -43.571-123.029 -49.870  0.00  0.00    -0.220 NA
ATOM      6  C   UNL d   1     -43.180-122.658 -50.498  0.00  0.00     0.111 A 
ATOM      7  S   UNL d   1     -43.389-123.662 -48.520  0.00  0.00    -0.048 SA
ATOM      8  C   UNL d   1     -42.066-123.479 -48.460  0.00  0.00     0.075 A 
ATOM      9  C   UNL d   1     -42.710-123.783 -48.053  0.00  0.00     0.056 A 
ATOM     10  O   UNL d   1     -41.123-122.690 -49.758  0.00  0.00    -0.266 OA
ATOM     11  C   UNL d   1     -41.289-123.485 -48.194  0.00  0.00     0.020 C 
ENDROOT
BRANCH   3  12
ATOM     12  C   UNL d   1     -41.959-122.174 -51.085  0.00  0.00     0.285 C 
ATOM     13  N   UNL d   1     -41.872-122.572 -51.800  0.00  0.00    -0.208 NA
ATOM     14  O   UNL d   1     -41.650-121.423 -50.991  0.00  0.00    -0.265 OA
BRANCH  13  15
ATOM     15  C   UNL d   1     -41.472-122.214 -52.423  0.00  0.00     0.085 C 
ATOM     16  C   UNL d   1     -41.123-121.481 -52.328  0.00  0.00     0.021 C 
BRANCH  15  17
ATOM     17  C   UNL d   1     -41.427-122.603 -53.150  0.00  0.00     0.018 A 
ATOM     18  C   UNL d   1     -41.303-123.421 -53.155  0.00  0.00     0.002 A 
ATOM     19  C   UNL d   1     -41.258-123.810 -53.881  0.00  0.00     0.000 A 
ATOM     20  C   UNL d   1     -41.335-123.393 -54.600  0.00  0.00     0.000 A 
ATOM     21  C   UNL d   1     -41.460-122.575 -54.579  0.00  0.00     0.000 A 
ATOM     22  C   UNL d   1     -41.507-122.176 -53.859  0.00  0.00     0.002 A 
ENDBRANCH  15  17
ENDBRANCH  13  15
ENDBRANCH   3  12
TORSDOF 3
ENDMDL
MODEL 3
REMARK VINA RESULT:      -4.5      1.581      4.600
REMARK  3 active torsions:
REMARK  status: ('A' for Active; 'I' for Inactive)
REMARK    1  A    between atoms: C_5  and  C_3 
REMARK       I    between atoms: N_10  and  C_5 
REMARK    2  A    between atoms: C_13  and  N_10 
REMARK    3  A    between atoms: C_15  and  C_13 
ROOT
ATOM      1  N   UNL d   1     -41.977-122.765 -50.565  0.00  0.00    -0.254 N 
ATOM      2  C   UNL d   1     -41.902-123.091 -51.324  0.00  0.00     0.272 A 
ATOM      3  C   UNL d   1     -41.476-122.691 -51.910  0.00  0.00     0.133 A 
ATOM      4  C   UNL d   1     -41.622-122.039 -50.401  0.00  0.00     0.182 A 
ATOM      5  N   UNL d   1     -41.197-121.640 -50.982  0.00  0.00    -0.220 NA
ATOM      6  C   UNL d   1     -41.123-121.965 -51.738  0.00  0.00     0.111 A 
ATOM      7  S   UNL d   1     -41.783-121.849 -49.614  0.00  0.00    -0.048 SA
ATOM      8  C   UNL d   1     -42.356-123.025 -49.888  0.00  0.00     0.075 A 
ATOM      9  C   UNL d   1     -42.242-122.468 -49.297  0.00  0.00     0.056 A 
ATOM     10  O   UNL d   1     -42.257-123.817 -51.488  0.00  0.00    -0.266 OA
ATOM     11  C   UNL d   1     -42.779-123.724 -49.807  0.00  0.00     0.020 C 
ENDROOT
BRANCH   3  12
ATOM     12  C   UNL d   1     -41.409-123.029 -52.664  0.00  0.00     0.285 C 
ATOM     13  N   UNL d   1     -41.621-122.583 -53.323  0.00  0.00    -0.208 NA
ATOM     14  O   UNL d   1     -41.136-123.793 -52.754  0.00  0.00    -0.265 OA
BRANCH  13  15
ATOM     15  C   UNL d   1     -41.559-122.908 -54.076  0.00  0.00     0.085 C 
ATOM     16  C   UNL d   1     -41.211-123.639 -54.187  0.00  0.00     0.021 C 
BRANCH  15  17
ATOM     17  C   UNL d   1     -41.852-122.487 -54.722  0.00  0.00     0.018 A 
ATOM     18  C   UNL d   1     -41.318-122.084 -55.209  0.00  0.00     0.002 A 
ATOM     19  C   UNL d   1     -41.611-121.663 -55.855  0.00  0.00     0.000 A 
ATOM     20  C   UNL d   1     -42.429-121.639 -56.020  0.00  0.00     0.000 A 
ATOM     21  C   UNL d   1     -42.951-122.047 -55.525  0.00  0.00     0.000 A 
ATOM     22  C   UNL d   1     -42.669-122.471 -54.876  0.00  0.00     0.002 A 
ENDBRANCH  15  17
ENDBRANCH  13  15
ENDBRANCH   3  12
TORSDOF 3
ENDMDL
