MODEL 1
REMARK VINA RESULT:      -9.1      0.000      0.000
REMARK  2 active torsions:
REMARK  status: ('A' for Active; 'I' for Inactive)
REMARK    1  A    between atoms: N_2  and  C_9 
REMARK    2  A    between atoms: C_11  and  C_7 
ROOT
ATOM      1  C   UNL d   1     -47.637  12.854  23.050  0.00  0.00     0.110 A 
ATOM      2  C   UNL d   1     -47.906  11.615  23.461  0.00  0.00     0.332 A 
ATOM      3  C   UNL d   1     -46.927  12.458  23.144  0.00  0.00     0.060 A 
ATOM      4  S   UNL d   1     -47.088  11.698  23.396  0.00  0.00    -0.018 SA
ATOM      5  O   UNL d   1     -48.242  12.341  23.243  0.00  0.00    -0.268 OA
ATOM      6  C   UNL d   1     -47.645  13.638  22.798  0.00  0.00     0.027 A 
ATOM      7  C   UNL d   1     -46.207  12.858  22.982  0.00  0.00     0.051 A 
ATOM      8  C   UNL d   1     -46.941  14.035  22.638  0.00  0.00     0.044 A 
ATOM      9  O   UNL d   1     -48.314  10.937  23.698  0.00  0.00    -0.251 OA
ATOM     10  C   UNL d   1     -46.226  13.645  22.730  0.00  0.00     0.196 A 
ATOM     11  O   UNL d   1     -45.509  14.040  22.570  0.00  0.00    -0.286 OA
ENDROOT
BRANCH   6  12
ATOM     12  C   UNL d   1     -48.363  14.034  22.704  0.00  0.00     0.002 A 
ATOM     13  C   UNL d   1     -48.770  13.977  21.984  0.00  0.00     0.002 A 
ATOM     14  C   UNL d   1     -49.492  14.374  21.886  0.00  0.00     0.024 A 
ATOM     15  C   UNL d   1     -49.803  14.824  22.508  0.00  0.00     0.127 A 
ATOM     16  C   UNL d   1     -49.397  14.878  23.222  0.00  0.00     0.024 A 
ATOM     17  C   UNL d   1     -48.675  14.482  23.320  0.00  0.00     0.002 A 
BRANCH  15  18
ATOM     18  N   UNL d   1     -50.529  15.225  22.415  0.00  0.00    -0.114 N 
ATOM     19  O   UNL d   1     -50.726  15.838  22.928  0.00  0.00    -0.532 OA
ATOM     20  O   UNL d   1     -51.044  15.007  21.813  0.00  0.00    -0.532 OA
ENDBRANCH  15  18
ENDBRANCH   6  12
TORSDOF 2
ENDMDL
MODEL 2
REMARK VINA RESULT:      -8.9      1.790      3.551
REMARK  2 active torsions:
REMARK  status: ('A' for Active; 'I' for Inactive)
REMARK    1  A    between atoms: N_2  and  C_9 
REMARK    2  A    between atoms: C_11  and  C_7 
ROOT
ATOM      1  C   UNL d   1     -49.236  13.225  22.934  0.00  0.00     0.110 A 
ATOM      2  C   UNL d   1     -49.893  12.131  23.317  0.00  0.00     0.332 A 
ATOM      3  C   UNL d   1     -50.033  13.408  22.975  0.00  0.00     0.060 A 
ATOM      4  S   UNL d   1     -50.439  12.739  23.209  0.00  0.00    -0.018 SA
ATOM      5  O   UNL d   1     -49.144  12.442  23.143  0.00  0.00    -0.268 OA
ATOM      6  C   UNL d   1     -48.690  13.799  22.710  0.00  0.00     0.027 A 
ATOM      7  C   UNL d   1     -50.289  14.186  22.786  0.00  0.00     0.051 A 
ATOM      8  C   UNL d   1     -48.936  14.563  22.524  0.00  0.00     0.044 A 
ATOM      9  O   UNL d   1     -50.059  11.357  23.553  0.00  0.00    -0.251 OA
ATOM     10  C   UNL d   1     -49.731  14.753  22.562  0.00  0.00     0.196 A 
ATOM     11  O   UNL d   1     -49.988  15.525  22.376  0.00  0.00    -0.286 OA
ENDROOT
BRANCH   6  12
ATOM     12  C   UNL d   1     -47.887  13.611  22.670  0.00  0.00     0.002 A 
ATOM     13  C   UNL d   1     -47.389  13.813  23.301  0.00  0.00     0.002 A 
ATOM     14  C   UNL d   1     -46.581  13.625  23.264  0.00  0.00     0.024 A 
ATOM     15  C   UNL d   1     -46.278  13.237  22.598  0.00  0.00     0.127 A 
ATOM     16  C   UNL d   1     -46.776  13.037  21.974  0.00  0.00     0.024 A 
ATOM     17  C   UNL d   1     -47.583  13.225  22.010  0.00  0.00     0.002 A 
BRANCH  15  18
ATOM     18  N   UNL d   1     -45.467  13.046  22.556  0.00  0.00    -0.114 N 
ATOM     19  O   UNL d   1     -45.175  12.406  22.985  0.00  0.00    -0.532 OA
ATOM     20  O   UNL d   1     -44.962  13.495  22.088  0.00  0.00    -0.532 OA
ENDBRANCH  15  18
ENDBRANCH   6  12
TORSDOF 2
ENDMDL
MODEL 3
REMARK VINA RESULT:      -8.9      1.981      3.931
REMARK  2 active torsions:
REMARK  status: ('A' for Active; 'I' for Inactive)
REMARK    1  A    between atoms: N_2  and  C_9 
REMARK    2  A    between atoms: C_11  and  C_7 
ROOT
ATOM      1  C   UNL d   1     -49.147  13.602  23.161  0.00  0.00     0.110 A 
ATOM      2  C   UNL d   1     -49.610  14.847  23.269  0.00  0.00     0.332 A 
ATOM      3  C   UNL d   1     -49.953  13.561  23.301  0.00  0.00     0.060 A 
ATOM      4  S   UNL d   1     -50.240  14.323  23.368  0.00  0.00    -0.018 SA
ATOM      5  O   UNL d   1     -48.931  14.389  23.140  0.00  0.00    -0.268 OA
ATOM      6  C   UNL d   1     -48.706  12.912  23.068  0.00  0.00     0.027 A 
ATOM      7  C   UNL d   1     -50.326  12.811  23.350  0.00  0.00     0.051 A 
ATOM      8  C   UNL d   1     -49.069  12.174  23.116  0.00  0.00     0.044 A 
ATOM      9  O   UNL d   1     -49.648  15.671  23.294  0.00  0.00    -0.251 OA
ATOM     10  C   UNL d   1     -49.874  12.125  23.256  0.00  0.00     0.196 A 
ATOM     11  O   UNL d   1     -50.248  11.381  23.305  0.00  0.00    -0.286 OA
ENDROOT
BRANCH   6  12
ATOM     12  C   UNL d   1     -47.895  12.957  22.927  0.00  0.00     0.002 A 
ATOM     13  C   UNL d   1     -47.366  12.899  23.562  0.00  0.00     0.002 A 
ATOM     14  C   UNL d   1     -46.549  12.944  23.424  0.00  0.00     0.024 A 
ATOM     15  C   UNL d   1     -46.266  13.046  22.652  0.00  0.00     0.127 A 
ATOM     16  C   UNL d   1     -46.794  13.103  22.023  0.00  0.00     0.024 A 
ATOM     17  C   UNL d   1     -47.611  13.058  22.162  0.00  0.00     0.002 A 
BRANCH  15  18
ATOM     18  N   UNL d   1     -45.446  13.091  22.507  0.00  0.00    -0.114 N 
ATOM     19  O   UNL d   1     -44.966  12.441  22.667  0.00  0.00    -0.532 OA
ATOM     20  O   UNL d   1     -45.120  13.783  22.206  0.00  0.00    -0.532 OA
ENDBRANCH  15  18
ENDBRANCH   6  12
TORSDOF 2
ENDMDL
MODEL 4
REMARK VINA RESULT:      -6.2      8.770      9.882
REMARK  2 active torsions:
REMARK  status: ('A' for Active; 'I' for Inactive)
REMARK    1  A    between atoms: N_2  and  C_9 
REMARK    2  A    between atoms: C_11  and  C_7 
ROOT
ATOM      1  C   UNL d   1     -39.696  14.852  17.745  0.00  0.00     0.110 A 
ATOM      2  C   UNL d   1     -38.650  14.208  17.227  0.00  0.00     0.332 A 
ATOM      3  C   UNL d   1     -39.783  14.839  16.930  0.00  0.00     0.060 A 
ATOM      4  S   UNL d   1     -39.143  14.445  16.610  0.00  0.00    -0.018 SA
ATOM      5  O   UNL d   1     -39.002  14.466  17.932  0.00  0.00    -0.268 OA
ATOM      6  C   UNL d   1     -40.263  15.217  18.217  0.00  0.00     0.027 A 
ATOM      7  C   UNL d   1     -40.456  15.201  16.581  0.00  0.00     0.051 A 
ATOM      8  C   UNL d   1     -40.925  15.573  17.879  0.00  0.00     0.044 A 
ATOM      9  O   UNL d   1     -37.940  13.793  17.156  0.00  0.00    -0.251 OA
ATOM     10  C   UNL d   1     -41.019  15.564  17.065  0.00  0.00     0.196 A 
ATOM     11  O   UNL d   1     -41.687  15.922  16.716  0.00  0.00    -0.286 OA
ENDROOT
BRANCH   6  12
ATOM     12  C   UNL d   1     -40.172  15.228  19.037  0.00  0.00     0.002 A 
ATOM     13  C   UNL d   1     -40.494  14.615  19.492  0.00  0.00     0.002 A 
ATOM     14  C   UNL d   1     -40.404  14.622  20.317  0.00  0.00     0.024 A 
ATOM     15  C   UNL d   1     -39.993  15.243  20.681  0.00  0.00     0.127 A 
ATOM     16  C   UNL d   1     -39.674  15.850  20.226  0.00  0.00     0.024 A 
ATOM     17  C   UNL d   1     -39.764  15.842  19.401  0.00  0.00     0.002 A 
BRANCH  15  18
ATOM     18  N   UNL d   1     -39.899  15.256  21.510  0.00  0.00    -0.114 N 
ATOM     19  O   UNL d   1     -39.584  14.601  21.896  0.00  0.00    -0.532 OA
ATOM     20  O   UNL d   1     -40.122  15.921  21.938  0.00  0.00    -0.532 OA
ENDBRANCH  15  18
ENDBRANCH   6  12
TORSDOF 2
ENDMDL
