MODEL 1
REMARK VINA RESULT:      -0.6      0.000      0.000
REMARK  3 active torsions:
REMARK  status: ('A' for Active; 'I' for Inactive)
REMARK    1  A    between atoms: N_7  and  C_1 
REMARK    2  A    between atoms: C_11  and  N_3 
REMARK       I    between atoms: C_9  and  N_7 
REMARK    3  A    between atoms: C_12  and  C_9 
ROOT
ATOM      1  C   UNL d   1     -41.403-122.362 -51.949  0.00  0.00     0.165 A 
ATOM      2  C   UNL d   1     -41.336-121.629 -51.699  0.00  0.00     0.067 A 
ATOM      3  N   UNL d   1     -41.348-122.354 -52.726  0.00  0.00    -0.238 N 
ATOM      4  C   UNL d   1     -41.239-121.164 -52.325  0.00  0.00     0.116 A 
ATOM      5  N   UNL d   1     -41.246-121.615 -52.956  0.00  0.00    -0.168 NA
ATOM      6  S   UNL d   1     -41.228-120.444 -51.289  0.00  0.00     0.213 S 
ATOM      7  C   UNL d   1     -41.173-120.435 -52.069  0.00  0.00     0.120 A 
ATOM      8  C   UNL d   1     -41.329-121.182 -51.062  0.00  0.00     0.103 A 
ATOM      9  O   UNL d   1     -41.126-119.738 -51.593  0.00  0.00    -0.217 OA
ATOM     10  O   UNL d   1     -41.282-120.503 -50.620  0.00  0.00    -0.217 OA
ENDROOT
BRANCH   1  11
ATOM     11  N   UNL d   1     -41.479-122.626 -51.299  0.00  0.00    -0.189 NA
ATOM     12  C   UNL d   1     -42.113-123.261 -50.844  0.00  0.00     0.281 C 
ATOM     13  O   UNL d   1     -42.689-123.589 -51.222  0.00  0.00    -0.265 OA
BRANCH  12  14
ATOM     14  C   UNL d   1     -42.009-123.432 -50.047  0.00  0.00     0.058 A 
ATOM     15  C   UNL d   1     -42.669-123.394 -49.521  0.00  0.00     0.005 A 
ATOM     16  C   UNL d   1     -43.417-123.188 -49.804  0.00  0.00     0.000 C 
ATOM     17  C   UNL d   1     -42.560-123.567 -48.713  0.00  0.00     0.000 A 
ATOM     18  C   UNL d   1     -41.798-123.777 -48.431  0.00  0.00     0.000 A 
ATOM     19  C   UNL d   1     -41.158-123.810 -48.958  0.00  0.00     0.000 A 
ATOM     20  C   UNL d   1     -41.262-123.637 -49.767  0.00  0.00     0.005 A 
ENDBRANCH  12  14
ENDBRANCH   1  11
BRANCH   3  21
ATOM     21  C   UNL d   1     -41.389-123.019 -53.226  0.00  0.00     0.088 C 
ATOM     22  C   UNL d   1     -41.154-123.799 -53.047  0.00  0.00     0.025 C 
ATOM     23  C   UNL d   1     -41.704-122.836 -53.970  0.00  0.00     0.025 C 
ATOM     24  C   UNL d   1     -41.385-123.736 -53.634  0.00  0.00     0.025 C 
ENDBRANCH   3  21
TORSDOF 3
ENDMDL
