MODEL 1
REMARK VINA RESULT:      -1.3      0.000      0.000
REMARK  3 active torsions:
REMARK  status: ('A' for Active; 'I' for Inactive)
REMARK    1  A    between atoms: C_12  and  C_4 
REMARK    2  A    between atoms: O_13  and  C_7 
REMARK    3  A    between atoms: O_14  and  C_10 
ROOT
ATOM      1  C   UNL d   1     -41.371-122.399 -52.177  0.00  0.00     0.084 A 
ATOM      2  C   UNL d   1     -41.452-123.068 -52.652  0.00  0.00     0.201 A 
ATOM      3  C   UNL d   1     -41.604-122.977 -53.457  0.00  0.00     0.067 A 
ATOM      4  C   UNL d   1     -41.674-122.219 -53.787  0.00  0.00     0.103 A 
ATOM      5  C   UNL d   1     -41.440-121.642 -52.506  0.00  0.00     0.107 A 
ATOM      6  O   UNL d   1     -41.592-121.554 -53.310  0.00  0.00    -0.307 OA
ATOM      7  C   UNL d   1     -41.219-122.491 -51.372  0.00  0.00     0.101 A 
ATOM      8  C   UNL d   1     -41.358-120.981 -52.027  0.00  0.00     0.049 A 
ATOM      9  C   UNL d   1     -41.137-121.822 -50.896  0.00  0.00     0.049 A 
ATOM     10  C   UNL d   1     -41.206-121.073 -51.222  0.00  0.00     0.098 A 
ATOM     11  O   UNL d   1     -41.382-123.815 -52.322  0.00  0.00    -0.286 OA
ENDROOT
BRANCH   4  12
ATOM     12  C   UNL d   1     -41.824-122.136 -54.588  0.00  0.00     0.023 A 
ATOM     13  C   UNL d   1     -42.597-122.101 -54.855  0.00  0.00     0.002 A 
ATOM     14  C   UNL d   1     -42.757-122.017 -55.660  0.00  0.00     0.000 A 
ATOM     15  C   UNL d   1     -42.127-121.969 -56.203  0.00  0.00     0.000 A 
ATOM     16  C   UNL d   1     -41.357-122.005 -55.927  0.00  0.00     0.000 A 
ATOM     17  C   UNL d   1     -41.197-122.088 -55.122  0.00  0.00     0.002 A 
ENDBRANCH   4  12
BRANCH   7  18
ATOM     18  O   UNL d   1     -41.150-123.239 -51.046  0.00  0.00    -0.328 OA
ATOM     19  C   UNL d   1     -41.229-123.340 -50.236  0.00  0.00     0.181 C 
ENDBRANCH   7  18
BRANCH  10  20
ATOM     20  O   UNL d   1     -41.125-120.403 -50.746  0.00  0.00    -0.328 OA
ATOM     21  C   UNL d   1     -41.224-119.655 -51.081  0.00  0.00     0.181 C 
ENDBRANCH  10  20
TORSDOF 3
ENDMDL
MODEL 2
REMARK VINA RESULT:      -1.1      0.868      2.022
REMARK  3 active torsions:
REMARK  status: ('A' for Active; 'I' for Inactive)
REMARK    1  A    between atoms: C_12  and  C_4 
REMARK    2  A    between atoms: O_13  and  C_7 
REMARK    3  A    between atoms: O_14  and  C_10 
ROOT
ATOM      1  C   UNL d   1     -41.450-121.972 -51.711  0.00  0.00     0.084 A 
ATOM      2  C   UNL d   1     -41.336-121.354 -52.245  0.00  0.00     0.201 A 
ATOM      3  C   UNL d   1     -41.430-121.495 -53.052  0.00  0.00     0.067 A 
ATOM      4  C   UNL d   1     -41.636-122.250 -53.324  0.00  0.00     0.103 A 
ATOM      5  C   UNL d   1     -41.656-122.727 -51.983  0.00  0.00     0.107 A 
ATOM      6  O   UNL d   1     -41.749-122.864 -52.789  0.00  0.00    -0.307 OA
ATOM      7  C   UNL d   1     -41.356-121.832 -50.904  0.00  0.00     0.101 A 
ATOM      8  C   UNL d   1     -41.768-123.337 -51.446  0.00  0.00     0.049 A 
ATOM      9  C   UNL d   1     -41.470-122.449 -50.369  0.00  0.00     0.049 A 
ATOM     10  C   UNL d   1     -41.674-123.196 -50.638  0.00  0.00     0.098 A 
ATOM     11  O   UNL d   1     -41.132-120.610 -51.972  0.00  0.00    -0.286 OA
ENDROOT
BRANCH   4  12
ATOM     12  C   UNL d   1     -41.727-122.382 -54.128  0.00  0.00     0.023 A 
ATOM     13  C   UNL d   1     -41.303-122.979 -54.492  0.00  0.00     0.002 A 
ATOM     14  C   UNL d   1     -41.390-123.119 -55.301  0.00  0.00     0.000 A 
ATOM     15  C   UNL d   1     -41.912-122.647 -55.747  0.00  0.00     0.000 A 
ATOM     16  C   UNL d   1     -42.332-122.052 -55.375  0.00  0.00     0.000 A 
ATOM     17  C   UNL d   1     -42.246-121.913 -54.566  0.00  0.00     0.002 A 
ENDBRANCH   4  12
BRANCH   7  18
ATOM     18  O   UNL d   1     -41.152-121.085 -50.635  0.00  0.00    -0.328 OA
ATOM     19  C   UNL d   1     -41.132-120.934 -49.829  0.00  0.00     0.181 C 
ENDBRANCH   7  18
BRANCH  10  20
ATOM     20  O   UNL d   1     -41.788-123.815 -50.103  0.00  0.00    -0.328 OA
ATOM     21  C   UNL d   1     -42.361-123.740 -49.515  0.00  0.00     0.181 C 
ENDBRANCH  10  20
TORSDOF 3
ENDMDL
MODEL 3
REMARK VINA RESULT:      -0.9      1.413      4.478
REMARK  3 active torsions:
REMARK  status: ('A' for Active; 'I' for Inactive)
REMARK    1  A    between atoms: C_12  and  C_4 
REMARK    2  A    between atoms: O_13  and  C_7 
REMARK    3  A    between atoms: O_14  and  C_10 
ROOT
ATOM      1  C   UNL d   1     -41.458-122.286 -51.819  0.00  0.00     0.084 A 
ATOM      2  C   UNL d   1     -41.563-121.772 -51.183  0.00  0.00     0.201 A 
ATOM      3  C   UNL d   1     -41.728-122.080 -50.436  0.00  0.00     0.067 A 
ATOM      4  C   UNL d   1     -41.788-122.899 -50.325  0.00  0.00     0.103 A 
ATOM      5  C   UNL d   1     -41.519-123.105 -51.708  0.00  0.00     0.107 A 
ATOM      6  O   UNL d   1     -41.683-123.409 -50.962  0.00  0.00    -0.307 OA
ATOM      7  C   UNL d   1     -41.293-121.978 -52.566  0.00  0.00     0.101 A 
ATOM      8  C   UNL d   1     -41.413-123.611 -52.346  0.00  0.00     0.049 A 
ATOM      9  C   UNL d   1     -41.189-122.492 -53.202  0.00  0.00     0.049 A 
ATOM     10  C   UNL d   1     -41.248-123.302 -53.093  0.00  0.00     0.098 A 
ATOM     11  O   UNL d   1     -41.502-120.963 -51.297  0.00  0.00    -0.286 OA
ENDROOT
BRANCH   4  12
ATOM     12  C   UNL d   1     -41.952-123.198 -49.580  0.00  0.00     0.023 A 
ATOM     13  C   UNL d   1     -42.726-123.229 -49.316  0.00  0.00     0.002 A 
ATOM     14  C   UNL d   1     -42.900-123.528 -48.567  0.00  0.00     0.000 A 
ATOM     15  C   UNL d   1     -42.282-123.800 -48.078  0.00  0.00     0.000 A 
ATOM     16  C   UNL d   1     -41.511-123.766 -48.350  0.00  0.00     0.000 A 
ATOM     17  C   UNL d   1     -41.337-123.466 -49.099  0.00  0.00     0.002 A 
ENDBRANCH   4  12
BRANCH   7  18
ATOM     18  O   UNL d   1     -41.234-121.169 -52.675  0.00  0.00    -0.328 OA
ATOM     19  C   UNL d   1     -41.477-120.835 -53.384  0.00  0.00     0.181 C 
ENDBRANCH   7  18
BRANCH  10  20
ATOM     20  O   UNL d   1     -41.144-123.818 -53.729  0.00  0.00    -0.328 OA
ATOM     21  C   UNL d   1     -41.680-123.799 -54.356  0.00  0.00     0.181 C 
ENDBRANCH  10  20
TORSDOF 3
ENDMDL
MODEL 4
REMARK VINA RESULT:       1.5      1.310      1.531
REMARK  3 active torsions:
REMARK  status: ('A' for Active; 'I' for Inactive)
REMARK    1  A    between atoms: C_12  and  C_4 
REMARK    2  A    between atoms: O_13  and  C_7 
REMARK    3  A    between atoms: O_14  and  C_10 
ROOT
ATOM      1  C   UNL d   1     -42.067-122.788 -51.709  0.00  0.00     0.084 A 
ATOM      2  C   UNL d   1     -41.594-123.201 -52.243  0.00  0.00     0.201 A 
ATOM      3  C   UNL d   1     -41.602-122.987 -53.040  0.00  0.00     0.067 A 
ATOM      4  C   UNL d   1     -42.081-122.363 -53.301  0.00  0.00     0.103 A 
ATOM      5  C   UNL d   1     -42.547-122.164 -51.969  0.00  0.00     0.107 A 
ATOM      6  O   UNL d   1     -42.552-121.953 -52.765  0.00  0.00    -0.307 OA
ATOM      7  C   UNL d   1     -42.060-123.002 -50.912  0.00  0.00     0.101 A 
ATOM      8  C   UNL d   1     -43.015-121.758 -51.432  0.00  0.00     0.049 A 
ATOM      9  C   UNL d   1     -42.533-122.589 -50.378  0.00  0.00     0.049 A 
ATOM     10  C   UNL d   1     -43.006-121.973 -50.635  0.00  0.00     0.098 A 
ATOM     11  O   UNL d   1     -41.123-123.817 -51.981  0.00  0.00    -0.286 OA
ENDROOT
BRANCH   4  12
ATOM     12  C   UNL d   1     -42.084-122.156 -54.094  0.00  0.00     0.023 A 
ATOM     13  C   UNL d   1     -41.588-122.544 -54.616  0.00  0.00     0.002 A 
ATOM     14  C   UNL d   1     -41.585-122.341 -55.416  0.00  0.00     0.000 A 
ATOM     15  C   UNL d   1     -42.090-121.738 -55.691  0.00  0.00     0.000 A 
ATOM     16  C   UNL d   1     -42.583-121.356 -55.161  0.00  0.00     0.000 A 
ATOM     17  C   UNL d   1     -42.586-121.558 -54.361  0.00  0.00     0.002 A 
ENDBRANCH   4  12
BRANCH   7  18
ATOM     18  O   UNL d   1     -41.586-123.619 -50.655  0.00  0.00    -0.328 OA
ATOM     19  C   UNL d   1     -41.293-123.614 -49.889  0.00  0.00     0.181 C 
ENDBRANCH   7  18
BRANCH  10  20
ATOM     20  O   UNL d   1     -43.480-121.559 -50.100  0.00  0.00    -0.328 OA
ATOM     21  C   UNL d   1     -44.160-121.919 -49.800  0.00  0.00     0.181 C 
ENDBRANCH  10  20
TORSDOF 3
ENDMDL
