MODEL 1
REMARK VINA RESULT:      -3.8      0.000      0.000
REMARK  5 active torsions:
REMARK  status: ('A' for Active; 'I' for Inactive)
REMARK    1  A    between atoms: N_6  and  S_1 
REMARK    2  A    between atoms: C_11  and  S_1 
REMARK    3  A    between atoms: C_2  and  N_5 
REMARK    4  A    between atoms: C_9  and  C_4 
REMARK       I    between atoms: N_5  and  C_7 
REMARK    5  A    between atoms: C_7  and  C_15 
ROOT
ATOM      1  C   UNL d   1      56.172   0.284  33.098  0.00  0.00     0.104 A 
ATOM      2  C   UNL d   1      57.355   0.024  31.880  0.00  0.00     0.058 A 
ATOM      3  C   UNL d   1      56.046  -0.258  32.446  0.00  0.00     0.013 A 
ATOM      4  C   UNL d   1      56.898   0.668  33.095  0.00  0.00     0.013 A 
ATOM      5  C   UNL d   1      57.477   0.546  32.506  0.00  0.00     0.005 A 
ATOM      6  C   UNL d   1      56.593  -0.397  31.858  0.00  0.00     0.005 A 
ENDROOT
BRANCH   2   7
ATOM      7  C   UNL d   1      57.900  -0.105  31.306  0.00  0.00     0.281 C 
ATOM      8  N   UNL d   1      57.685  -0.431  30.573  0.00  0.00    -0.183 NA
ATOM      9  O   UNL d   1      58.719   0.099  31.456  0.00  0.00    -0.265 OA
BRANCH   8  10
ATOM     10  C   UNL d   1      58.273  -0.573  29.946  0.00  0.00     0.197 A 
ATOM     11  N   UNL d   1      58.783  -1.260  29.895  0.00  0.00    -0.220 NA
ATOM     12  C   UNL d   1      59.266  -1.179  29.207  0.00  0.00     0.096 A 
ATOM     13  C   UNL d   1      59.039  -0.428  28.840  0.00  0.00     0.058 A 
ATOM     14  S   UNL d   1      58.438  -0.080  29.304  0.00  0.00    -0.046 SA
BRANCH  12  15
ATOM     15  C   UNL d   1      59.840  -1.683  28.912  0.00  0.00     0.048 A 
ATOM     16  S   UNL d   1      60.620  -1.522  28.737  0.00  0.00    -0.085 SA
ATOM     17  C   UNL d   1      60.988  -2.197  28.455  0.00  0.00     0.035 A 
ATOM     18  C   UNL d   1      60.413  -2.783  28.461  0.00  0.00     0.007 A 
ATOM     19  C   UNL d   1      59.707  -2.469  28.742  0.00  0.00     0.009 A 
ENDBRANCH  12  15
ENDBRANCH   8  10
ENDBRANCH   2   7
BRANCH   1  20
ATOM     20  S   UNL d   1      55.585   0.397  33.680  0.00  0.00     0.271 S 
ATOM     21  O   UNL d   1      56.171   0.675  34.216  0.00  0.00    -0.200 OA
ATOM     22  O   UNL d   1      54.978   0.118  33.152  0.00  0.00    -0.200 OA
BRANCH  20  23
ATOM     23  N   UNL d   1      54.972   0.510  34.274  0.00  0.00    -0.229 N 
ATOM     24  C   UNL d   1      54.147   0.578  34.248  0.00  0.00     0.092 A 
ATOM     25  C   UNL d   1      53.863   0.680  35.006  0.00  0.00     0.021 A 
ATOM     26  C   UNL d   1      54.495   0.681  35.542  0.00  0.00     0.021 A 
ATOM     27  C   UNL d   1      55.179   0.575  35.075  0.00  0.00     0.092 A 
ENDBRANCH  20  23
ENDBRANCH   1  20
TORSDOF 5
ENDMDL
MODEL 2
REMARK VINA RESULT:      -0.8      1.262      6.508
REMARK  5 active torsions:
REMARK  status: ('A' for Active; 'I' for Inactive)
REMARK    1  A    between atoms: N_6  and  S_1 
REMARK    2  A    between atoms: C_11  and  S_1 
REMARK    3  A    between atoms: C_2  and  N_5 
REMARK    4  A    between atoms: C_9  and  C_4 
REMARK       I    between atoms: N_5  and  C_7 
REMARK    5  A    between atoms: C_7  and  C_15 
ROOT
ATOM      1  C   UNL d   1      57.748  -0.410  30.881  0.00  0.00     0.104 A 
ATOM      2  C   UNL d   1      56.602  -0.311  32.157  0.00  0.00     0.058 A 
ATOM      3  C   UNL d   1      57.500   0.338  31.216  0.00  0.00     0.013 A 
ATOM      4  C   UNL d   1      57.396  -1.074  31.216  0.00  0.00     0.013 A 
ATOM      5  C   UNL d   1      56.839  -1.032  31.835  0.00  0.00     0.005 A 
ATOM      6  C   UNL d   1      56.958   0.409  31.821  0.00  0.00     0.005 A 
ENDROOT
BRANCH   2   7
ATOM      7  C   UNL d   1      56.068  -0.254  32.752  0.00  0.00     0.281 C 
ATOM      8  N   UNL d   1      55.875   0.481  33.088  0.00  0.00    -0.183 NA
ATOM      9  O   UNL d   1      55.691  -0.966  33.045  0.00  0.00    -0.265 OA
BRANCH   8  10
ATOM     10  C   UNL d   1      55.296   0.551  33.735  0.00  0.00     0.197 A 
ATOM     11  N   UNL d   1      54.444   0.541  33.637  0.00  0.00    -0.220 NA
ATOM     12  C   UNL d   1      54.091   0.622  34.400  0.00  0.00     0.096 A 
ATOM     13  C   UNL d   1      54.746   0.682  34.964  0.00  0.00     0.058 A 
ATOM     14  S   UNL d   1      55.463   0.636  34.539  0.00  0.00    -0.046 SA
BRANCH  12  15
ATOM     15  C   UNL d   1      53.298   0.645  34.606  0.00  0.00     0.048 A 
ATOM     16  S   UNL d   1      52.964   0.655  35.350  0.00  0.00    -0.085 SA
ATOM     17  C   UNL d   1      52.147   0.678  35.289  0.00  0.00     0.035 A 
ATOM     18  C   UNL d   1      51.985   0.682  34.484  0.00  0.00     0.007 A 
ATOM     19  C   UNL d   1      52.691   0.662  34.063  0.00  0.00     0.009 A 
ENDBRANCH  12  15
ENDBRANCH   8  10
ENDBRANCH   2   7
BRANCH   1  20
ATOM     20  S   UNL d   1      58.306  -0.439  30.261  0.00  0.00     0.271 S 
ATOM     21  O   UNL d   1      58.631   0.292  30.520  0.00  0.00    -0.200 OA
ATOM     22  O   UNL d   1      57.991  -1.181  29.985  0.00  0.00    -0.200 OA
BRANCH  20  23
ATOM     23  N   UNL d   1      58.878  -0.478  29.619  0.00  0.00    -0.229 N 
ATOM     24  C   UNL d   1      58.819  -0.559  28.797  0.00  0.00     0.092 A 
ATOM     25  C   UNL d   1      59.568  -0.560  28.473  0.00  0.00     0.021 A 
ATOM     26  C   UNL d   1      60.131  -0.480  29.076  0.00  0.00     0.021 A 
ATOM     27  C   UNL d   1      59.689  -0.430  29.784  0.00  0.00     0.092 A 
ENDBRANCH  20  23
ENDBRANCH   1  20
TORSDOF 5
ENDMDL
