MODEL 1
REMARK VINA RESULT:      27.1      0.000      0.000
REMARK  5 active torsions:
REMARK  status: ('A' for Active; 'I' for Inactive)
REMARK    1  A    between atoms: N_8  and  C_2 
REMARK    2  A    between atoms: S_5  and  C_13 
REMARK    3  A    between atoms: C_17  and  S_5 
REMARK       I    between atoms: C_9  and  N_8 
REMARK    4  A    between atoms: C_12  and  C_9 
REMARK    5  A    between atoms: C_13  and  C_12 
ROOT
ATOM      1  N   UNL d   1      45.337 -16.304  44.359  0.00  0.00    -0.183 NA
ATOM      2  C   UNL d   1      45.988 -16.739  44.631  0.00  0.00     0.282 C 
ATOM      3  O   UNL d   1      46.647 -16.335  44.946  0.00  0.00    -0.265 OA
ENDROOT
BRANCH   1   4
ATOM      4  C   UNL d   1      45.334 -15.492  44.396  0.00  0.00     0.197 A 
ATOM      5  S   UNL d   1      44.710 -15.008  44.187  0.00  0.00    -0.044 SA
ATOM      6  C   UNL d   1      44.955 -14.224  44.315  0.00  0.00     0.088 A 
ATOM      7  C   UNL d   1      45.723 -14.226  44.600  0.00  0.00     0.089 A 
ATOM      8  C   UNL d   1      44.554 -13.496  44.200  0.00  0.00     0.199 A 
ATOM      9  N   UNL d   1      45.949 -15.012  44.647  0.00  0.00    -0.221 NA
ATOM     10  C   UNL d   1      46.110 -13.521  44.777  0.00  0.00    -0.003 A 
ATOM     11  C   UNL d   1      45.724 -12.807  44.667  0.00  0.00     0.042 A 
ATOM     12  C   UNL d   1      44.951 -12.795  44.380  0.00  0.00     0.020 A 
ATOM     13  C   UNL d   1      46.495 -12.807  44.954  0.00  0.00     0.009 C 
ATOM     14  C   UNL d   1      45.339 -12.085  44.558  0.00  0.00     0.009 C 
ATOM     15  O   UNL d   1      43.783 -13.487  43.913  0.00  0.00    -0.286 OA
ENDBRANCH   1   4
BRANCH   2  16
ATOM     16  C   UNL d   1      45.991 -17.552  44.594  0.00  0.00     0.075 C 
BRANCH  16  17
ATOM     17  C   UNL d   1      45.605 -17.900  44.064  0.00  0.00     0.104 C 
BRANCH  17  18
ATOM     18  S   UNL d   1      45.870 -18.458  43.500  0.00  0.00     0.211 S 
ATOM     19  O   UNL d   1      46.393 -17.896  43.178  0.00  0.00    -0.217 OA
ATOM     20  O   UNL d   1      45.339 -19.026  43.829  0.00  0.00    -0.217 OA
BRANCH  18  21
ATOM     21  C   UNL d   1      46.128 -19.016  42.946  0.00  0.00     0.088 A 
ATOM     22  C   UNL d   1      46.355 -19.770  43.191  0.00  0.00     0.011 A 
ATOM     23  C   UNL d   1      46.613 -20.330  42.636  0.00  0.00     0.001 A 
ATOM     24  C   UNL d   1      46.643 -20.128  41.838  0.00  0.00     0.000 A 
ATOM     25  C   UNL d   1      46.419 -19.376  41.581  0.00  0.00     0.001 A 
ATOM     26  C   UNL d   1      46.160 -18.817  42.140  0.00  0.00     0.011 A 
ENDBRANCH  18  21
ENDBRANCH  17  18
ENDBRANCH  16  17
ENDBRANCH   2  16
TORSDOF 5
ENDMDL
MODEL 2
REMARK VINA RESULT:      29.8      3.889      5.896
REMARK  5 active torsions:
REMARK  status: ('A' for Active; 'I' for Inactive)
REMARK    1  A    between atoms: N_8  and  C_2 
REMARK    2  A    between atoms: S_5  and  C_13 
REMARK    3  A    between atoms: C_17  and  S_5 
REMARK       I    between atoms: C_9  and  N_8 
REMARK    4  A    between atoms: C_12  and  C_9 
REMARK    5  A    between atoms: C_13  and  C_12 
ROOT
ATOM      1  N   UNL d   1      46.380 -17.977  40.436  0.00  0.00    -0.183 NA
ATOM      2  C   UNL d   1      45.663 -17.752  40.087  0.00  0.00     0.282 C 
ATOM      3  O   UNL d   1      44.958 -17.807  40.531  0.00  0.00    -0.265 OA
ENDROOT
BRANCH   1   4
ATOM      4  C   UNL d   1      46.404 -18.249  41.202  0.00  0.00     0.197 A 
ATOM      5  S   UNL d   1      46.449 -17.783  41.872  0.00  0.00    -0.044 SA
ATOM      6  C   UNL d   1      46.460 -18.296  42.526  0.00  0.00     0.088 A 
ATOM      7  C   UNL d   1      46.422 -19.070  42.261  0.00  0.00     0.089 A 
ATOM      8  C   UNL d   1      46.501 -18.138  43.349  0.00  0.00     0.199 A 
ATOM      9  N   UNL d   1      46.388 -19.032  41.443  0.00  0.00    -0.221 NA
ATOM     10  C   UNL d   1      46.424 -19.699  42.791  0.00  0.00    -0.003 A 
ATOM     11  C   UNL d   1      46.464 -19.552  43.596  0.00  0.00     0.042 A 
ATOM     12  C   UNL d   1      46.502 -18.776  43.873  0.00  0.00     0.020 A 
ATOM     13  C   UNL d   1      46.426 -20.330  43.332  0.00  0.00     0.009 C 
ATOM     14  C   UNL d   1      46.504 -19.408  44.409  0.00  0.00     0.009 C 
ATOM     15  O   UNL d   1      46.539 -17.363  43.621  0.00  0.00    -0.286 OA
ENDBRANCH   1   4
BRANCH   2  16
ATOM     16  C   UNL d   1      45.639 -17.481  39.321  0.00  0.00     0.075 C 
BRANCH  16  17
ATOM     17  C   UNL d   1      45.023 -17.156  39.063  0.00  0.00     0.104 C 
BRANCH  17  18
ATOM     18  S   UNL d   1      44.922 -16.694  38.372  0.00  0.00     0.211 S 
ATOM     19  O   UNL d   1      44.152 -16.996  38.274  0.00  0.00    -0.217 OA
ATOM     20  O   UNL d   1      45.703 -16.389  38.475  0.00  0.00    -0.217 OA
BRANCH  18  21
ATOM     21  C   UNL d   1      44.828 -16.234  37.691  0.00  0.00     0.088 A 
ATOM     22  C   UNL d   1      45.465 -15.804  37.391  0.00  0.00     0.011 A 
ATOM     23  C   UNL d   1      45.374 -15.343  36.707  0.00  0.00     0.001 A 
ATOM     24  C   UNL d   1      44.642 -15.316  36.330  0.00  0.00     0.000 A 
ATOM     25  C   UNL d   1      43.998 -15.742  36.621  0.00  0.00     0.001 A 
ATOM     26  C   UNL d   1      44.092 -16.204  37.307  0.00  0.00     0.011 A 
ENDBRANCH  18  21
ENDBRANCH  17  18
ENDBRANCH  16  17
ENDBRANCH   2  16
TORSDOF 5
ENDMDL
