MODEL 1
REMARK VINA RESULT:      68.0      0.000      0.000
REMARK  4 active torsions:
REMARK  status: ('A' for Active; 'I' for Inactive)
REMARK    1  A    between atoms: C_7  and  C_1 
REMARK    2  A    between atoms: N_6  and  C_3 
REMARK       I    between atoms: C_8  and  N_6 
REMARK    3  A    between atoms: C_12  and  C_8 
REMARK    4  A    between atoms: C_15  and  C_12 
ROOT
ATOM      1  C   UNL d   1     -56.341-100.041 -43.666  0.00  0.00     0.206 A 
ATOM      2  O   UNL d   1     -56.274-100.860 -43.604  0.00  0.00    -0.253 OA
ATOM      3  C   UNL d   1     -55.495-101.042 -43.339  0.00  0.00     0.297 A 
ATOM      4  N   UNL d   1     -55.606 -99.708 -43.441  0.00  0.00    -0.119 NA
ATOM      5  N   UNL d   1     -55.096-100.328 -43.243  0.00  0.00    -0.101 NA
ENDROOT
BRANCH   3   6
ATOM      6  N   UNL d   1     -55.206-101.781 -43.207  0.00  0.00    -0.165 NA
ATOM      7  C   UNL d   1     -55.282-102.114 -42.463  0.00  0.00     0.282 C 
ATOM      8  O   UNL d   1     -54.984-102.880 -42.323  0.00  0.00    -0.265 OA
BRANCH   7   9
ATOM      9  C   UNL d   1     -55.648-101.709 -41.850  0.00  0.00     0.063 C 
BRANCH   9  10
ATOM     10  C   UNL d   1     -55.431-101.844 -41.067  0.00  0.00     0.005 A 
ATOM     11  C   UNL d   1     -54.974-101.282 -40.657  0.00  0.00     0.003 A 
ATOM     12  C   UNL d   1     -54.763-101.427 -39.872  0.00  0.00     0.030 A 
ATOM     13  C   UNL d   1     -54.994-102.115 -39.491  0.00  0.00     0.140 A 
ATOM     14  C   UNL d   1     -55.447-102.672 -39.897  0.00  0.00     0.030 A 
ATOM     15  F   UNL d   1     -54.783-102.256 -38.713  0.00  0.00    -0.204 F 
ATOM     16  C   UNL d   1     -55.668-102.542 -40.685  0.00  0.00     0.003 A 
ENDBRANCH   9  10
ENDBRANCH   7   9
ENDBRANCH   3   6
BRANCH   1  17
ATOM     17  C   UNL d   1     -57.001 -99.632 -43.904  0.00  0.00     0.043 A 
ATOM     18  C   UNL d   1     -57.021 -99.287 -44.671  0.00  0.00     0.004 A 
ATOM     19  C   UNL d   1     -57.687 -98.870 -44.918  0.00  0.00     0.000 A 
ATOM     20  C   UNL d   1     -56.380 -99.364 -45.173  0.00  0.00     0.000 C 
ATOM     21  C   UNL d   1     -58.340 -98.789 -44.413  0.00  0.00     0.000 A 
ATOM     22  C   UNL d   1     -58.309 -99.136 -43.652  0.00  0.00     0.000 A 
ATOM     23  C   UNL d   1     -57.634 -99.554 -43.413  0.00  0.00     0.004 A 
ATOM     24  C   UNL d   1     -58.946 -99.068 -43.133  0.00  0.00     0.000 C 
ENDBRANCH   1  17
TORSDOF 4
ENDMDL
