MODEL 1
REMARK VINA RESULT:      -2.6      0.000      0.000
REMARK  7 active torsions:
REMARK  status: ('A' for Active; 'I' for Inactive)
REMARK    1  A    between atoms: C_7  and  C_3 
REMARK    2  A    between atoms: C_8  and  C_7 
REMARK       I    between atoms: N_12  and  C_8 
REMARK    3  A    between atoms: C_15  and  N_12 
REMARK    4  A    between atoms: C_13  and  C_15 
REMARK    5  A    between atoms: C_16  and  C_13 
REMARK    6  A    between atoms: O_14  and  C_16 
REMARK    7  A    between atoms: C_17  and  O_14 
ROOT
ATOM      1  C   UNL d   1      33.182  20.465 -21.542  0.00  0.00     0.082 C 
ENDROOT
BRANCH   1   2
ATOM      2  C   UNL d   1      32.911  21.246 -21.487  0.00  0.00     0.096 A 
ATOM      3  C   UNL d   1      32.341  21.447 -20.922  0.00  0.00     0.082 A 
ATOM      4  C   UNL d   1      32.062  22.227 -20.857  0.00  0.00     0.285 A 
ATOM      5  N   UNL d   1      32.368  22.797 -21.374  0.00  0.00    -0.152 NA
ATOM      6  O   UNL d   1      31.498  22.425 -20.299  0.00  0.00    -0.265 OA
ATOM      7  C   UNL d   1      32.938  22.596 -21.939  0.00  0.00     0.371 A 
ATOM      8  N   UNL d   1      33.206  21.824 -21.993  0.00  0.00    -0.191 NA
ATOM      9  O   UNL d   1      33.237  23.176 -22.450  0.00  0.00    -0.242 OA
ENDBRANCH   1   2
BRANCH   1  10
ATOM     10  C   UNL d   1      33.110  20.053 -22.254  0.00  0.00     0.281 C 
ATOM     11  O   UNL d   1      33.241  20.441 -22.972  0.00  0.00    -0.265 OA
ATOM     12  N   UNL d   1      32.908  19.253 -22.246  0.00  0.00    -0.206 NA
BRANCH  12  13
ATOM     13  C   UNL d   1      32.836  18.841 -22.957  0.00  0.00     0.104 C 
BRANCH  13  14
ATOM     14  C   UNL d   1      32.845  18.016 -22.956  0.00  0.00     0.048 C 
BRANCH  14  15
ATOM     15  C   UNL d   1      32.323  17.600 -23.442  0.00  0.00     0.124 C 
BRANCH  15  16
ATOM     16  O   UNL d   1      32.430  16.784 -23.549  0.00  0.00    -0.303 OA
BRANCH  16  17
ATOM     17  C   UNL d   1      31.769  16.298 -23.638  0.00  0.00     0.123 C 
ATOM     18  C   UNL d   1      31.840  15.579 -24.036  0.00  0.00     0.029 C 
ENDBRANCH  16  17
ENDBRANCH  15  16
ENDBRANCH  14  15
ENDBRANCH  13  14
ENDBRANCH  12  13
ENDBRANCH   1  10
TORSDOF 7
ENDMDL
MODEL 2
REMARK VINA RESULT:      -2.4      0.715      1.355
REMARK  7 active torsions:
REMARK  status: ('A' for Active; 'I' for Inactive)
REMARK    1  A    between atoms: C_7  and  C_3 
REMARK    2  A    between atoms: C_8  and  C_7 
REMARK       I    between atoms: N_12  and  C_8 
REMARK    3  A    between atoms: C_15  and  N_12 
REMARK    4  A    between atoms: C_13  and  C_15 
REMARK    5  A    between atoms: C_16  and  C_13 
REMARK    6  A    between atoms: O_14  and  C_16 
REMARK    7  A    between atoms: C_17  and  O_14 
ROOT
ATOM      1  C   UNL d   1      33.235  19.901 -21.771  0.00  0.00     0.082 C 
ENDROOT
BRANCH   1   2
ATOM      2  C   UNL d   1      32.933  20.663 -21.649  0.00  0.00     0.096 A 
ATOM      3  C   UNL d   1      33.219  21.297 -22.095  0.00  0.00     0.082 A 
ATOM      4  C   UNL d   1      32.924  22.066 -21.982  0.00  0.00     0.285 A 
ATOM      5  N   UNL d   1      32.335  22.179 -21.411  0.00  0.00    -0.152 NA
ATOM      6  O   UNL d   1      33.207  22.694 -22.424  0.00  0.00    -0.265 OA
ATOM      7  C   UNL d   1      32.048  21.545 -20.965  0.00  0.00     0.371 A 
ATOM      8  N   UNL d   1      32.347  20.791 -21.085  0.00  0.00    -0.191 NA
ATOM      9  O   UNL d   1      31.459  21.672 -20.396  0.00  0.00    -0.242 OA
ENDBRANCH   1   2
BRANCH   1  10
ATOM     10  C   UNL d   1      33.108  19.518 -22.490  0.00  0.00     0.281 C 
ATOM     11  O   UNL d   1      33.208  19.927 -23.202  0.00  0.00    -0.265 OA
ATOM     12  N   UNL d   1      32.880  18.724 -22.498  0.00  0.00    -0.206 NA
BRANCH  12  13
ATOM     13  C   UNL d   1      32.753  18.341 -23.217  0.00  0.00     0.104 C 
BRANCH  13  14
ATOM     14  C   UNL d   1      32.082  17.872 -23.319  0.00  0.00     0.048 C 
BRANCH  14  15
ATOM     15  C   UNL d   1      32.125  17.190 -23.782  0.00  0.00     0.124 C 
BRANCH  15  16
ATOM     16  O   UNL d   1      31.431  16.763 -23.941  0.00  0.00    -0.303 OA
BRANCH  16  17
ATOM     17  C   UNL d   1      31.477  16.068 -24.383  0.00  0.00     0.123 C 
ATOM     18  C   UNL d   1      30.947  15.453 -24.236  0.00  0.00     0.029 C 
ENDBRANCH  16  17
ENDBRANCH  15  16
ENDBRANCH  14  15
ENDBRANCH  13  14
ENDBRANCH  12  13
ENDBRANCH   1  10
TORSDOF 7
ENDMDL
MODEL 3
REMARK VINA RESULT:      -2.0      2.655      5.844
REMARK  7 active torsions:
REMARK  status: ('A' for Active; 'I' for Inactive)
REMARK    1  A    between atoms: C_7  and  C_3 
REMARK    2  A    between atoms: C_8  and  C_7 
REMARK       I    between atoms: N_12  and  C_8 
REMARK    3  A    between atoms: C_15  and  N_12 
REMARK    4  A    between atoms: C_13  and  C_15 
REMARK    5  A    between atoms: C_16  and  C_13 
REMARK    6  A    between atoms: O_14  and  C_16 
REMARK    7  A    between atoms: C_17  and  O_14 
ROOT
ATOM      1  C   UNL d   1      30.479  17.137 -24.480  0.00  0.00     0.082 C 
ENDROOT
BRANCH   1   2
ATOM      2  C   UNL d   1      29.933  16.574 -24.211  0.00  0.00     0.096 A 
ATOM      3  C   UNL d   1      29.344  16.295 -24.720  0.00  0.00     0.082 A 
ATOM      4  C   UNL d   1      28.791  15.730 -24.462  0.00  0.00     0.285 A 
ATOM      5  N   UNL d   1      28.846  15.456 -23.682  0.00  0.00    -0.152 NA
ATOM      6  O   UNL d   1      28.208  15.454 -24.965  0.00  0.00    -0.265 OA
ATOM      7  C   UNL d   1      29.435  15.736 -23.174  0.00  0.00     0.371 A 
ATOM      8  N   UNL d   1      29.974  16.292 -23.439  0.00  0.00    -0.191 NA
ATOM      9  O   UNL d   1      29.478  15.453 -22.396  0.00  0.00    -0.242 OA
ENDBRANCH   1   2
BRANCH   1  10
ATOM     10  C   UNL d   1      31.281  17.049 -24.304  0.00  0.00     0.281 C 
ATOM     11  O   UNL d   1      31.701  16.400 -24.597  0.00  0.00    -0.265 OA
ATOM     12  N   UNL d   1      31.661  17.611 -23.835  0.00  0.00    -0.206 NA
BRANCH  12  13
ATOM     13  C   UNL d   1      32.463  17.523 -23.659  0.00  0.00     0.104 C 
BRANCH  13  14
ATOM     14  C   UNL d   1      32.932  18.192 -23.538  0.00  0.00     0.048 C 
BRANCH  14  15
ATOM     15  C   UNL d   1      33.043  18.482 -22.773  0.00  0.00     0.124 C 
BRANCH  15  16
ATOM     16  O   UNL d   1      33.194  19.290 -22.663  0.00  0.00    -0.303 OA
BRANCH  16  17
ATOM     17  C   UNL d   1      33.240  19.591 -21.896  0.00  0.00     0.123 C 
ATOM     18  C   UNL d   1      33.219  20.408 -21.775  0.00  0.00     0.029 C 
ENDBRANCH  16  17
ENDBRANCH  15  16
ENDBRANCH  14  15
ENDBRANCH  13  14
ENDBRANCH  12  13
ENDBRANCH   1  10
TORSDOF 7
ENDMDL
MODEL 4
REMARK VINA RESULT:      -0.9      2.429      5.492
REMARK  7 active torsions:
REMARK  status: ('A' for Active; 'I' for Inactive)
REMARK    1  A    between atoms: C_7  and  C_3 
REMARK    2  A    between atoms: C_8  and  C_7 
REMARK       I    between atoms: N_12  and  C_8 
REMARK    3  A    between atoms: C_15  and  N_12 
REMARK    4  A    between atoms: C_13  and  C_15 
REMARK    5  A    between atoms: C_16  and  C_13 
REMARK    6  A    between atoms: O_14  and  C_16 
REMARK    7  A    between atoms: C_17  and  O_14 
ROOT
ATOM      1  C   UNL d   1      32.007  22.153 -20.622  0.00  0.00     0.082 C 
ENDROOT
BRANCH   1   2
ATOM      2  C   UNL d   1      32.372  21.613 -21.133  0.00  0.00     0.096 A 
ATOM      3  C   UNL d   1      32.595  21.849 -21.894  0.00  0.00     0.082 A 
ATOM      4  C   UNL d   1      32.962  21.315 -22.415  0.00  0.00     0.285 A 
ATOM      5  N   UNL d   1      33.099  20.542 -22.152  0.00  0.00    -0.152 NA
ATOM      6  O   UNL d   1      33.182  21.549 -23.168  0.00  0.00    -0.265 OA
ATOM      7  C   UNL d   1      32.877  20.306 -21.391  0.00  0.00     0.371 A 
ATOM      8  N   UNL d   1      32.515  20.841 -20.886  0.00  0.00    -0.191 NA
ATOM      9  O   UNL d   1      33.020  19.529 -21.140  0.00  0.00    -0.242 OA
ENDBRANCH   1   2
BRANCH   1  10
ATOM     10  C   UNL d   1      32.410  22.833 -20.384  0.00  0.00     0.281 C 
ATOM     11  O   UNL d   1      32.567  23.434 -20.930  0.00  0.00    -0.265 OA
ATOM     12  N   UNL d   1      32.657  22.911 -19.601  0.00  0.00    -0.206 NA
BRANCH  12  13
ATOM     13  C   UNL d   1      33.060  23.590 -19.363  0.00  0.00     0.104 C 
BRANCH  13  14
ATOM     14  C   UNL d   1      33.241  23.702 -18.566  0.00  0.00     0.048 C 
BRANCH  14  15
ATOM     15  C   UNL d   1      32.850  23.258 -17.990  0.00  0.00     0.124 C 
BRANCH  15  16
ATOM     16  O   UNL d   1      33.229  23.103 -17.269  0.00  0.00    -0.303 OA
BRANCH  16  17
ATOM     17  C   UNL d   1      32.793  23.129 -16.569  0.00  0.00     0.123 C 
ATOM     18  C   UNL d   1      33.042  22.692 -15.915  0.00  0.00     0.029 C 
ENDBRANCH  16  17
ENDBRANCH  15  16
ENDBRANCH  14  15
ENDBRANCH  13  14
ENDBRANCH  12  13
ENDBRANCH   1  10
TORSDOF 7
ENDMDL
MODEL 5
REMARK VINA RESULT:      -0.2      1.068      1.401
REMARK  7 active torsions:
REMARK  status: ('A' for Active; 'I' for Inactive)
REMARK    1  A    between atoms: C_7  and  C_3 
REMARK    2  A    between atoms: C_8  and  C_7 
REMARK       I    between atoms: N_12  and  C_8 
REMARK    3  A    between atoms: C_15  and  N_12 
REMARK    4  A    between atoms: C_13  and  C_15 
REMARK    5  A    between atoms: C_16  and  C_13 
REMARK    6  A    between atoms: O_14  and  C_16 
REMARK    7  A    between atoms: C_17  and  O_14 
ROOT
ATOM      1  C   UNL d   1      32.513  21.182 -20.796  0.00  0.00     0.082 C 
ENDROOT
BRANCH   1   2
ATOM      2  C   UNL d   1      32.439  22.003 -20.709  0.00  0.00     0.096 A 
ATOM      3  C   UNL d   1      32.875  22.398 -20.128  0.00  0.00     0.082 A 
ATOM      4  C   UNL d   1      32.810  23.221 -20.032  0.00  0.00     0.285 A 
ATOM      5  N   UNL d   1      32.296  23.634 -20.533  0.00  0.00    -0.152 NA
ATOM      6  O   UNL d   1      33.241  23.611 -19.457  0.00  0.00    -0.265 OA
ATOM      7  C   UNL d   1      31.860  23.239 -21.115  0.00  0.00     0.371 A 
ATOM      8  N   UNL d   1      31.933  22.427 -21.200  0.00  0.00    -0.191 NA
ATOM      9  O   UNL d   1      31.350  23.665 -21.610  0.00  0.00    -0.242 OA
ENDBRANCH   1   2
BRANCH   1  10
ATOM     10  C   UNL d   1      32.853  20.869 -21.480  0.00  0.00     0.281 C 
ATOM     11  O   UNL d   1      33.239  21.366 -22.017  0.00  0.00    -0.265 OA
ATOM     12  N   UNL d   1      32.806  20.058 -21.627  0.00  0.00    -0.206 NA
BRANCH  12  13
ATOM     13  C   UNL d   1      33.145  19.745 -22.311  0.00  0.00     0.104 C 
BRANCH  13  14
ATOM     14  C   UNL d   1      33.226  18.928 -22.392  0.00  0.00     0.048 C 
BRANCH  14  15
ATOM     15  C   UNL d   1      32.926  18.550 -23.062  0.00  0.00     0.124 C 
BRANCH  15  16
ATOM     16  O   UNL d   1      32.798  17.731 -23.043  0.00  0.00    -0.303 OA
BRANCH  16  17
ATOM     17  C   UNL d   1      32.526  17.349 -23.723  0.00  0.00     0.123 C 
ATOM     18  C   UNL d   1      32.248  16.573 -23.674  0.00  0.00     0.029 C 
ENDBRANCH  16  17
ENDBRANCH  15  16
ENDBRANCH  14  15
ENDBRANCH  13  14
ENDBRANCH  12  13
ENDBRANCH   1  10
TORSDOF 7
ENDMDL
