MODEL 1
REMARK VINA RESULT:      -8.7      0.000      0.000
REMARK  4 active torsions:
REMARK  status: ('A' for Active; 'I' for Inactive)
REMARK    1  A    between atoms: N_10  and  C_3 
REMARK    2  A    between atoms: C_11  and  C_5 
REMARK    3  A    between atoms: C_12  and  N_10 
REMARK    4  A    between atoms: O_18  and  C_15 
ROOT
ATOM      1  N   UNL d   1     -47.834  12.516  23.223  0.00  0.00    -0.184 N 
ATOM      2  C   UNL d   1     -48.460  13.058  23.087  0.00  0.00     0.168 A 
ATOM      3  C   UNL d   1     -47.050  12.769  23.148  0.00  0.00     0.217 A 
ATOM      4  N   UNL d   1     -48.779  11.495  23.504  0.00  0.00    -0.162 NA
ATOM      5  C   UNL d   1     -49.225  12.812  23.161  0.00  0.00     0.055 A 
ATOM      6  N   UNL d   1     -48.280  13.833  22.880  0.00  0.00    -0.227 NA
ATOM      7  C   UNL d   1     -46.889  13.537  22.942  0.00  0.00     0.066 A 
ATOM      8  C   UNL d   1     -49.395  12.028  23.370  0.00  0.00     0.104 A 
ATOM      9  C   UNL d   1     -47.509  14.086  22.804  0.00  0.00     0.087 A 
ATOM     10  C   UNL d   1     -46.193  13.939  22.828  0.00  0.00     0.006 A 
ATOM     11  C   UNL d   1     -50.173  11.787  23.443  0.00  0.00     0.023 C 
ATOM     12  C   UNL d   1     -47.180  14.810  22.609  0.00  0.00     0.019 A 
ATOM     13  C   UNL d   1     -46.355  14.714  22.625  0.00  0.00     0.002 A 
ENDROOT
BRANCH   3  14
ATOM     14  N   UNL d   1     -46.416  12.225  23.284  0.00  0.00    -0.383 NA
BRANCH  14  15
ATOM     15  C   UNL d   1     -45.870  11.584  23.347  0.00  0.00     0.135 A 
ATOM     16  C   UNL d   1     -45.073  11.703  23.120  0.00  0.00     0.056 A 
ATOM     17  C   UNL d   1     -44.512  11.055  23.181  0.00  0.00     0.097 A 
ATOM     18  C   UNL d   1     -44.778  10.301  23.473  0.00  0.00     0.024 A 
ATOM     19  C   UNL d   1     -45.582  10.193  23.698  0.00  0.00     0.005 A 
ATOM     20  C   UNL d   1     -46.136  10.836  23.637  0.00  0.00     0.032 A 
BRANCH  17  21
ATOM     21  O   UNL d   1     -43.716  11.165  22.957  0.00  0.00    -0.328 OA
ATOM     22  C   UNL d   1     -43.112  10.657  23.263  0.00  0.00     0.181 C 
ENDBRANCH  17  21
ENDBRANCH  14  15
ENDBRANCH   3  14
BRANCH   5  23
ATOM     23  C   UNL d   1     -49.838  13.342  23.027  0.00  0.00     0.004 A 
ATOM     24  C   UNL d   1     -50.137  13.790  23.641  0.00  0.00     0.000 A 
ATOM     25  C   UNL d   1     -50.757  14.326  23.506  0.00  0.00     0.000 A 
ATOM     26  C   UNL d   1     -51.064  14.403  22.760  0.00  0.00     0.000 A 
ATOM     27  C   UNL d   1     -50.765  13.953  22.137  0.00  0.00     0.000 A 
ATOM     28  C   UNL d   1     -50.155  13.426  22.274  0.00  0.00     0.000 A 
ENDBRANCH   5  23
TORSDOF 4
ENDMDL
MODEL 2
REMARK VINA RESULT:      -8.4      1.024      2.198
REMARK  4 active torsions:
REMARK  status: ('A' for Active; 'I' for Inactive)
REMARK    1  A    between atoms: N_10  and  C_3 
REMARK    2  A    between atoms: C_11  and  C_5 
REMARK    3  A    between atoms: C_12  and  N_10 
REMARK    4  A    between atoms: O_18  and  C_15 
ROOT
ATOM      1  N   UNL d   1     -47.743  13.481  22.943  0.00  0.00    -0.184 N 
ATOM      2  C   UNL d   1     -48.540  13.740  22.976  0.00  0.00     0.168 A 
ATOM      3  C   UNL d   1     -47.560  12.695  23.125  0.00  0.00     0.217 A 
ATOM      4  N   UNL d   1     -47.337  14.784  22.553  0.00  0.00    -0.162 NA
ATOM      5  C   UNL d   1     -48.720  14.506  22.799  0.00  0.00     0.055 A 
ATOM      6  N   UNL d   1     -49.126  13.203  23.190  0.00  0.00    -0.227 NA
ATOM      7  C   UNL d   1     -48.149  12.178  23.334  0.00  0.00     0.066 A 
ATOM      8  C   UNL d   1     -48.122  15.038  22.585  0.00  0.00     0.104 A 
ATOM      9  C   UNL d   1     -48.949  12.428  23.369  0.00  0.00     0.087 A 
ATOM     10  C   UNL d   1     -48.142  11.392  23.537  0.00  0.00     0.006 A 
ATOM     11  C   UNL d   1     -48.313  15.814  22.408  0.00  0.00     0.023 C 
ATOM     12  C   UNL d   1     -49.413  11.791  23.594  0.00  0.00     0.019 A 
ATOM     13  C   UNL d   1     -48.903  11.144  23.698  0.00  0.00     0.002 A 
ENDROOT
BRANCH   3  14
ATOM     14  N   UNL d   1     -46.756  12.431  23.092  0.00  0.00    -0.383 NA
BRANCH  14  15
ATOM     15  C   UNL d   1     -45.951  12.238  22.927  0.00  0.00     0.135 A 
ATOM     16  C   UNL d   1     -45.589  11.606  23.342  0.00  0.00     0.056 A 
ATOM     17  C   UNL d   1     -44.771  11.404  23.178  0.00  0.00     0.097 A 
ATOM     18  C   UNL d   1     -44.339  11.851  22.595  0.00  0.00     0.024 A 
ATOM     19  C   UNL d   1     -44.714  12.484  22.185  0.00  0.00     0.005 A 
ATOM     20  C   UNL d   1     -45.525  12.683  22.348  0.00  0.00     0.032 A 
BRANCH  17  21
ATOM     21  O   UNL d   1     -44.402  10.777  23.586  0.00  0.00    -0.328 OA
ATOM     22  C   UNL d   1     -43.656  10.475  23.324  0.00  0.00     0.181 C 
ENDBRANCH  17  21
ENDBRANCH  14  15
ENDBRANCH   3  14
BRANCH   5  23
ATOM     23  C   UNL d   1     -49.501  14.759  22.832  0.00  0.00     0.004 A 
ATOM     24  C   UNL d   1     -49.791  15.119  23.506  0.00  0.00     0.000 A 
ATOM     25  C   UNL d   1     -50.581  15.375  23.539  0.00  0.00     0.000 A 
ATOM     26  C   UNL d   1     -51.063  15.266  22.897  0.00  0.00     0.000 A 
ATOM     27  C   UNL d   1     -50.775  14.904  22.214  0.00  0.00     0.000 A 
ATOM     28  C   UNL d   1     -49.996  14.653  22.186  0.00  0.00     0.000 A 
ENDBRANCH   5  23
TORSDOF 4
ENDMDL
MODEL 3
REMARK VINA RESULT:      -6.7      7.827      9.521
REMARK  4 active torsions:
REMARK  status: ('A' for Active; 'I' for Inactive)
REMARK    1  A    between atoms: N_10  and  C_3 
REMARK    2  A    between atoms: C_11  and  C_5 
REMARK    3  A    between atoms: C_12  and  N_10 
REMARK    4  A    between atoms: O_18  and  C_15 
ROOT
ATOM      1  N   UNL d   1     -39.187  14.958  20.080  0.00  0.00    -0.184 N 
ATOM      2  C   UNL d   1     -39.551  14.975  19.324  0.00  0.00     0.168 A 
ATOM      3  C   UNL d   1     -39.614  15.206  20.744  0.00  0.00     0.217 A 
ATOM      4  N   UNL d   1     -37.996  14.453  19.497  0.00  0.00    -0.162 NA
ATOM      5  C   UNL d   1     -39.135  14.733  18.675  0.00  0.00     0.055 A 
ATOM      6  N   UNL d   1     -40.327  15.239  19.259  0.00  0.00    -0.227 NA
ATOM      7  C   UNL d   1     -40.379  15.463  20.664  0.00  0.00     0.066 A 
ATOM      8  C   UNL d   1     -38.354  14.470  18.753  0.00  0.00     0.104 A 
ATOM      9  C   UNL d   1     -40.750  15.483  19.911  0.00  0.00     0.087 A 
ATOM     10  C   UNL d   1     -40.926  15.734  21.199  0.00  0.00     0.006 A 
ATOM     11  C   UNL d   1     -37.940  14.227  18.090  0.00  0.00     0.023 C 
ATOM     12  C   UNL d   1     -41.514  15.765  20.002  0.00  0.00     0.019 A 
ATOM     13  C   UNL d   1     -41.620  15.922  20.811  0.00  0.00     0.002 A 
ENDROOT
BRANCH   3  14
ATOM     14  N   UNL d   1     -39.251  15.190  21.509  0.00  0.00    -0.383 NA
BRANCH  14  15
ATOM     15  C   UNL d   1     -38.837  15.040  22.229  0.00  0.00     0.135 A 
ATOM     16  C   UNL d   1     -38.882  14.278  22.575  0.00  0.00     0.056 A 
ATOM     17  C   UNL d   1     -38.463  14.118  23.307  0.00  0.00     0.097 A 
ATOM     18  C   UNL d   1     -38.008  14.739  23.671  0.00  0.00     0.024 A 
ATOM     19  C   UNL d   1     -37.971  15.501  23.314  0.00  0.00     0.005 A 
ATOM     20  C   UNL d   1     -38.386  15.658  22.588  0.00  0.00     0.032 A 
BRANCH  17  21
ATOM     21  O   UNL d   1     -38.502  13.362  23.658  0.00  0.00    -0.328 OA
ATOM     22  C   UNL d   1     -37.949  12.760  23.440  0.00  0.00     0.181 C 
ENDBRANCH  17  21
ENDBRANCH  14  15
ENDBRANCH   3  14
BRANCH   5  23
ATOM     23  C   UNL d   1     -39.491  14.750  17.935  0.00  0.00     0.004 A 
ATOM     24  C   UNL d   1     -39.409  15.404  17.453  0.00  0.00     0.000 A 
ATOM     25  C   UNL d   1     -39.769  15.420  16.704  0.00  0.00     0.000 A 
ATOM     26  C   UNL d   1     -40.202  14.783  16.454  0.00  0.00     0.000 A 
ATOM     27  C   UNL d   1     -40.287  14.120  16.938  0.00  0.00     0.000 A 
ATOM     28  C   UNL d   1     -39.931  14.107  17.674  0.00  0.00     0.000 A 
ENDBRANCH   5  23
TORSDOF 4
ENDMDL
MODEL 4
REMARK VINA RESULT:      -6.6      8.611     10.089
REMARK  4 active torsions:
REMARK  status: ('A' for Active; 'I' for Inactive)
REMARK    1  A    between atoms: N_10  and  C_3 
REMARK    2  A    between atoms: C_11  and  C_5 
REMARK    3  A    between atoms: C_12  and  N_10 
REMARK    4  A    between atoms: O_18  and  C_15 
ROOT
ATOM      1  N   UNL d   1     -39.292  14.910  19.909  0.00  0.00    -0.184 N 
ATOM      2  C   UNL d   1     -39.056  14.535  20.620  0.00  0.00     0.168 A 
ATOM      3  C   UNL d   1     -39.077  14.581  19.181  0.00  0.00     0.217 A 
ATOM      4  N   UNL d   1     -39.946  15.922  20.659  0.00  0.00    -0.162 NA
ATOM      5  C   UNL d   1     -39.266  14.855  21.331  0.00  0.00     0.055 A 
ATOM      6  N   UNL d   1     -38.612  13.843  20.580  0.00  0.00    -0.227 NA
ATOM      7  C   UNL d   1     -38.639  13.898  19.157  0.00  0.00     0.066 A 
ATOM      8  C   UNL d   1     -39.713  15.552  21.360  0.00  0.00     0.104 A 
ATOM      9  C   UNL d   1     -38.398  13.516  19.864  0.00  0.00     0.087 A 
ATOM     10  C   UNL d   1     -38.350  13.453  18.543  0.00  0.00     0.006 A 
ATOM     11  C   UNL d   1     -39.921  15.870  22.084  0.00  0.00     0.023 C 
ATOM     12  C   UNL d   1     -37.968  12.847  19.668  0.00  0.00     0.019 A 
ATOM     13  C   UNL d   1     -37.940  12.811  18.838  0.00  0.00     0.002 A 
ENDROOT
BRANCH   3  14
ATOM     14  N   UNL d   1     -39.314  14.957  18.460  0.00  0.00    -0.383 NA
BRANCH  14  15
ATOM     15  C   UNL d   1     -39.685  15.274  17.772  0.00  0.00     0.135 A 
ATOM     16  C   UNL d   1     -40.520  15.352  17.758  0.00  0.00     0.056 A 
ATOM     17  C   UNL d   1     -40.904  15.674  17.061  0.00  0.00     0.097 A 
ATOM     18  C   UNL d   1     -40.430  15.909  16.394  0.00  0.00     0.024 A 
ATOM     19  C   UNL d   1     -39.592  15.826  16.421  0.00  0.00     0.005 A 
ATOM     20  C   UNL d   1     -39.212  15.507  17.112  0.00  0.00     0.032 A 
BRANCH  17  21
ATOM     21  O   UNL d   1     -41.734  15.755  17.038  0.00  0.00    -0.328 OA
ATOM     22  C   UNL d   1     -42.134  15.855  16.299  0.00  0.00     0.181 C 
ENDBRANCH  17  21
ENDBRANCH  14  15
ENDBRANCH   3  14
BRANCH   5  23
ATOM     23  C   UNL d   1     -39.034  14.488  22.027  0.00  0.00     0.004 A 
ATOM     24  C   UNL d   1     -39.452  13.847  22.315  0.00  0.00     0.000 A 
ATOM     25  C   UNL d   1     -39.218  13.475  23.020  0.00  0.00     0.000 A 
ATOM     26  C   UNL d   1     -38.571  13.751  23.422  0.00  0.00     0.000 A 
ATOM     27  C   UNL d   1     -38.146  14.398  23.136  0.00  0.00     0.000 A 
ATOM     28  C   UNL d   1     -38.380  14.761  22.441  0.00  0.00     0.000 A 
ENDBRANCH   5  23
TORSDOF 4
ENDMDL
