MODEL 1
REMARK VINA RESULT:      -8.3      0.000      0.000
REMARK  8 active torsions:
REMARK  status: ('A' for Active; 'I' for Inactive)
REMARK    1  A    between atoms: C_6  and  N_1 
REMARK    2  A    between atoms: C_15  and  N_2 
REMARK    3  A    between atoms: C_8  and  C_3 
REMARK    4  A    between atoms: O_23  and  C_5 
REMARK    5  A    between atoms: C_7  and  O_9 
REMARK    6  A    between atoms: O_9  and  C_21 
REMARK    7  A    between atoms: C_20  and  C_15 
REMARK    8  A    between atoms: C_21  and  C_20 
ROOT
ATOM      1  C   UNL d   1      49.783  34.800  52.742  0.00  0.00     0.238 C 
ATOM      2  O   UNL d   1      49.977  35.215  53.429  0.00  0.00    -0.283 OA
ENDROOT
BRANCH   1   3
ATOM      3  C   UNL d   1      50.320  34.266  52.414  0.00  0.00     0.125 C 
BRANCH   3   4
ATOM      4  N   UNL d   1      51.042  34.106  52.797  0.00  0.00    -0.297 N 
ATOM      5  C   UNL d   1      51.090  33.442  53.290  0.00  0.00     0.100 A 
ATOM      6  C   UNL d   1      51.800  33.272  53.676  0.00  0.00     0.100 A 
ATOM      7  N   UNL d   1      52.455  33.765  53.568  0.00  0.00    -0.301 N 
ATOM      8  C   UNL d   1      52.402  34.429  53.073  0.00  0.00     0.100 A 
ATOM      9  C   UNL d   1      51.684  34.600  52.683  0.00  0.00     0.100 A 
BRANCH   7  10
ATOM     10  C   UNL d   1      53.164  33.595  53.953  0.00  0.00     0.064 A 
ATOM     11  C   UNL d   1      53.380  34.018  54.627  0.00  0.00     0.020 A 
ATOM     12  C   UNL d   1      54.091  33.850  55.016  0.00  0.00     0.031 A 
ATOM     13  C   UNL d   1      54.581  33.256  54.724  0.00  0.00     0.140 A 
ATOM     14  C   UNL d   1      54.363  32.831  54.046  0.00  0.00     0.031 A 
ATOM     15  F   UNL d   1      55.290  33.086  55.110  0.00  0.00    -0.204 F 
ATOM     16  C   UNL d   1      53.655  33.006  53.668  0.00  0.00     0.020 A 
ENDBRANCH   7  10
ENDBRANCH   3   4
ENDBRANCH   1   3
BRANCH   1  17
ATOM     17  C   UNL d   1      49.040  34.919  52.374  0.00  0.00     0.166 C 
BRANCH  17  18
ATOM     18  O   UNL d   1      48.525  35.521  52.649  0.00  0.00    -0.300 OA
BRANCH  18  19
ATOM     19  C   UNL d   1      47.762  35.632  52.322  0.00  0.00     0.122 A 
ATOM     20  C   UNL d   1      47.207  36.080  52.721  0.00  0.00     0.117 A 
ATOM     21  C   UNL d   1      46.460  36.190  52.403  0.00  0.00     0.029 A 
ATOM     22  C   UNL d   1      46.267  35.846  51.677  0.00  0.00     0.041 A 
ATOM     23  C   UNL d   1      46.822  35.398  51.278  0.00  0.00     0.005 A 
ATOM     24  C   UNL d   1      47.580  35.286  51.598  0.00  0.00     0.027 A 
BRANCH  20  25
ATOM     25  O   UNL d   1      47.401  36.421  53.443  0.00  0.00    -0.326 OA
ATOM     26  C   UNL d   1      46.805  36.707  53.938  0.00  0.00     0.181 C 
ENDBRANCH  20  25
BRANCH  22  27
ATOM     27  C   UNL d   1      45.517  35.955  51.355  0.00  0.00     0.196 C 
ATOM     28  O   UNL d   1      45.336  36.655  50.959  0.00  0.00    -0.287 OA
ATOM     29  C   UNL d   1      44.949  35.364  51.430  0.00  0.00     0.045 C 
ENDBRANCH  22  27
ENDBRANCH  18  19
ENDBRANCH  17  18
ENDBRANCH   1  17
TORSDOF 8
ENDMDL
MODEL 2
REMARK VINA RESULT:      -8.2      2.744      6.963
REMARK  8 active torsions:
REMARK  status: ('A' for Active; 'I' for Inactive)
REMARK    1  A    between atoms: C_6  and  N_1 
REMARK    2  A    between atoms: C_15  and  N_2 
REMARK    3  A    between atoms: C_8  and  C_3 
REMARK    4  A    between atoms: O_23  and  C_5 
REMARK    5  A    between atoms: C_7  and  O_9 
REMARK    6  A    between atoms: O_9  and  C_21 
REMARK    7  A    between atoms: C_20  and  C_15 
REMARK    8  A    between atoms: C_21  and  C_20 
ROOT
ATOM      1  C   UNL d   1      50.820  33.638  52.862  0.00  0.00     0.238 C 
ATOM      2  O   UNL d   1      50.318  33.043  53.137  0.00  0.00    -0.283 OA
ENDROOT
BRANCH   1   3
ATOM      3  C   UNL d   1      50.608  34.091  52.206  0.00  0.00     0.125 C 
BRANCH   3   4
ATOM      4  N   UNL d   1      49.868  34.471  52.179  0.00  0.00    -0.297 N 
ATOM      5  C   UNL d   1      49.442  34.461  51.468  0.00  0.00     0.100 A 
ATOM      6  C   UNL d   1      48.706  34.835  51.429  0.00  0.00     0.100 A 
ATOM      7  N   UNL d   1      48.403  35.216  52.097  0.00  0.00    -0.301 N 
ATOM      8  C   UNL d   1      48.832  35.224  52.806  0.00  0.00     0.100 A 
ATOM      9  C   UNL d   1      49.576  34.845  52.846  0.00  0.00     0.100 A 
BRANCH   7  10
ATOM     10  C   UNL d   1      47.668  35.589  52.057  0.00  0.00     0.064 A 
ATOM     11  C   UNL d   1      47.473  36.177  52.601  0.00  0.00     0.020 A 
ATOM     12  C   UNL d   1      46.737  36.554  52.563  0.00  0.00     0.031 A 
ATOM     13  C   UNL d   1      46.201  36.336  51.978  0.00  0.00     0.140 A 
ATOM     14  C   UNL d   1      46.397  35.744  51.431  0.00  0.00     0.031 A 
ATOM     15  F   UNL d   1      45.466  36.709  51.938  0.00  0.00    -0.204 F 
ATOM     16  C   UNL d   1      47.131  35.376  51.477  0.00  0.00     0.020 A 
ENDBRANCH   7  10
ENDBRANCH   3   4
ENDBRANCH   1   3
BRANCH   1  17
ATOM     17  C   UNL d   1      51.549  33.786  53.249  0.00  0.00     0.166 C 
BRANCH  17  18
ATOM     18  O   UNL d   1      52.137  33.189  53.280  0.00  0.00    -0.300 OA
BRANCH  18  19
ATOM     19  C   UNL d   1      52.826  33.273  53.749  0.00  0.00     0.122 A 
ATOM     20  C   UNL d   1      53.390  32.682  53.759  0.00  0.00     0.117 A 
ATOM     21  C   UNL d   1      54.064  32.762  54.217  0.00  0.00     0.029 A 
ATOM     22  C   UNL d   1      54.174  33.443  54.671  0.00  0.00     0.041 A 
ATOM     23  C   UNL d   1      53.611  34.035  54.662  0.00  0.00     0.005 A 
ATOM     24  C   UNL d   1      52.927  33.956  54.198  0.00  0.00     0.027 A 
BRANCH  20  25
ATOM     25  O   UNL d   1      53.279  32.005  53.307  0.00  0.00    -0.326 OA
ATOM     26  C   UNL d   1      53.548  31.275  53.582  0.00  0.00     0.181 C 
ENDBRANCH  20  25
BRANCH  22  27
ATOM     27  C   UNL d   1      54.851  33.527  55.133  0.00  0.00     0.196 C 
ATOM     28  O   UNL d   1      54.829  33.339  55.936  0.00  0.00    -0.287 OA
ATOM     29  C   UNL d   1      55.549  33.797  54.792  0.00  0.00     0.045 C 
ENDBRANCH  22  27
ENDBRANCH  18  19
ENDBRANCH  17  18
ENDBRANCH   1  17
TORSDOF 8
ENDMDL
MODEL 3
REMARK VINA RESULT:      -7.7      2.891      6.844
REMARK  8 active torsions:
REMARK  status: ('A' for Active; 'I' for Inactive)
REMARK    1  A    between atoms: C_6  and  N_1 
REMARK    2  A    between atoms: C_15  and  N_2 
REMARK    3  A    between atoms: C_8  and  C_3 
REMARK    4  A    between atoms: O_23  and  C_5 
REMARK    5  A    between atoms: C_7  and  O_9 
REMARK    6  A    between atoms: O_9  and  C_21 
REMARK    7  A    between atoms: C_20  and  C_15 
REMARK    8  A    between atoms: C_21  and  C_20 
ROOT
ATOM      1  C   UNL d   1      51.396  34.049  52.686  0.00  0.00     0.238 C 
ATOM      2  O   UNL d   1      51.662  34.741  53.049  0.00  0.00    -0.283 OA
ENDROOT
BRANCH   1   3
ATOM      3  C   UNL d   1      50.875  34.089  52.047  0.00  0.00     0.125 C 
BRANCH   3   4
ATOM      4  N   UNL d   1      50.139  34.469  52.129  0.00  0.00    -0.297 N 
ATOM      5  C   UNL d   1      49.636  34.505  51.470  0.00  0.00     0.100 A 
ATOM      6  C   UNL d   1      48.903  34.879  51.538  0.00  0.00     0.100 A 
ATOM      7  N   UNL d   1      48.677  35.213  52.260  0.00  0.00    -0.301 N 
ATOM      8  C   UNL d   1      49.183  35.175  52.916  0.00  0.00     0.100 A 
ATOM      9  C   UNL d   1      49.924  34.796  52.847  0.00  0.00     0.100 A 
BRANCH   7  10
ATOM     10  C   UNL d   1      47.945  35.587  52.327  0.00  0.00     0.064 A 
ATOM     11  C   UNL d   1      47.379  35.497  51.735  0.00  0.00     0.020 A 
ATOM     12  C   UNL d   1      46.643  35.871  51.800  0.00  0.00     0.031 A 
ATOM     13  C   UNL d   1      46.481  36.333  52.461  0.00  0.00     0.140 A 
ATOM     14  C   UNL d   1      47.051  36.423  53.057  0.00  0.00     0.031 A 
ATOM     15  F   UNL d   1      45.749  36.707  52.528  0.00  0.00    -0.204 F 
ATOM     16  C   UNL d   1      47.778  36.048  52.983  0.00  0.00     0.020 A 
ENDBRANCH   7  10
ENDBRANCH   3   4
ENDBRANCH   1   3
BRANCH   1  17
ATOM     17  C   UNL d   1      51.653  33.301  52.964  0.00  0.00     0.166 C 
BRANCH  17  18
ATOM     18  O   UNL d   1      52.463  33.173  53.139  0.00  0.00    -0.300 OA
BRANCH  18  19
ATOM     19  C   UNL d   1      52.772  32.404  53.260  0.00  0.00     0.122 A 
ATOM     20  C   UNL d   1      53.464  32.302  53.683  0.00  0.00     0.117 A 
ATOM     21  C   UNL d   1      53.767  31.551  53.803  0.00  0.00     0.029 A 
ATOM     22  C   UNL d   1      53.372  30.894  53.495  0.00  0.00     0.041 A 
ATOM     23  C   UNL d   1      52.681  30.995  53.071  0.00  0.00     0.005 A 
ATOM     24  C   UNL d   1      52.371  31.756  52.949  0.00  0.00     0.027 A 
BRANCH  20  25
ATOM     25  O   UNL d   1      53.854  32.957  53.989  0.00  0.00    -0.326 OA
ATOM     26  C   UNL d   1      54.243  32.904  54.715  0.00  0.00     0.181 C 
ENDBRANCH  20  25
BRANCH  22  27
ATOM     27  C   UNL d   1      53.675  30.137  53.614  0.00  0.00     0.196 C 
ATOM     28  O   UNL d   1      54.390  29.919  53.264  0.00  0.00    -0.287 OA
ATOM     29  C   UNL d   1      53.265  29.600  54.082  0.00  0.00     0.045 C 
ENDBRANCH  22  27
ENDBRANCH  18  19
ENDBRANCH  17  18
ENDBRANCH   1  17
TORSDOF 8
ENDMDL
MODEL 4
REMARK VINA RESULT:      -7.5      1.452      1.801
REMARK  8 active torsions:
REMARK  status: ('A' for Active; 'I' for Inactive)
REMARK    1  A    between atoms: C_6  and  N_1 
REMARK    2  A    between atoms: C_15  and  N_2 
REMARK    3  A    between atoms: C_8  and  C_3 
REMARK    4  A    between atoms: O_23  and  C_5 
REMARK    5  A    between atoms: C_7  and  O_9 
REMARK    6  A    between atoms: O_9  and  C_21 
REMARK    7  A    between atoms: C_20  and  C_15 
REMARK    8  A    between atoms: C_21  and  C_20 
ROOT
ATOM      1  C   UNL d   1      50.353  34.499  52.345  0.00  0.00     0.238 C 
ATOM      2  O   UNL d   1      50.612  34.462  51.562  0.00  0.00    -0.283 OA
ENDROOT
BRANCH   1   3
ATOM      3  C   UNL d   1      50.894  34.434  52.965  0.00  0.00     0.125 C 
BRANCH   3   4
ATOM      4  N   UNL d   1      51.356  33.746  53.050  0.00  0.00    -0.297 N 
ATOM      5  C   UNL d   1      52.167  33.790  52.883  0.00  0.00     0.100 A 
ATOM      6  C   UNL d   1      52.635  33.114  52.963  0.00  0.00     0.100 A 
ATOM      7  N   UNL d   1      52.292  32.403  53.208  0.00  0.00    -0.301 N 
ATOM      8  C   UNL d   1      51.481  32.364  53.373  0.00  0.00     0.100 A 
ATOM      9  C   UNL d   1      51.007  33.047  53.292  0.00  0.00     0.100 A 
BRANCH   7  10
ATOM     10  C   UNL d   1      52.761  31.728  53.287  0.00  0.00     0.064 A 
ATOM     11  C   UNL d   1      52.525  31.017  52.944  0.00  0.00     0.020 A 
ATOM     12  C   UNL d   1      52.993  30.339  53.022  0.00  0.00     0.031 A 
ATOM     13  C   UNL d   1      53.697  30.381  53.446  0.00  0.00     0.140 A 
ATOM     14  C   UNL d   1      53.935  31.096  53.792  0.00  0.00     0.031 A 
ATOM     15  F   UNL d   1      54.165  29.707  53.526  0.00  0.00    -0.204 F 
ATOM     16  C   UNL d   1      53.462  31.764  53.708  0.00  0.00     0.020 A 
ENDBRANCH   7  10
ENDBRANCH   3   4
ENDBRANCH   1   3
BRANCH   1  17
ATOM     17  C   UNL d   1      49.539  34.604  52.515  0.00  0.00     0.166 C 
BRANCH  17  18
ATOM     18  O   UNL d   1      49.232  35.373  52.647  0.00  0.00    -0.300 OA
BRANCH  18  19
ATOM     19  C   UNL d   1      48.425  35.554  52.515  0.00  0.00     0.122 A 
ATOM     20  C   UNL d   1      48.030  36.058  53.023  0.00  0.00     0.117 A 
ATOM     21  C   UNL d   1      47.241  36.237  52.895  0.00  0.00     0.029 A 
ATOM     22  C   UNL d   1      46.843  35.905  52.252  0.00  0.00     0.041 A 
ATOM     23  C   UNL d   1      47.237  35.400  51.745  0.00  0.00     0.005 A 
ATOM     24  C   UNL d   1      48.037  35.218  51.871  0.00  0.00     0.027 A 
BRANCH  20  25
ATOM     25  O   UNL d   1      48.428  36.387  53.662  0.00  0.00    -0.326 OA
ATOM     26  C   UNL d   1      48.004  36.688  54.302  0.00  0.00     0.181 C 
ENDBRANCH  20  25
BRANCH  22  27
ATOM     27  C   UNL d   1      46.049  36.083  52.122  0.00  0.00     0.196 C 
ATOM     28  O   UNL d   1      45.842  36.700  51.616  0.00  0.00    -0.287 OA
ATOM     29  C   UNL d   1      45.464  35.643  52.497  0.00  0.00     0.045 C 
ENDBRANCH  22  27
ENDBRANCH  18  19
ENDBRANCH  17  18
ENDBRANCH   1  17
TORSDOF 8
ENDMDL
MODEL 5
REMARK VINA RESULT:      -7.2      1.309      2.022
REMARK  8 active torsions:
REMARK  status: ('A' for Active; 'I' for Inactive)
REMARK    1  A    between atoms: C_6  and  N_1 
REMARK    2  A    between atoms: C_15  and  N_2 
REMARK    3  A    between atoms: C_8  and  C_3 
REMARK    4  A    between atoms: O_23  and  C_5 
REMARK    5  A    between atoms: C_7  and  O_9 
REMARK    6  A    between atoms: O_9  and  C_21 
REMARK    7  A    between atoms: C_20  and  C_15 
REMARK    8  A    between atoms: C_21  and  C_20 
ROOT
ATOM      1  C   UNL d   1      49.770  34.764  52.532  0.00  0.00     0.238 C 
ATOM      2  O   UNL d   1      49.628  34.341  51.838  0.00  0.00    -0.283 OA
ENDROOT
BRANCH   1   3
ATOM      3  C   UNL d   1      50.543  34.894  52.789  0.00  0.00     0.125 C 
BRANCH   3   4
ATOM      4  N   UNL d   1      51.062  34.253  52.903  0.00  0.00    -0.297 N 
ATOM      5  C   UNL d   1      51.467  33.949  52.247  0.00  0.00     0.100 A 
ATOM      6  C   UNL d   1      51.985  33.313  52.346  0.00  0.00     0.100 A 
ATOM      7  N   UNL d   1      52.094  32.987  53.098  0.00  0.00    -0.301 N 
ATOM      8  C   UNL d   1      51.687  33.294  53.752  0.00  0.00     0.100 A 
ATOM      9  C   UNL d   1      51.164  33.937  53.651  0.00  0.00     0.100 A 
BRANCH   7  10
ATOM     10  C   UNL d   1      52.611  32.352  53.197  0.00  0.00     0.064 A 
ATOM     11  C   UNL d   1      53.348  32.469  53.546  0.00  0.00     0.020 A 
ATOM     12  C   UNL d   1      53.870  31.833  53.647  0.00  0.00     0.031 A 
ATOM     13  C   UNL d   1      53.644  31.083  53.395  0.00  0.00     0.140 A 
ATOM     14  C   UNL d   1      52.902  30.965  53.044  0.00  0.00     0.031 A 
ATOM     15  F   UNL d   1      54.162  30.448  53.494  0.00  0.00    -0.204 F 
ATOM     16  C   UNL d   1      52.393  31.602  52.949  0.00  0.00     0.020 A 
ENDBRANCH   7  10
ENDBRANCH   3   4
ENDBRANCH   1   3
BRANCH   1  17
ATOM     17  C   UNL d   1      49.128  35.063  52.981  0.00  0.00     0.166 C 
BRANCH  17  18
ATOM     18  O   UNL d   1      48.540  35.534  52.613  0.00  0.00    -0.300 OA
BRANCH  18  19
ATOM     19  C   UNL d   1      47.861  35.796  53.028  0.00  0.00     0.122 A 
ATOM     20  C   UNL d   1      47.145  35.863  52.640  0.00  0.00     0.117 A 
ATOM     21  C   UNL d   1      46.480  36.119  53.044  0.00  0.00     0.029 A 
ATOM     22  C   UNL d   1      46.534  36.310  53.846  0.00  0.00     0.041 A 
ATOM     23  C   UNL d   1      47.250  36.242  54.234  0.00  0.00     0.005 A 
ATOM     24  C   UNL d   1      47.925  35.983  53.827  0.00  0.00     0.027 A 
BRANCH  20  25
ATOM     25  O   UNL d   1      47.094  35.673  51.842  0.00  0.00    -0.326 OA
ATOM     26  C   UNL d   1      46.356  35.630  51.475  0.00  0.00     0.181 C 
ENDBRANCH  20  25
BRANCH  22  27
ATOM     27  C   UNL d   1      45.867  36.567  54.255  0.00  0.00     0.196 C 
ATOM     28  O   UNL d   1      45.163  36.709  53.848  0.00  0.00    -0.287 OA
ATOM     29  C   UNL d   1      45.903  36.684  55.068  0.00  0.00     0.045 C 
ENDBRANCH  22  27
ENDBRANCH  18  19
ENDBRANCH  17  18
ENDBRANCH   1  17
TORSDOF 8
ENDMDL
