MODEL 1
REMARK VINA RESULT:      45.6      0.000      0.000
REMARK  6 active torsions:
REMARK  status: ('A' for Active; 'I' for Inactive)
REMARK    1  A    between atoms: C_12  and  C_3 
REMARK    2  A    between atoms: O_11  and  C_5 
REMARK    3  A    between atoms: O_16  and  C_10 
REMARK    4  A    between atoms: C_13  and  O_11 
REMARK    5  A    between atoms: C_15  and  O_16 
REMARK    6  A    between atoms: O_24  and  C_21 
ROOT
ATOM      1  C   UNL d   1      14.259  14.116  -2.600  0.00  0.00     0.201 A 
ATOM      2  C   UNL d   1      13.913  13.584  -3.130  0.00  0.00     0.085 A 
ATOM      3  C   UNL d   1      14.220  14.919  -2.736  0.00  0.00     0.064 A 
ATOM      4  C   UNL d   1      13.527  13.875  -3.799  0.00  0.00     0.107 A 
ATOM      5  C   UNL d   1      13.947  12.775  -3.004  0.00  0.00     0.110 A 
ATOM      6  C   UNL d   1      13.834  15.210  -3.405  0.00  0.00     0.126 A 
ATOM      7  O   UNL d   1      13.485  14.689  -3.940  0.00  0.00    -0.305 OA
ATOM      8  C   UNL d   1      13.179  13.355  -4.334  0.00  0.00     0.050 A 
ATOM      9  C   UNL d   1      13.605  12.260  -3.529  0.00  0.00     0.050 A 
ATOM     10  C   UNL d   1      13.219  12.551  -4.198  0.00  0.00     0.107 A 
ATOM     11  O   UNL d   1      14.646  13.824  -1.932  0.00  0.00    -0.286 OA
ENDROOT
BRANCH   3  12
ATOM     12  C   UNL d   1      14.570  15.447  -2.200  0.00  0.00     0.005 A 
ATOM     13  C   UNL d   1      14.781  16.204  -2.442  0.00  0.00     0.002 A 
ATOM     14  C   UNL d   1      15.127  16.727  -1.911  0.00  0.00     0.024 A 
ATOM     15  C   UNL d   1      15.263  16.489  -1.129  0.00  0.00     0.094 A 
ATOM     16  C   UNL d   1      15.053  15.734  -0.884  0.00  0.00     0.024 A 
ATOM     17  C   UNL d   1      14.705  15.210  -1.421  0.00  0.00     0.002 A 
BRANCH  15  18
ATOM     18  O   UNL d   1      15.611  17.012  -0.592  0.00  0.00    -0.328 OA
ATOM     19  C   UNL d   1      15.670  17.821  -0.775  0.00  0.00     0.181 C 
ENDBRANCH  15  18
ENDBRANCH   3  12
BRANCH   5  20
ATOM     20  O   UNL d   1      14.333  12.484  -2.335  0.00  0.00    -0.273 OA
BRANCH  20  21
ATOM     21  C   UNL d   1      13.923  12.027  -1.788  0.00  0.00     0.300 C 
ATOM     22  O   UNL d   1      13.153  11.779  -1.949  0.00  0.00    -0.259 OA
ATOM     23  C   UNL d   1      14.284  11.816  -1.077  0.00  0.00     0.074 C 
ENDBRANCH  20  21
ENDBRANCH   5  20
BRANCH  10  24
ATOM     24  O   UNL d   1      12.869  12.023  -4.735  0.00  0.00    -0.273 OA
BRANCH  24  25
ATOM     25  C   UNL d   1      13.229  11.879  -5.462  0.00  0.00     0.300 C 
ATOM     26  O   UNL d   1      12.770  11.781  -6.139  0.00  0.00    -0.259 OA
ATOM     27  C   UNL d   1      14.053  11.831  -5.521  0.00  0.00     0.074 C 
ENDBRANCH  24  25
ENDBRANCH  10  24
TORSDOF 6
ENDMDL
MODEL 2
REMARK VINA RESULT:      45.7      1.008      4.591
REMARK  6 active torsions:
REMARK  status: ('A' for Active; 'I' for Inactive)
REMARK    1  A    between atoms: C_12  and  C_3 
REMARK    2  A    between atoms: O_11  and  C_5 
REMARK    3  A    between atoms: O_16  and  C_10 
REMARK    4  A    between atoms: C_13  and  O_11 
REMARK    5  A    between atoms: C_15  and  O_16 
REMARK    6  A    between atoms: O_24  and  C_21 
ROOT
ATOM      1  C   UNL d   1      14.168  13.636  -2.223  0.00  0.00     0.201 A 
ATOM      2  C   UNL d   1      14.474  14.162  -1.663  0.00  0.00     0.085 A 
ATOM      3  C   UNL d   1      13.988  13.893  -2.976  0.00  0.00     0.064 A 
ATOM      4  C   UNL d   1      14.596  14.950  -1.875  0.00  0.00     0.107 A 
ATOM      5  C   UNL d   1      14.658  13.914  -0.904  0.00  0.00     0.110 A 
ATOM      6  C   UNL d   1      14.110  14.681  -3.187  0.00  0.00     0.126 A 
ATOM      7  O   UNL d   1      14.415  15.214  -2.637  0.00  0.00    -0.305 OA
ATOM      8  C   UNL d   1      14.900  15.483  -1.325  0.00  0.00     0.050 A 
ATOM      9  C   UNL d   1      14.958  14.437  -0.360  0.00  0.00     0.050 A 
ATOM     10  C   UNL d   1      15.080  15.225  -0.572  0.00  0.00     0.107 A 
ATOM     11  O   UNL d   1      14.047  12.848  -2.012  0.00  0.00    -0.286 OA
ENDROOT
BRANCH   3  12
ATOM     12  C   UNL d   1      13.681  13.360  -3.534  0.00  0.00     0.005 A 
ATOM     13  C   UNL d   1      13.325  12.662  -3.285  0.00  0.00     0.002 A 
ATOM     14  C   UNL d   1      13.021  12.134  -3.837  0.00  0.00     0.024 A 
ATOM     15  C   UNL d   1      13.075  12.308  -4.646  0.00  0.00     0.094 A 
ATOM     16  C   UNL d   1      13.431  13.004  -4.896  0.00  0.00     0.024 A 
ATOM     17  C   UNL d   1      13.735  13.533  -4.338  0.00  0.00     0.002 A 
BRANCH  15  18
ATOM     18  O   UNL d   1      12.770  11.779  -5.203  0.00  0.00    -0.328 OA
ATOM     19  C   UNL d   1      12.895  11.909  -6.014  0.00  0.00     0.181 C 
ENDBRANCH  15  18
ENDBRANCH   3  12
BRANCH   5  20
ATOM     20  O   UNL d   1      14.536  13.126  -0.693  0.00  0.00    -0.273 OA
BRANCH  20  21
ATOM     21  C   UNL d   1      15.161  12.675  -0.403  0.00  0.00     0.300 C 
ATOM     22  O   UNL d   1      15.791  13.041  -0.016  0.00  0.00    -0.259 OA
ATOM     23  C   UNL d   1      15.155  11.857  -0.502  0.00  0.00     0.074 C 
ENDBRANCH  20  21
ENDBRANCH   5  20
BRANCH  10  24
ATOM     24  O   UNL d   1      15.387  15.759  -0.014  0.00  0.00    -0.273 OA
BRANCH  24  25
ATOM     25  C   UNL d   1      15.665  16.494  -0.262  0.00  0.00     0.300 C 
ATOM     26  O   UNL d   1      15.160  17.145  -0.271  0.00  0.00    -0.259 OA
ATOM     27  C   UNL d   1      16.451  16.588  -0.503  0.00  0.00     0.074 C 
ENDBRANCH  24  25
ENDBRANCH  10  24
TORSDOF 6
ENDMDL
