MODEL 1
REMARK VINA RESULT:      -4.5      0.000      0.000
REMARK  4 active torsions:
REMARK  status: ('A' for Active; 'I' for Inactive)
REMARK    1  A    between atoms: C_5  and  C_1 
REMARK    2  A    between atoms: C_4  and  C_2 
REMARK    3  A    between atoms: C_12  and  C_4 
REMARK    4  A    between atoms: C_13  and  C_5 
ROOT
ATOM      1  C   UNL d   1      57.349   0.668  31.589  0.00  0.00     0.039 A 
ATOM      2  C   UNL d   1      58.409   0.674  30.535  0.00  0.00     0.039 A 
ATOM      3  C   UNL d   1      57.571   0.669  30.758  0.00  0.00     0.196 A 
ATOM      4  C   UNL d   1      57.960   0.672  32.204  0.00  0.00     0.003 A 
ATOM      5  C   UNL d   1      59.021   0.679  31.150  0.00  0.00     0.003 A 
ATOM      6  O   UNL d   1      56.989   0.665  30.172  0.00  0.00    -0.287 OA
ATOM      7  C   UNL d   1      58.793   0.678  31.987  0.00  0.00     0.000 A 
ATOM      8  C   UNL d   1      59.375   0.682  32.573  0.00  0.00     0.000 C 
ENDROOT
BRANCH   1   9
ATOM      9  C   UNL d   1      56.551   0.663  31.808  0.00  0.00     0.005 C 
BRANCH   9  10
ATOM     10  C   UNL d   1      56.282   0.155  32.394  0.00  0.00     0.019 A 
ATOM     11  C   UNL d   1      56.067   0.459  33.128  0.00  0.00     0.099 A 
ATOM     12  N   UNL d   1      55.797  -0.047  33.717  0.00  0.00    -0.242 NA
ATOM     13  C   UNL d   1      55.740  -0.862  33.575  0.00  0.00     0.099 A 
ATOM     14  C   UNL d   1      55.956  -1.165  32.835  0.00  0.00     0.021 A 
ATOM     15  C   UNL d   1      56.226  -0.655  32.249  0.00  0.00     0.003 A 
ENDBRANCH   9  10
ENDBRANCH   1   9
BRANCH   2  16
ATOM     16  C   UNL d   1      58.631   0.675  29.741  0.00  0.00     0.005 C 
BRANCH  16  17
ATOM     17  C   UNL d   1      59.202   0.149  29.462  0.00  0.00     0.019 A 
ATOM     18  C   UNL d   1      59.970   0.413  29.330  0.00  0.00     0.099 A 
ATOM     19  N   UNL d   1      60.543  -0.105  29.053  0.00  0.00    -0.242 NA
ATOM     20  C   UNL d   1      60.348  -0.899  28.906  0.00  0.00     0.099 A 
ATOM     21  C   UNL d   1      59.577  -1.159  29.040  0.00  0.00     0.021 A 
ATOM     22  C   UNL d   1      59.008  -0.633  29.318  0.00  0.00     0.003 A 
ENDBRANCH  16  17
ENDBRANCH   2  16
TORSDOF 4
ENDMDL
MODEL 2
REMARK VINA RESULT:      -3.5      1.325      4.276
REMARK  4 active torsions:
REMARK  status: ('A' for Active; 'I' for Inactive)
REMARK    1  A    between atoms: C_5  and  C_1 
REMARK    2  A    between atoms: C_4  and  C_2 
REMARK    3  A    between atoms: C_12  and  C_4 
REMARK    4  A    between atoms: C_13  and  C_5 
ROOT
ATOM      1  C   UNL d   1      59.282  -0.705  29.204  0.00  0.00     0.039 A 
ATOM      2  C   UNL d   1      58.511   0.185  30.126  0.00  0.00     0.039 A 
ATOM      3  C   UNL d   1      58.528  -0.405  29.490  0.00  0.00     0.196 A 
ATOM      4  C   UNL d   1      60.024  -0.420  29.549  0.00  0.00     0.003 A 
ATOM      5  C   UNL d   1      59.253   0.471  30.472  0.00  0.00     0.003 A 
ATOM      6  O   UNL d   1      57.820  -0.677  29.161  0.00  0.00    -0.287 OA
ATOM      7  C   UNL d   1      60.011   0.166  30.181  0.00  0.00     0.000 A 
ATOM      8  C   UNL d   1      60.718   0.438  30.510  0.00  0.00     0.000 C 
ENDROOT
BRANCH   1   9
ATOM      9  C   UNL d   1      59.305  -1.267  28.598  0.00  0.00     0.005 C 
BRANCH   9  10
ATOM     10  C   UNL d   1      59.721  -1.968  28.694  0.00  0.00     0.019 A 
ATOM     11  C   UNL d   1      60.507  -2.009  28.455  0.00  0.00     0.099 A 
ATOM     12  N   UNL d   1      60.927  -2.710  28.550  0.00  0.00    -0.242 NA
ATOM     13  C   UNL d   1      60.562  -3.374  28.884  0.00  0.00     0.099 A 
ATOM     14  C   UNL d   1      59.771  -3.330  29.124  0.00  0.00     0.021 A 
ATOM     15  C   UNL d   1      59.355  -2.627  29.027  0.00  0.00     0.003 A 
ENDBRANCH   9  10
ENDBRANCH   1   9
BRANCH   2  16
ATOM     16  C   UNL d   1      57.792   0.478  30.406  0.00  0.00     0.005 C 
BRANCH  16  17
ATOM     17  C   UNL d   1      57.531   0.295  31.166  0.00  0.00     0.019 A 
ATOM     18  C   UNL d   1      57.857   0.682  31.815  0.00  0.00     0.099 A 
ATOM     19  N   UNL d   1      57.601   0.504  32.574  0.00  0.00    -0.242 NA
ATOM     20  C   UNL d   1      57.010  -0.069  32.689  0.00  0.00     0.099 A 
ATOM     21  C   UNL d   1      56.686  -0.455  32.036  0.00  0.00     0.021 A 
ATOM     22  C   UNL d   1      56.949  -0.270  31.277  0.00  0.00     0.003 A 
ENDBRANCH  16  17
ENDBRANCH   2  16
TORSDOF 4
ENDMDL
