MODEL 1
REMARK VINA RESULT:      -2.4      0.000      0.000
REMARK  4 active torsions:
REMARK  status: ('A' for Active; 'I' for Inactive)
REMARK    1  A    between atoms: C_4  and  N_1 
REMARK    2  A    between atoms: S_8  and  C_5 
REMARK    3  A    between atoms: C_10  and  C_7 
REMARK    4  A    between atoms: C_9  and  S_8 
ROOT
ATOM      1  N   UNL d   1     -41.557-122.524 -51.357  0.00  0.00    -0.241 N 
ATOM      2  C   UNL d   1     -41.318-121.782 -51.614  0.00  0.00     0.268 A 
ATOM      3  C   UNL d   1     -41.611-123.023 -52.016  0.00  0.00     0.273 A 
ATOM      4  C   UNL d   1     -41.404-122.584 -52.678  0.00  0.00     0.091 A 
ATOM      5  C   UNL d   1     -41.222-121.817 -52.434  0.00  0.00     0.072 A 
ATOM      6  O   UNL d   1     -41.194-121.118 -51.139  0.00  0.00    -0.267 OA
ATOM      7  O   UNL d   1     -41.833-123.817 -52.006  0.00  0.00    -0.266 OA
ENDROOT
BRANCH   1   8
ATOM      8  C   UNL d   1     -41.715-122.734 -50.579  0.00  0.00     0.070 A 
ATOM      9  C   UNL d   1     -42.468-122.606 -50.254  0.00  0.00     0.016 A 
ATOM     10  C   UNL d   1     -42.622-122.819 -49.470  0.00  0.00     0.001 A 
ATOM     11  C   UNL d   1     -43.054-122.268 -50.718  0.00  0.00     0.001 A 
ATOM     12  C   UNL d   1     -43.364-122.692 -49.151  0.00  0.00     0.000 A 
ATOM     13  C   UNL d   1     -42.033-123.156 -49.011  0.00  0.00     0.000 A 
ATOM     14  C   UNL d   1     -43.962-122.352 -49.609  0.00  0.00     0.000 A 
ATOM     15  C   UNL d   1     -43.803-122.140 -50.396  0.00  0.00     0.000 A 
ATOM     16  C   UNL d   1     -41.278-123.287 -49.330  0.00  0.00     0.002 A 
ATOM     17  C   UNL d   1     -41.123-123.075 -50.112  0.00  0.00     0.018 A 
ENDBRANCH   1   8
BRANCH   4  18
ATOM     18  S   UNL d   1     -41.380-122.861 -53.460  0.00  0.00    -0.082 SA
BRANCH  18  19
ATOM     19  C   UNL d   1     -41.666-122.328 -54.014  0.00  0.00     0.035 A 
ATOM     20  C   UNL d   1     -41.976-122.605 -54.724  0.00  0.00     0.070 A 
ATOM     21  C   UNL d   1     -42.262-122.065 -55.278  0.00  0.00     0.007 A 
ATOM     22  C   UNL d   1     -42.238-121.259 -55.124  0.00  0.00     0.000 A 
ATOM     23  C   UNL d   1     -41.927-120.988 -54.414  0.00  0.00     0.001 A 
ATOM     24  C   UNL d   1     -41.643-121.511 -53.861  0.00  0.00     0.007 A 
BRANCH  20  25
ATOM     25  C   UNL d   1     -42.000-123.413 -54.877  0.00  0.00     0.211 C 
ATOM     26  O   UNL d   1     -42.719-123.817 -54.839  0.00  0.00    -0.644 OA
ATOM     27  O   UNL d   1     -41.305-123.816 -55.068  0.00  0.00    -0.644 OA
ENDBRANCH  20  25
ENDBRANCH  18  19
ENDBRANCH   4  18
TORSDOF 4
ENDMDL
