MODEL 1
REMARK VINA RESULT:      46.9      0.000      0.000
REMARK  5 active torsions:
REMARK  status: ('A' for Active; 'I' for Inactive)
REMARK    1  A    between atoms: C_10  and  N_6 
REMARK    2  A    between atoms: S_13  and  C_9 
REMARK    3  A    between atoms: C_14  and  C_10 
REMARK    4  A    between atoms: C_22  and  S_13 
REMARK    5  A    between atoms: C_24  and  C_22 
ROOT
ATOM      1  C   UNL d   1      13.801  13.778  -3.503  0.00  0.00     0.174 A 
ATOM      2  C   UNL d   1      13.608  13.113  -3.057  0.00  0.00     0.158 A 
ATOM      3  N   UNL d   1      14.115  14.338  -3.001  0.00  0.00    -0.203 NA
ATOM      4  N   UNL d   1      13.660  13.777  -4.313  0.00  0.00    -0.240 N 
ATOM      5  N   UNL d   1      13.131  12.450  -4.254  0.00  0.00    -0.223 N 
ATOM      6  N   UNL d   1      13.807  13.234  -2.197  0.00  0.00    -0.279 N 
ATOM      7  C   UNL d   1      13.324  13.115  -4.700  0.00  0.00     0.343 A 
ATOM      8  C   UNL d   1      13.274  12.446  -3.422  0.00  0.00     0.287 A 
ATOM      9  C   UNL d   1      14.110  14.000  -2.238  0.00  0.00     0.181 A 
ATOM     10  O   UNL d   1      13.179  13.109  -5.520  0.00  0.00    -0.245 OA
ATOM     11  O   UNL d   1      13.081  11.779  -2.975  0.00  0.00    -0.265 OA
ATOM     12  C   UNL d   1      13.853  14.443  -4.759  0.00  0.00     0.105 C 
ATOM     13  C   UNL d   1      12.797  11.783  -4.618  0.00  0.00     0.107 C 
ENDROOT
BRANCH   6  14
ATOM     14  C   UNL d   1      13.712  12.728  -1.555  0.00  0.00     0.082 C 
BRANCH  14  15
ATOM     15  C   UNL d   1      14.379  12.412  -1.187  0.00  0.00     0.018 A 
ATOM     16  C   UNL d   1      15.065  12.282  -1.620  0.00  0.00     0.002 A 
ATOM     17  C   UNL d   1      15.735  11.967  -1.260  0.00  0.00     0.000 A 
ATOM     18  C   UNL d   1      16.392  11.860  -1.749  0.00  0.00     0.000 C 
ATOM     19  C   UNL d   1      15.714  11.779  -0.449  0.00  0.00     0.000 A 
ATOM     20  C   UNL d   1      15.023  11.911  -0.015  0.00  0.00     0.000 A 
ATOM     21  C   UNL d   1      14.358  12.226  -0.381  0.00  0.00     0.002 A 
ENDBRANCH  14  15
ENDBRANCH   6  14
BRANCH   9  22
ATOM     22  S   UNL d   1      14.382  14.377  -1.557  0.00  0.00    -0.046 SA
BRANCH  22  23
ATOM     23  C   UNL d   1      14.451  15.057  -1.100  0.00  0.00     0.084 C 
BRANCH  23  24
ATOM     24  C   UNL d   1      15.174  15.446  -1.051  0.00  0.00     0.241 C 
ATOM     25  O   UNL d   1      15.430  15.746  -0.329  0.00  0.00    -0.283 OA
ENDBRANCH  23  24
ENDBRANCH  22  23
ENDBRANCH   9  22
TORSDOF 5
ENDMDL
MODEL 2
REMARK VINA RESULT:      48.7      1.513      3.437
REMARK  5 active torsions:
REMARK  status: ('A' for Active; 'I' for Inactive)
REMARK    1  A    between atoms: C_10  and  N_6 
REMARK    2  A    between atoms: S_13  and  C_9 
REMARK    3  A    between atoms: C_14  and  C_10 
REMARK    4  A    between atoms: C_22  and  S_13 
REMARK    5  A    between atoms: C_24  and  C_22 
ROOT
ATOM      1  C   UNL d   1      14.741  13.756  -1.882  0.00  0.00     0.174 A 
ATOM      2  C   UNL d   1      14.049  13.420  -2.178  0.00  0.00     0.158 A 
ATOM      3  N   UNL d   1      14.942  14.385  -2.359  0.00  0.00    -0.203 NA
ATOM      4  N   UNL d   1      15.091  13.435  -1.211  0.00  0.00    -0.240 N 
ATOM      5  N   UNL d   1      14.072  12.436  -1.114  0.00  0.00    -0.223 N 
ATOM      6  N   UNL d   1      13.767  13.854  -2.904  0.00  0.00    -0.279 N 
ATOM      7  C   UNL d   1      14.764  12.773  -0.818  0.00  0.00     0.343 A 
ATOM      8  C   UNL d   1      13.708  12.762  -1.803  0.00  0.00     0.287 A 
ATOM      9  C   UNL d   1      14.358  14.426  -2.954  0.00  0.00     0.181 A 
ATOM     10  O   UNL d   1      15.114  12.443  -0.139  0.00  0.00    -0.245 OA
ATOM     11  O   UNL d   1      13.015  12.426  -2.100  0.00  0.00    -0.265 OA
ATOM     12  C   UNL d   1      15.783  13.771  -0.916  0.00  0.00     0.105 C 
ATOM     13  C   UNL d   1      13.731  11.779  -0.739  0.00  0.00     0.107 C 
ENDROOT
BRANCH   6  14
ATOM     14  C   UNL d   1      13.109  13.717  -3.380  0.00  0.00     0.082 C 
BRANCH  14  15
ATOM     15  C   UNL d   1      13.132  13.110  -3.938  0.00  0.00     0.018 A 
ATOM     16  C   UNL d   1      13.510  13.227  -4.658  0.00  0.00     0.002 A 
ATOM     17  C   UNL d   1      13.536  12.627  -5.220  0.00  0.00     0.000 A 
ATOM     18  C   UNL d   1      13.931  12.807  -5.923  0.00  0.00     0.000 C 
ATOM     19  C   UNL d   1      13.176  11.895  -5.054  0.00  0.00     0.000 A 
ATOM     20  C   UNL d   1      12.796  11.779  -4.329  0.00  0.00     0.000 A 
ATOM     21  C   UNL d   1      12.774  12.383  -3.773  0.00  0.00     0.002 A 
ENDBRANCH  14  15
ENDBRANCH   6  14
BRANCH   9  22
ATOM     22  S   UNL d   1      14.345  14.986  -3.560  0.00  0.00    -0.046 SA
BRANCH  22  23
ATOM     23  C   UNL d   1      14.312  15.771  -3.802  0.00  0.00     0.084 C 
BRANCH  23  24
ATOM     24  C   UNL d   1      14.883  16.064  -4.317  0.00  0.00     0.241 C 
ATOM     25  O   UNL d   1      15.306  16.740  -4.118  0.00  0.00    -0.283 OA
ENDBRANCH  23  24
ENDBRANCH  22  23
ENDBRANCH   9  22
TORSDOF 5
ENDMDL
