MODEL 1
REMARK VINA RESULT:      -3.0      0.000      0.000
REMARK  3 active torsions:
REMARK  status: ('A' for Active; 'I' for Inactive)
REMARK    1  A    between atoms: C_4  and  C_1 
REMARK    2  A    between atoms: N_2  and  C_9 
REMARK       I    between atoms: N_7  and  C_4 
REMARK    3  A    between atoms: C_11  and  N_7 
ROOT
ATOM      1  C   UNL d   1      32.849  20.103 -22.283  0.00  0.00     0.087 A 
ATOM      2  S   UNL d   1      33.199  19.425 -21.970  0.00  0.00    -0.082 SA
ATOM      3  C   UNL d   1      32.475  19.901 -22.980  0.00  0.00     0.012 A 
ATOM      4  C   UNL d   1      32.586  19.090 -23.115  0.00  0.00     0.008 A 
ATOM      5  C   UNL d   1      33.047  18.786 -22.472  0.00  0.00     0.030 A 
ATOM      6  C   UNL d   1      32.543  17.802 -23.692  0.00  0.00     0.127 A 
ATOM      7  C   UNL d   1      32.345  18.592 -23.708  0.00  0.00     0.024 A 
ATOM      8  C   UNL d   1      33.241  18.002 -22.459  0.00  0.00     0.008 A 
ATOM      9  C   UNL d   1      33.004  17.499 -23.049  0.00  0.00     0.024 A 
ENDROOT
BRANCH   1  10
ATOM     10  C   UNL d   1      32.874  20.855 -21.945  0.00  0.00     0.286 C 
ATOM     11  N   UNL d   1      32.541  20.997 -21.205  0.00  0.00    -0.189 NA
ATOM     12  O   UNL d   1      33.241  21.490 -22.356  0.00  0.00    -0.265 OA
BRANCH  11  13
ATOM     13  C   UNL d   1      32.558  21.743 -20.853  0.00  0.00     0.166 A 
ATOM     14  N   UNL d   1      31.901  22.249 -20.962  0.00  0.00    -0.225 NA
ATOM     15  C   UNL d   1      31.902  22.999 -20.617  0.00  0.00     0.101 A 
ATOM     16  C   UNL d   1      32.558  23.249 -20.161  0.00  0.00     0.021 A 
ATOM     17  C   UNL d   1      33.195  22.753 -20.058  0.00  0.00     0.005 A 
ATOM     18  C   UNL d   1      33.194  21.994 -20.407  0.00  0.00     0.039 A 
ENDBRANCH  11  13
ENDBRANCH   1  10
BRANCH   6  19
ATOM     19  N   UNL d   1      32.301  17.268 -24.302  0.00  0.00    -0.114 N 
ATOM     20  O   UNL d   1      32.777  17.101 -24.937  0.00  0.00    -0.532 OA
ATOM     21  O   UNL d   1      31.556  16.909 -24.240  0.00  0.00    -0.532 OA
ENDBRANCH   6  19
TORSDOF 3
ENDMDL
MODEL 2
REMARK VINA RESULT:      -2.9      1.341      4.945
REMARK  3 active torsions:
REMARK  status: ('A' for Active; 'I' for Inactive)
REMARK    1  A    between atoms: C_4  and  C_1 
REMARK    2  A    between atoms: N_2  and  C_9 
REMARK       I    between atoms: N_7  and  C_4 
REMARK    3  A    between atoms: C_11  and  N_7 
ROOT
ATOM      1  C   UNL d   1      32.937  19.675 -22.749  0.00  0.00     0.087 A 
ATOM      2  S   UNL d   1      33.168  20.412 -23.040  0.00  0.00    -0.082 SA
ATOM      3  C   UNL d   1      32.722  19.762 -21.967  0.00  0.00     0.012 A 
ATOM      4  C   UNL d   1      32.815  20.559 -21.755  0.00  0.00     0.008 A 
ATOM      5  C   UNL d   1      33.099  20.973 -22.437  0.00  0.00     0.030 A 
ATOM      6  C   UNL d   1      32.832  21.764 -21.018  0.00  0.00     0.127 A 
ATOM      7  C   UNL d   1      32.689  20.964 -21.063  0.00  0.00     0.024 A 
ATOM      8  C   UNL d   1      33.240  21.767 -22.390  0.00  0.00     0.008 A 
ATOM      9  C   UNL d   1      33.116  22.177 -21.701  0.00  0.00     0.024 A 
ENDROOT
BRANCH   1  10
ATOM     10  C   UNL d   1      32.927  18.971 -23.179  0.00  0.00     0.286 C 
ATOM     11  N   UNL d   1      32.640  18.275 -22.843  0.00  0.00    -0.189 NA
ATOM     12  O   UNL d   1      33.211  18.955 -23.969  0.00  0.00    -0.265 OA
BRANCH  11  13
ATOM     13  C   UNL d   1      32.622  17.563 -23.259  0.00  0.00     0.166 A 
ATOM     14  N   UNL d   1      31.952  17.392 -23.729  0.00  0.00    -0.225 NA
ATOM     15  C   UNL d   1      31.919  16.684 -24.152  0.00  0.00     0.101 A 
ATOM     16  C   UNL d   1      32.555  16.141 -24.108  0.00  0.00     0.021 A 
ATOM     17  C   UNL d   1      33.205  16.311 -23.649  0.00  0.00     0.005 A 
ATOM     18  C   UNL d   1      33.239  17.028 -23.221  0.00  0.00     0.039 A 
ENDBRANCH  11  13
ENDBRANCH   1  10
BRANCH   6  19
ATOM     19  N   UNL d   1      32.706  22.203 -20.306  0.00  0.00    -0.114 N 
ATOM     20  O   UNL d   1      33.233  22.176 -19.689  0.00  0.00    -0.532 OA
ATOM     21  O   UNL d   1      32.023  22.669 -20.244  0.00  0.00    -0.532 OA
ENDBRANCH   6  19
TORSDOF 3
ENDMDL
MODEL 3
REMARK VINA RESULT:      -1.8      2.111      2.982
REMARK  3 active torsions:
REMARK  status: ('A' for Active; 'I' for Inactive)
REMARK    1  A    between atoms: C_4  and  C_1 
REMARK    2  A    between atoms: N_2  and  C_9 
REMARK       I    between atoms: N_7  and  C_4 
REMARK    3  A    between atoms: C_11  and  N_7 
ROOT
ATOM      1  C   UNL d   1      32.919  21.985 -20.366  0.00  0.00     0.087 A 
ATOM      2  S   UNL d   1      32.900  22.225 -21.155  0.00  0.00    -0.082 SA
ATOM      3  C   UNL d   1      32.943  21.169 -20.346  0.00  0.00     0.012 A 
ATOM      4  C   UNL d   1      32.941  20.885 -21.126  0.00  0.00     0.008 A 
ATOM      5  C   UNL d   1      32.913  21.557 -21.641  0.00  0.00     0.030 A 
ATOM      6  C   UNL d   1      32.951  20.027 -22.247  0.00  0.00     0.127 A 
ATOM      7  C   UNL d   1      32.959  20.138 -21.440  0.00  0.00     0.024 A 
ATOM      8  C   UNL d   1      32.905  21.444 -22.441  0.00  0.00     0.008 A 
ATOM      9  C   UNL d   1      32.923  20.699 -22.762  0.00  0.00     0.024 A 
ENDROOT
BRANCH   1  10
ATOM     10  C   UNL d   1      32.913  22.486 -19.711  0.00  0.00     0.286 C 
ATOM     11  N   UNL d   1      32.593  22.238 -18.993  0.00  0.00    -0.189 NA
ATOM     12  O   UNL d   1      33.234  23.260 -19.769  0.00  0.00    -0.265 OA
BRANCH  11  13
ATOM     13  C   UNL d   1      32.579  22.727 -18.328  0.00  0.00     0.166 A 
ATOM     14  N   UNL d   1      33.238  22.717 -17.813  0.00  0.00    -0.225 NA
ATOM     15  C   UNL d   1      33.240  23.200 -17.144  0.00  0.00     0.101 A 
ATOM     16  C   UNL d   1      32.584  23.696 -16.984  0.00  0.00     0.021 A 
ATOM     17  C   UNL d   1      31.946  23.702 -17.487  0.00  0.00     0.005 A 
ATOM     18  C   UNL d   1      31.943  23.213 -18.166  0.00  0.00     0.039 A 
ENDBRANCH  11  13
ENDBRANCH   1  10
BRANCH   6  19
ATOM     19  N   UNL d   1      32.969  19.255 -22.593  0.00  0.00    -0.114 N 
ATOM     20  O   UNL d   1      33.238  18.609 -22.183  0.00  0.00    -0.532 OA
ATOM     21  O   UNL d   1      32.703  19.165 -23.373  0.00  0.00    -0.532 OA
ENDBRANCH   6  19
TORSDOF 3
ENDMDL
MODEL 4
REMARK VINA RESULT:      -1.3      3.162      3.855
REMARK  3 active torsions:
REMARK  status: ('A' for Active; 'I' for Inactive)
REMARK    1  A    between atoms: C_4  and  C_1 
REMARK    2  A    between atoms: N_2  and  C_9 
REMARK       I    between atoms: N_7  and  C_4 
REMARK    3  A    between atoms: C_11  and  N_7 
ROOT
ATOM      1  C   UNL d   1      32.652  22.379 -20.809  0.00  0.00     0.087 A 
ATOM      2  S   UNL d   1      32.941  21.748 -21.255  0.00  0.00    -0.082 SA
ATOM      3  C   UNL d   1      32.443  22.980 -21.320  0.00  0.00     0.012 A 
ATOM      4  C   UNL d   1      32.599  22.733 -22.097  0.00  0.00     0.008 A 
ATOM      5  C   UNL d   1      32.916  21.949 -22.056  0.00  0.00     0.030 A 
ATOM      6  C   UNL d   1      32.710  22.704 -23.504  0.00  0.00     0.127 A 
ATOM      7  C   UNL d   1      32.504  23.092 -22.818  0.00  0.00     0.024 A 
ATOM      8  C   UNL d   1      33.120  21.568 -22.738  0.00  0.00     0.008 A 
ATOM      9  C   UNL d   1      33.027  21.920 -23.463  0.00  0.00     0.024 A 
ENDROOT
BRANCH   1  10
ATOM     10  C   UNL d   1      32.587  22.396 -19.987  0.00  0.00     0.286 C 
ATOM     11  N   UNL d   1      32.979  22.971 -19.544  0.00  0.00    -0.189 NA
ATOM     12  O   UNL d   1      32.119  21.824 -19.589  0.00  0.00    -0.265 OA
BRANCH  11  13
ATOM     13  C   UNL d   1      32.924  23.002 -18.722  0.00  0.00     0.166 A 
ATOM     14  N   UNL d   1      32.537  23.655 -18.373  0.00  0.00    -0.225 NA
ATOM     15  C   UNL d   1      32.474  23.702 -17.552  0.00  0.00     0.101 A 
ATOM     16  C   UNL d   1      32.798  23.097 -17.072  0.00  0.00     0.021 A 
ATOM     17  C   UNL d   1      33.174  22.463 -17.416  0.00  0.00     0.005 A 
ATOM     18  C   UNL d   1      33.238  22.416 -18.248  0.00  0.00     0.039 A 
ENDBRANCH  11  13
ENDBRANCH   1  10
BRANCH   6  19
ATOM     19  N   UNL d   1      32.618  23.062 -24.265  0.00  0.00    -0.114 N 
ATOM     20  O   UNL d   1      32.014  23.580 -24.424  0.00  0.00    -0.532 OA
ATOM     21  O   UNL d   1      33.164  22.873 -24.859  0.00  0.00    -0.532 OA
ENDBRANCH   6  19
TORSDOF 3
ENDMDL
MODEL 5
REMARK VINA RESULT:      -0.8      2.860      4.211
REMARK  3 active torsions:
REMARK  status: ('A' for Active; 'I' for Inactive)
REMARK    1  A    between atoms: C_4  and  C_1 
REMARK    2  A    between atoms: N_2  and  C_9 
REMARK       I    between atoms: N_7  and  C_4 
REMARK    3  A    between atoms: C_11  and  N_7 
ROOT
ATOM      1  C   UNL d   1      32.777  22.835 -19.633  0.00  0.00     0.087 A 
ATOM      2  S   UNL d   1      32.939  23.358 -20.250  0.00  0.00    -0.082 SA
ATOM      3  C   UNL d   1      32.686  22.087 -19.947  0.00  0.00     0.012 A 
ATOM      4  C   UNL d   1      32.791  22.131 -20.769  0.00  0.00     0.008 A 
ATOM      5  C   UNL d   1      32.952  22.940 -20.962  0.00  0.00     0.030 A 
ATOM      6  C   UNL d   1      32.892  21.785 -22.134  0.00  0.00     0.127 A 
ATOM      7  C   UNL d   1      32.765  21.573 -21.358  0.00  0.00     0.024 A 
ATOM      8  C   UNL d   1      33.077  23.145 -21.733  0.00  0.00     0.008 A 
ATOM      9  C   UNL d   1      33.053  22.594 -22.327  0.00  0.00     0.024 A 
ENDROOT
BRANCH   1  10
ATOM     10  C   UNL d   1      32.718  23.037 -18.835  0.00  0.00     0.286 C 
ATOM     11  N   UNL d   1      33.107  22.596 -18.258  0.00  0.00    -0.189 NA
ATOM     12  O   UNL d   1      32.257  23.699 -18.601  0.00  0.00    -0.265 OA
BRANCH  11  13
ATOM     13  C   UNL d   1      33.058  22.784 -17.456  0.00  0.00     0.166 A 
ATOM     14  N   UNL d   1      33.240  22.191 -16.896  0.00  0.00    -0.225 NA
ATOM     15  C   UNL d   1      33.197  22.362 -16.090  0.00  0.00     0.101 A 
ATOM     16  C   UNL d   1      32.971  23.128 -15.838  0.00  0.00     0.021 A 
ATOM     17  C   UNL d   1      32.794  23.702 -16.386  0.00  0.00     0.005 A 
ATOM     18  C   UNL d   1      32.838  23.529 -17.203  0.00  0.00     0.039 A 
ENDBRANCH  11  13
ENDBRANCH   1  10
BRANCH   6  19
ATOM     19  N   UNL d   1      32.869  21.218 -22.762  0.00  0.00    -0.114 N 
ATOM     20  O   UNL d   1      32.552  20.478 -22.658  0.00  0.00    -0.532 OA
ATOM     21  O   UNL d   1      33.181  21.432 -23.499  0.00  0.00    -0.532 OA
ENDBRANCH   6  19
TORSDOF 3
ENDMDL
