MODEL 1
REMARK VINA RESULT:      38.3      0.000      0.000
REMARK  4 active torsions:
REMARK  status: ('A' for Active; 'I' for Inactive)
REMARK    1  A    between atoms: C_5  and  N_1 
REMARK    2  A    between atoms: C_7  and  C_5 
REMARK    3  A    between atoms: O_14  and  C_10 
REMARK    4  A    between atoms: C_17  and  O_14 
ROOT
ATOM      1  N   UNL d   1     -51.543  24.631  33.411  0.00  0.00    -0.251 N 
ATOM      2  C   UNL d   1     -51.072  23.956  33.505  0.00  0.00     0.378 A 
ATOM      3  C   UNL d   1     -52.336  24.398  33.439  0.00  0.00     0.092 A 
ATOM      4  O   UNL d   1     -51.576  23.306  33.591  0.00  0.00    -0.258 OA
ATOM      5  C   UNL d   1     -52.356  23.580  33.550  0.00  0.00     0.121 A 
ATOM      6  O   UNL d   1     -50.249  23.932  33.512  0.00  0.00    -0.237 OA
ATOM      7  C   UNL d   1     -53.032  24.829  33.377  0.00  0.00     0.020 A 
ATOM      8  C   UNL d   1     -53.089  23.196  33.598  0.00  0.00     0.026 A 
ATOM      9  C   UNL d   1     -53.755  24.446  33.425  0.00  0.00     0.002 A 
ATOM     10  C   UNL d   1     -53.784  23.628  33.536  0.00  0.00     0.002 A 
ATOM     11  C   UNL d   1     -54.455  24.877  33.364  0.00  0.00     0.000 C 
ENDROOT
BRANCH   1  12
ATOM     12  C   UNL d   1     -51.303  25.413  33.306  0.00  0.00     0.087 C 
BRANCH  12  13
ATOM     13  C   UNL d   1     -50.595  25.681  33.637  0.00  0.00     0.041 A 
ATOM     14  C   UNL d   1     -50.513  26.459  33.856  0.00  0.00     0.102 A 
ATOM     15  C   UNL d   1     -49.811  26.722  34.184  0.00  0.00     0.025 A 
ATOM     16  C   UNL d   1     -49.185  26.200  34.293  0.00  0.00     0.002 A 
ATOM     17  C   UNL d   1     -49.268  25.410  34.070  0.00  0.00     0.000 A 
ATOM     18  C   UNL d   1     -49.978  25.151  33.740  0.00  0.00     0.004 A 
BRANCH  14  19
ATOM     19  O   UNL d   1     -51.140  26.990  33.750  0.00  0.00    -0.305 OA
BRANCH  19  20
ATOM     20  C   UNL d   1     -51.028  27.678  33.308  0.00  0.00     0.123 C 
ATOM     21  C   UNL d   1     -51.119  28.419  33.664  0.00  0.00     0.029 C 
ENDBRANCH  19  20
ENDBRANCH  14  19
ENDBRANCH  12  13
ENDBRANCH   1  12
TORSDOF 4
ENDMDL
