MODEL 1
REMARK VINA RESULT:      58.7      0.000      0.000
REMARK  4 active torsions:
REMARK  status: ('A' for Active; 'I' for Inactive)
REMARK    1  A    between atoms: C_2  and  C_1 
REMARK       I    between atoms: N_3  and  C_1 
REMARK    2  A    between atoms: C_14  and  N_3 
REMARK    3  A    between atoms: C_6  and  S_7 
REMARK    4  A    between atoms: S_7  and  C_15 
ROOT
ATOM      1  C   UNL d   1      61.218  49.219  51.999  0.00  0.00     0.279 C 
ATOM      2  N   UNL d   1      60.567  49.702  52.140  0.00  0.00    -0.208 NA
ATOM      3  O   UNL d   1      61.878  49.252  52.503  0.00  0.00    -0.265 OA
ENDROOT
BRANCH   1   4
ATOM      4  C   UNL d   1      61.218  48.698  51.356  0.00  0.00     0.059 A 
ATOM      5  C   UNL d   1      61.218  47.878  51.490  0.00  0.00     0.025 A 
ATOM      6  C   UNL d   1      61.219  47.360  50.839  0.00  0.00     0.099 A 
ATOM      7  N   UNL d   1      61.219  46.538  50.976  0.00  0.00    -0.241 NA
ATOM      8  C   UNL d   1      61.219  47.652  50.070  0.00  0.00     0.099 A 
ATOM      9  C   UNL d   1      61.219  46.019  50.330  0.00  0.00     0.120 A 
ATOM     10  C   UNL d   1      61.219  46.321  49.550  0.00  0.00     0.120 A 
ATOM     11  N   UNL d   1      61.219  47.136  49.429  0.00  0.00    -0.241 NA
ATOM     12  C   UNL d   1      61.219  48.468  49.939  0.00  0.00     0.021 A 
ATOM     13  C   UNL d   1      61.219  48.993  50.580  0.00  0.00     0.006 A 
ENDBRANCH   1   4
BRANCH   2  14
ATOM     14  C   UNL d   1      59.913  49.668  51.639  0.00  0.00     0.085 A 
ATOM     15  C   UNL d   1      59.157  49.624  51.960  0.00  0.00     0.020 A 
ATOM     16  C   UNL d   1      58.504  49.590  51.462  0.00  0.00     0.008 A 
ATOM     17  C   UNL d   1      58.608  49.598  50.644  0.00  0.00     0.034 A 
ATOM     18  C   UNL d   1      59.368  49.642  50.330  0.00  0.00     0.008 A 
ATOM     19  C   UNL d   1      60.020  49.676  50.828  0.00  0.00     0.020 A 
BRANCH  17  20
ATOM     20  S   UNL d   1      57.955  49.564  50.146  0.00  0.00    -0.028 SA
BRANCH  20  21
ATOM     21  C   UNL d   1      57.302  49.528  49.650  0.00  0.00     0.309 C 
ATOM     22  F   UNL d   1      57.391  49.681  48.845  0.00  0.00    -0.165 F 
ATOM     23  F   UNL d   1      56.563  49.341  49.956  0.00  0.00    -0.165 F 
ENDBRANCH  20  21
ENDBRANCH  17  20
ENDBRANCH   2  14
TORSDOF 4
ENDMDL
