MODEL 1
REMARK VINA RESULT:      58.9      0.000      0.000
REMARK  6 active torsions:
REMARK  status: ('A' for Active; 'I' for Inactive)
REMARK    1  A    between atoms: C_8  and  C_1 
REMARK    2  A    between atoms: S_10  and  C_2 
REMARK    3  A    between atoms: C_7  and  C_4 
REMARK    4  A    between atoms: C_23  and  S_10 
REMARK    5  A    between atoms: C_16  and  C_23 
REMARK    6  A    between atoms: O_25  and  C_16 
ROOT
ATOM      1  C   UNL d   1     -57.299 -98.780 -43.603  0.00  0.00     0.045 A 
ATOM      2  C   UNL d   1     -56.779 -98.779 -44.288  0.00  0.00     0.112 A 
ATOM      3  C   UNL d   1     -58.432 -98.820 -44.483  0.00  0.00     0.057 A 
ATOM      4  C   UNL d   1     -58.115 -98.800 -43.717  0.00  0.00     0.008 A 
ATOM      5  C   UNL d   1     -57.932 -98.820 -45.142  0.00  0.00     0.085 A 
ATOM      6  N   UNL d   1     -57.110 -98.799 -45.044  0.00  0.00    -0.239 NA
ATOM      7  C   UNL d   1     -59.250 -98.840 -44.577  0.00  0.00     0.197 A 
ATOM      8  O   UNL d   1     -59.752 -98.841 -43.914  0.00  0.00    -0.286 OA
ATOM      9  C   UNL d   1     -58.245 -98.839 -45.903  0.00  0.00     0.019 A 
ATOM     10  C   UNL d   1     -59.581 -98.861 -45.333  0.00  0.00     0.042 A 
ATOM     11  C   UNL d   1     -59.062 -98.860 -46.018  0.00  0.00     0.005 A 
ENDROOT
BRANCH   4  12
ATOM     12  C   UNL d   1     -58.618 -98.801 -43.054  0.00  0.00     0.002 A 
ATOM     13  C   UNL d   1     -58.307 -98.839 -42.293  0.00  0.00     0.026 A 
ATOM     14  C   UNL d   1     -58.805 -98.840 -41.634  0.00  0.00     0.119 A 
ATOM     15  O   UNL d   1     -58.657 -98.874 -40.815  0.00  0.00    -0.300 OA
ATOM     16  C   UNL d   1     -59.619 -98.802 -41.733  0.00  0.00     0.119 A 
ATOM     17  C   UNL d   1     -59.369 -98.856 -40.429  0.00  0.00     0.304 A 
ATOM     18  O   UNL d   1     -59.958 -98.812 -40.981  0.00  0.00    -0.300 OA
ATOM     19  C   UNL d   1     -59.957 -98.761 -42.534  0.00  0.00     0.026 A 
ATOM     20  C   UNL d   1     -59.443 -98.761 -43.175  0.00  0.00     0.002 A 
ENDBRANCH   4  12
BRANCH   1  21
ATOM     21  C   UNL d   1     -56.993 -98.759 -42.804  0.00  0.00     0.124 C 
ATOM     22  N   UNL d   1     -56.187 -98.758 -42.676  0.00  0.00    -0.146 N 
ENDBRANCH   1  21
BRANCH   2  23
ATOM     23  S   UNL d   1     -55.927 -98.758 -44.211  0.00  0.00    -0.062 SA
BRANCH  23  24
ATOM     24  C   UNL d   1     -55.483 -99.406 -44.435  0.00  0.00     0.105 C 
BRANCH  24  25
ATOM     25  C   UNL d   1     -55.514-100.098 -43.988  0.00  0.00     0.303 C 
ATOM     26  O   UNL d   1     -55.680-100.063 -43.184  0.00  0.00    -0.259 OA
BRANCH  25  27
ATOM     27  O   UNL d   1     -55.378-100.825 -44.347  0.00  0.00    -0.295 OA
ATOM     28  C   UNL d   1     -55.397-100.905 -45.169  0.00  0.00     0.185 C 
ENDBRANCH  25  27
ENDBRANCH  24  25
ENDBRANCH  23  24
ENDBRANCH   2  23
TORSDOF 6
ENDMDL
