MODEL 1
REMARK VINA RESULT:      -6.8      0.000      0.000
REMARK  5 active torsions:
REMARK  status: ('A' for Active; 'I' for Inactive)
REMARK    1  A    between atoms: C_15  and  N_5 
REMARK    2  A    between atoms: S_10  and  C_6 
REMARK    3  A    between atoms: C_14  and  S_10 
REMARK    4  A    between atoms: C_11  and  C_14 
REMARK       I    between atoms: N_13  and  C_11 
REMARK    5  A    between atoms: C_17  and  C_15 
ROOT
ATOM      1  C   UNL d   1     -48.961  12.677  23.376  0.00  0.00     0.081 A 
ATOM      2  C   UNL d   1     -48.659  11.923  23.520  0.00  0.00     0.117 A 
ATOM      3  N   UNL d   1     -47.873  11.810  23.506  0.00  0.00    -0.215 NA
ATOM      4  C   UNL d   1     -48.475  13.290  23.225  0.00  0.00     0.268 A 
ATOM      5  N   UNL d   1     -47.689  13.177  23.211  0.00  0.00    -0.253 N 
ATOM      6  C   UNL d   1     -47.388  12.442  23.351  0.00  0.00     0.182 A 
ATOM      7  S   UNL d   1     -49.252  11.423  23.652  0.00  0.00    -0.068 SA
ATOM      8  C   UNL d   1     -49.788  12.609  23.430  0.00  0.00     0.013 A 
ATOM      9  C   UNL d   1     -49.941  11.816  23.603  0.00  0.00     0.031 A 
ATOM     10  O   UNL d   1     -48.783  14.100  23.070  0.00  0.00    -0.267 OA
ATOM     11  C   UNL d   1     -50.467  13.002  23.380  0.00  0.00     0.001 A 
ATOM     12  C   UNL d   1     -50.767  11.747  23.656  0.00  0.00     0.006 A 
ATOM     13  C   UNL d   1     -51.064  12.446  23.525  0.00  0.00     0.001 A 
ENDROOT
BRANCH   6  14
ATOM     14  S   UNL d   1     -46.544  12.324  23.335  0.00  0.00    -0.044 SA
BRANCH  14  15
ATOM     15  C   UNL d   1     -46.264  11.530  23.426  0.00  0.00     0.099 C 
BRANCH  15  16
ATOM     16  C   UNL d   1     -45.424  11.404  23.355  0.00  0.00     0.272 C 
ATOM     17  N   UNL d   1     -45.075  10.670  23.476  0.00  0.00    -0.269 N 
ATOM     18  C   UNL d   1     -44.239  10.591  23.396  0.00  0.00     0.102 C 
ATOM     19  C   UNL d   1     -45.550  10.008  23.678  0.00  0.00     0.102 C 
ATOM     20  O   UNL d   1     -44.950  12.076  23.152  0.00  0.00    -0.266 OA
ENDBRANCH  15  16
ENDBRANCH  14  15
ENDBRANCH   6  14
BRANCH   5  21
ATOM     21  C   UNL d   1     -47.188  13.848  23.047  0.00  0.00     0.085 C 
BRANCH  21  22
ATOM     22  C   UNL d   1     -47.393  14.434  22.509  0.00  0.00     0.019 C 
ATOM     23  C   UNL d   1     -46.886  15.051  22.357  0.00  0.00     0.002 C 
ENDBRANCH  21  22
ENDBRANCH   5  21
TORSDOF 5
ENDMDL
MODEL 2
REMARK VINA RESULT:      -6.4      1.107      4.063
REMARK  5 active torsions:
REMARK  status: ('A' for Active; 'I' for Inactive)
REMARK    1  A    between atoms: C_15  and  N_5 
REMARK    2  A    between atoms: S_10  and  C_6 
REMARK    3  A    between atoms: C_14  and  S_10 
REMARK    4  A    between atoms: C_11  and  C_14 
REMARK       I    between atoms: N_13  and  C_11 
REMARK    5  A    between atoms: C_17  and  C_15 
ROOT
ATOM      1  C   UNL d   1     -45.899  11.914  23.133  0.00  0.00     0.081 A 
ATOM      2  C   UNL d   1     -46.527  11.485  23.454  0.00  0.00     0.117 A 
ATOM      3  N   UNL d   1     -47.251  11.812  23.474  0.00  0.00    -0.215 NA
ATOM      4  C   UNL d   1     -46.011  12.647  22.844  0.00  0.00     0.268 A 
ATOM      5  N   UNL d   1     -46.735  12.974  22.863  0.00  0.00    -0.253 N 
ATOM      6  C   UNL d   1     -47.352  12.561  23.176  0.00  0.00     0.182 A 
ATOM      7  S   UNL d   1     -46.269  10.783  23.698  0.00  0.00    -0.068 SA
ATOM      8  C   UNL d   1     -45.231  11.424  23.195  0.00  0.00     0.013 A 
ATOM      9  C   UNL d   1     -45.490  10.726  23.551  0.00  0.00     0.031 A 
ATOM     10  O   UNL d   1     -45.351  13.116  22.498  0.00  0.00    -0.267 OA
ATOM     11  C   UNL d   1     -44.460  11.372  23.047  0.00  0.00     0.001 A 
ATOM     12  C   UNL d   1     -44.822  10.236  23.613  0.00  0.00     0.006 A 
ATOM     13  C   UNL d   1     -44.226  10.624  23.315  0.00  0.00     0.001 A 
ENDROOT
BRANCH   6  14
ATOM     14  S   UNL d   1     -48.127  12.914  23.196  0.00  0.00    -0.044 SA
BRANCH  14  15
ATOM     15  C   UNL d   1     -48.767  12.457  22.880  0.00  0.00     0.099 C 
BRANCH  15  16
ATOM     16  C   UNL d   1     -49.550  12.789  22.946  0.00  0.00     0.272 C 
ATOM     17  N   UNL d   1     -50.145  12.630  22.402  0.00  0.00    -0.269 N 
ATOM     18  C   UNL d   1     -50.905  12.980  22.506  0.00  0.00     0.102 C 
ATOM     19  C   UNL d   1     -49.993  12.124  21.750  0.00  0.00     0.102 C 
ATOM     20  O   UNL d   1     -49.698  13.299  23.605  0.00  0.00    -0.266 OA
ENDBRANCH  15  16
ENDBRANCH  14  15
ENDBRANCH   6  14
BRANCH   5  21
ATOM     21  C   UNL d   1     -46.830  13.761  22.548  0.00  0.00     0.085 C 
BRANCH  21  22
ATOM     22  C   UNL d   1     -46.575  14.433  22.945  0.00  0.00     0.019 C 
ATOM     23  C   UNL d   1     -46.711  15.173  22.637  0.00  0.00     0.002 C 
ENDBRANCH  21  22
ENDBRANCH   5  21
TORSDOF 5
ENDMDL
MODEL 3
REMARK VINA RESULT:      -6.3      1.707      4.656
REMARK  5 active torsions:
REMARK  status: ('A' for Active; 'I' for Inactive)
REMARK    1  A    between atoms: C_15  and  N_5 
REMARK    2  A    between atoms: S_10  and  C_6 
REMARK    3  A    between atoms: C_14  and  S_10 
REMARK    4  A    between atoms: C_11  and  C_14 
REMARK       I    between atoms: N_13  and  C_11 
REMARK    5  A    between atoms: C_17  and  C_15 
ROOT
ATOM      1  C   UNL d   1     -46.565  12.881  22.778  0.00  0.00     0.081 A 
ATOM      2  C   UNL d   1     -46.729  13.638  22.493  0.00  0.00     0.117 A 
ATOM      3  N   UNL d   1     -47.452  13.947  22.603  0.00  0.00    -0.215 NA
ATOM      4  C   UNL d   1     -47.122  12.460  23.162  0.00  0.00     0.268 A 
ATOM      5  N   UNL d   1     -47.845  12.769  23.272  0.00  0.00    -0.253 N 
ATOM      6  C   UNL d   1     -48.011  13.508  22.996  0.00  0.00     0.182 A 
ATOM      7  S   UNL d   1     -46.089  13.929  22.139  0.00  0.00    -0.068 SA
ATOM      8  C   UNL d   1     -45.775  12.724  22.575  0.00  0.00     0.013 A 
ATOM      9  C   UNL d   1     -45.503  13.395  22.178  0.00  0.00     0.031 A 
ATOM     10  O   UNL d   1     -46.962  11.652  23.472  0.00  0.00    -0.267 OA
ATOM     11  C   UNL d   1     -45.197  12.191  22.616  0.00  0.00     0.001 A 
ATOM     12  C   UNL d   1     -44.712  13.238  21.975  0.00  0.00     0.006 A 
ATOM     13  C   UNL d   1     -44.544  12.533  22.236  0.00  0.00     0.001 A 
ENDROOT
BRANCH   6  14
ATOM     14  S   UNL d   1     -48.788  13.836  23.116  0.00  0.00    -0.044 SA
BRANCH  14  15
ATOM     15  C   UNL d   1     -49.033  14.451  22.586  0.00  0.00     0.099 C 
BRANCH  15  16
ATOM     16  C   UNL d   1     -49.712  14.913  22.816  0.00  0.00     0.272 C 
ATOM     17  N   UNL d   1     -50.418  14.900  22.395  0.00  0.00    -0.269 N 
ATOM     18  C   UNL d   1     -51.064  15.373  22.658  0.00  0.00     0.102 C 
ATOM     19  C   UNL d   1     -50.490  14.419  21.711  0.00  0.00     0.102 C 
ATOM     20  O   UNL d   1     -49.633  15.396  23.506  0.00  0.00    -0.266 OA
ENDBRANCH  15  16
ENDBRANCH  14  15
ENDBRANCH   6  14
BRANCH   5  21
ATOM     21  C   UNL d   1     -48.425  12.299  23.686  0.00  0.00     0.085 C 
BRANCH  21  22
ATOM     22  C   UNL d   1     -48.768  11.629  23.358  0.00  0.00     0.019 C 
ATOM     23  C   UNL d   1     -49.428  11.294  23.697  0.00  0.00     0.002 C 
ENDBRANCH  21  22
ENDBRANCH   5  21
TORSDOF 5
ENDMDL
MODEL 4
REMARK VINA RESULT:      -6.1      1.771      2.693
REMARK  5 active torsions:
REMARK  status: ('A' for Active; 'I' for Inactive)
REMARK    1  A    between atoms: C_15  and  N_5 
REMARK    2  A    between atoms: S_10  and  C_6 
REMARK    3  A    between atoms: C_14  and  S_10 
REMARK    4  A    between atoms: C_11  and  C_14 
REMARK       I    between atoms: N_13  and  C_11 
REMARK    5  A    between atoms: C_17  and  C_15 
ROOT
ATOM      1  C   UNL d   1     -49.481  14.079  23.219  0.00  0.00     0.081 A 
ATOM      2  C   UNL d   1     -48.792  14.466  22.982  0.00  0.00     0.117 A 
ATOM      3  N   UNL d   1     -48.105  14.068  22.977  0.00  0.00    -0.215 NA
ATOM      4  C   UNL d   1     -49.464  13.314  23.442  0.00  0.00     0.268 A 
ATOM      5  N   UNL d   1     -48.777  12.916  23.438  0.00  0.00    -0.253 N 
ATOM      6  C   UNL d   1     -48.100  13.289  23.207  0.00  0.00     0.182 A 
ATOM      7  S   UNL d   1     -48.961  15.211  22.792  0.00  0.00    -0.068 SA
ATOM      8  C   UNL d   1     -50.092  14.640  23.163  0.00  0.00     0.013 A 
ATOM      9  C   UNL d   1     -49.739  15.336  22.894  0.00  0.00     0.031 A 
ATOM     10  O   UNL d   1     -50.191  12.889  23.698  0.00  0.00    -0.267 OA
ATOM     11  C   UNL d   1     -50.863  14.759  23.265  0.00  0.00     0.001 A 
ATOM     12  C   UNL d   1     -50.349  15.897  22.837  0.00  0.00     0.006 A 
ATOM     13  C   UNL d   1     -51.001  15.549  23.056  0.00  0.00     0.001 A 
ENDROOT
BRANCH   6  14
ATOM     14  S   UNL d   1     -47.365  12.859  23.202  0.00  0.00    -0.044 SA
BRANCH  14  15
ATOM     15  C   UNL d   1     -46.676  13.276  22.938  0.00  0.00     0.099 C 
BRANCH  15  16
ATOM     16  C   UNL d   1     -45.949  12.833  22.890  0.00  0.00     0.272 C 
ATOM     17  N   UNL d   1     -45.356  13.013  22.351  0.00  0.00    -0.269 N 
ATOM     18  C   UNL d   1     -44.652  12.548  22.339  0.00  0.00     0.102 C 
ATOM     19  C   UNL d   1     -45.454  13.655  21.819  0.00  0.00     0.102 C 
ATOM     20  O   UNL d   1     -45.856  12.186  23.429  0.00  0.00    -0.266 OA
ENDBRANCH  15  16
ENDBRANCH  14  15
ENDBRANCH   6  14
BRANCH   5  21
ATOM     21  C   UNL d   1     -48.784  12.098  23.680  0.00  0.00     0.085 C 
BRANCH  21  22
ATOM     22  C   UNL d   1     -49.296  11.543  23.357  0.00  0.00     0.019 C 
ATOM     23  C   UNL d   1     -49.379  10.809  23.698  0.00  0.00     0.002 C 
ENDBRANCH  21  22
ENDBRANCH   5  21
TORSDOF 5
ENDMDL
MODEL 5
REMARK VINA RESULT:      -4.3      1.987      3.040
REMARK  5 active torsions:
REMARK  status: ('A' for Active; 'I' for Inactive)
REMARK    1  A    between atoms: C_15  and  N_5 
REMARK    2  A    between atoms: S_10  and  C_6 
REMARK    3  A    between atoms: C_14  and  S_10 
REMARK    4  A    between atoms: C_11  and  C_14 
REMARK       I    between atoms: N_13  and  C_11 
REMARK    5  A    between atoms: C_17  and  C_15 
ROOT
ATOM      1  C   UNL d   1     -47.298  13.666  22.925  0.00  0.00     0.081 A 
ATOM      2  C   UNL d   1     -46.713  14.055  22.492  0.00  0.00     0.117 A 
ATOM      3  N   UNL d   1     -46.011  13.701  22.381  0.00  0.00    -0.215 NA
ATOM      4  C   UNL d   1     -47.166  12.942  23.231  0.00  0.00     0.268 A 
ATOM      5  N   UNL d   1     -46.464  12.588  23.120  0.00  0.00    -0.253 N 
ATOM      6  C   UNL d   1     -45.889  12.963  22.697  0.00  0.00     0.182 A 
ATOM      7  S   UNL d   1     -46.984  14.755  22.255  0.00  0.00    -0.068 SA
ATOM      8  C   UNL d   1     -47.953  14.177  22.939  0.00  0.00     0.013 A 
ATOM      9  C   UNL d   1     -47.729  14.848  22.514  0.00  0.00     0.031 A 
ATOM     10  O   UNL d   1     -47.780  12.515  23.695  0.00  0.00    -0.267 OA
ATOM     11  C   UNL d   1     -48.691  14.265  23.198  0.00  0.00     0.001 A 
ATOM     12  C   UNL d   1     -48.384  15.359  22.528  0.00  0.00     0.006 A 
ATOM     13  C   UNL d   1     -48.940  15.008  22.930  0.00  0.00     0.001 A 
ENDROOT
BRANCH   6  14
ATOM     14  S   UNL d   1     -45.137  12.581  22.580  0.00  0.00    -0.044 SA
BRANCH  14  15
ATOM     15  C   UNL d   1     -44.571  12.983  22.094  0.00  0.00     0.099 C 
BRANCH  15  16
ATOM     16  C   UNL d   1     -43.813  12.607  21.988  0.00  0.00     0.272 C 
ATOM     17  N   UNL d   1     -43.217  12.935  21.527  0.00  0.00    -0.269 N 
ATOM     18  C   UNL d   1     -42.483  12.528  21.450  0.00  0.00     0.102 C 
ATOM     19  C   UNL d   1     -43.343  13.668  21.139  0.00  0.00     0.102 C 
ATOM     20  O   UNL d   1     -43.693  11.867  22.382  0.00  0.00    -0.266 OA
ENDBRANCH  15  16
ENDBRANCH  14  15
ENDBRANCH   6  14
BRANCH   5  21
ATOM     21  C   UNL d   1     -46.346  11.813  23.457  0.00  0.00     0.085 C 
BRANCH  21  22
ATOM     22  C   UNL d   1     -46.813  11.167  23.259  0.00  0.00     0.019 C 
ATOM     23  C   UNL d   1     -46.743  10.466  23.665  0.00  0.00     0.002 C 
ENDBRANCH  21  22
ENDBRANCH   5  21
TORSDOF 5
ENDMDL
MODEL 6
REMARK VINA RESULT:      -3.8      8.094      9.777
REMARK  5 active torsions:
REMARK  status: ('A' for Active; 'I' for Inactive)
REMARK    1  A    between atoms: C_15  and  N_5 
REMARK    2  A    between atoms: S_10  and  C_6 
REMARK    3  A    between atoms: C_14  and  S_10 
REMARK    4  A    between atoms: C_11  and  C_14 
REMARK       I    between atoms: N_13  and  C_11 
REMARK    5  A    between atoms: C_17  and  C_15 
ROOT
ATOM      1  C   UNL d   1     -39.180  14.184  21.397  0.00  0.00     0.081 A 
ATOM      2  C   UNL d   1     -38.834  13.827  20.738  0.00  0.00     0.117 A 
ATOM      3  N   UNL d   1     -39.059  14.053  20.011  0.00  0.00    -0.215 NA
ATOM      4  C   UNL d   1     -39.734  14.749  21.311  0.00  0.00     0.268 A 
ATOM      5  N   UNL d   1     -39.960  14.975  20.584  0.00  0.00    -0.253 N 
ATOM      6  C   UNL d   1     -39.625  14.630  19.936  0.00  0.00     0.182 A 
ATOM      7  S   UNL d   1     -38.309  13.291  20.975  0.00  0.00    -0.068 SA
ATOM      8  C   UNL d   1     -38.830  13.829  22.062  0.00  0.00     0.013 A 
ATOM      9  C   UNL d   1     -38.290  13.277  21.769  0.00  0.00     0.031 A 
ATOM     10  O   UNL d   1     -40.112  15.139  22.004  0.00  0.00    -0.267 OA
ATOM     11  C   UNL d   1     -38.815  13.819  22.849  0.00  0.00     0.001 A 
ATOM     12  C   UNL d   1     -37.940  12.922  22.434  0.00  0.00     0.006 A 
ATOM     13  C   UNL d   1     -38.254  13.246  23.059  0.00  0.00     0.001 A 
ENDROOT
BRANCH   6  14
ATOM     14  S   UNL d   1     -39.869  14.875  19.158  0.00  0.00    -0.044 SA
BRANCH  14  15
ATOM     15  C   UNL d   1     -39.313  14.765  18.528  0.00  0.00     0.099 C 
BRANCH  15  16
ATOM     16  C   UNL d   1     -39.598  14.884  17.733  0.00  0.00     0.272 C 
ATOM     17  N   UNL d   1     -39.202  15.352  17.186  0.00  0.00    -0.269 N 
ATOM     18  C   UNL d   1     -39.520  15.443  16.411  0.00  0.00     0.102 C 
ATOM     19  C   UNL d   1     -38.486  15.734  17.402  0.00  0.00     0.102 C 
ATOM     20  O   UNL d   1     -40.321  14.496  17.521  0.00  0.00    -0.266 OA
ENDBRANCH  15  16
ENDBRANCH  14  15
ENDBRANCH   6  14
BRANCH   5  21
ATOM     21  C   UNL d   1     -40.555  15.583  20.517  0.00  0.00     0.085 C 
BRANCH  21  22
ATOM     22  C   UNL d   1     -41.316  15.493  20.813  0.00  0.00     0.019 C 
ATOM     23  C   UNL d   1     -41.934  15.922  20.503  0.00  0.00     0.002 C 
ENDBRANCH  21  22
ENDBRANCH   5  21
TORSDOF 5
ENDMDL
