MODEL 1
REMARK VINA RESULT:      -9.3      0.000      0.000
REMARK  1 active torsions:
REMARK  status: ('A' for Active; 'I' for Inactive)
REMARK    1  A    between atoms: C_15  and  C_10 
ROOT
ATOM      1  C   UNL d   1     -46.429  12.393  23.117  0.00  0.00     0.111 A 
ATOM      2  C   UNL d   1     -47.830  12.643  23.205  0.00  0.00     0.062 A 
ATOM      3  C   UNL d   1     -47.721  13.369  22.868  0.00  0.00     0.105 A 
ATOM      4  C   UNL d   1     -46.321  13.120  22.780  0.00  0.00     0.213 A 
ATOM      5  C   UNL d   1     -47.182  12.147  23.332  0.00  0.00     0.018 A 
ATOM      6  O   UNL d   1     -46.964  13.613  22.653  0.00  0.00    -0.287 OA
ATOM      7  C   UNL d   1     -48.612  12.368  23.437  0.00  0.00     0.198 A 
ATOM      8  C   UNL d   1     -45.777  11.897  23.244  0.00  0.00     0.105 C 
ATOM      9  C   UNL d   1     -48.384  13.900  22.727  0.00  0.00     0.025 A 
ATOM     10  C   UNL d   1     -49.155  13.638  22.952  0.00  0.00     0.005 A 
ATOM     11  C   UNL d   1     -49.269  12.875  23.305  0.00  0.00     0.042 A 
ATOM     12  N   UNL d   1     -45.142  11.423  23.364  0.00  0.00    -0.191 NA
ATOM     13  O   UNL d   1     -48.696  11.805  23.698  0.00  0.00    -0.286 OA
ATOM     14  N   UNL d   1     -45.559  13.363  22.564  0.00  0.00    -0.120 N 
ATOM     15  C   UNL d   1     -47.328  11.376  23.694  0.00  0.00     0.001 C 
ENDROOT
BRANCH  10  16
ATOM     16  C   UNL d   1     -49.787  14.130  22.823  0.00  0.00     0.000 A 
ATOM     17  C   UNL d   1     -50.313  14.004  22.201  0.00  0.00     0.000 A 
ATOM     18  C   UNL d   1     -50.937  14.502  22.087  0.00  0.00     0.000 A 
ATOM     19  C   UNL d   1     -51.064  15.155  22.594  0.00  0.00     0.000 A 
ATOM     20  C   UNL d   1     -50.537  15.272  23.209  0.00  0.00     0.000 A 
ATOM     21  C   UNL d   1     -49.891  14.760  23.330  0.00  0.00     0.000 A 
ENDBRANCH  10  16
TORSDOF 1
ENDMDL
MODEL 2
REMARK VINA RESULT:      -8.4      1.947      4.293
REMARK  1 active torsions:
REMARK  status: ('A' for Active; 'I' for Inactive)
REMARK    1  A    between atoms: C_15  and  C_10 
ROOT
ATOM      1  C   UNL d   1     -49.906  14.579  23.080  0.00  0.00     0.111 A 
ATOM      2  C   UNL d   1     -48.544  14.174  22.974  0.00  0.00     0.062 A 
ATOM      3  C   UNL d   1     -48.743  13.435  23.231  0.00  0.00     0.105 A 
ATOM      4  C   UNL d   1     -50.105  13.840  23.337  0.00  0.00     0.213 A 
ATOM      5  C   UNL d   1     -49.125  14.754  22.896  0.00  0.00     0.018 A 
ATOM      6  O   UNL d   1     -49.528  13.262  23.416  0.00  0.00    -0.287 OA
ATOM      7  C   UNL d   1     -47.730  14.375  22.776  0.00  0.00     0.198 A 
ATOM      8  C   UNL d   1     -50.492  15.161  23.002  0.00  0.00     0.105 C 
ATOM      9  C   UNL d   1     -48.151  12.817  23.319  0.00  0.00     0.025 A 
ATOM     10  C   UNL d   1     -47.350  13.006  23.127  0.00  0.00     0.005 A 
ATOM     11  C   UNL d   1     -47.141  13.783  22.856  0.00  0.00     0.042 A 
ATOM     12  N   UNL d   1     -51.064  15.717  22.930  0.00  0.00    -0.191 NA
ATOM     13  O   UNL d   1     -47.575  14.949  22.576  0.00  0.00    -0.286 OA
ATOM     14  N   UNL d   1     -50.895  13.668  23.522  0.00  0.00    -0.120 N 
ATOM     15  C   UNL d   1     -48.882  15.536  22.618  0.00  0.00     0.001 C 
ENDROOT
BRANCH  10  16
ATOM     16  C   UNL d   1     -46.784  12.431  23.206  0.00  0.00     0.000 A 
ATOM     17  C   UNL d   1     -46.028  12.524  22.890  0.00  0.00     0.000 A 
ATOM     18  C   UNL d   1     -45.475  11.943  22.977  0.00  0.00     0.000 A 
ATOM     19  C   UNL d   1     -45.655  11.236  23.388  0.00  0.00     0.000 A 
ATOM     20  C   UNL d   1     -46.408  11.153  23.697  0.00  0.00     0.000 A 
ATOM     21  C   UNL d   1     -46.981  11.751  23.610  0.00  0.00     0.000 A 
ENDBRANCH  10  16
TORSDOF 1
ENDMDL
MODEL 3
REMARK VINA RESULT:      -8.0      1.722      3.998
REMARK  1 active torsions:
REMARK  status: ('A' for Active; 'I' for Inactive)
REMARK    1  A    between atoms: C_15  and  C_10 
ROOT
ATOM      1  C   UNL d   1     -49.745  14.604  22.840  0.00  0.00     0.111 A 
ATOM      2  C   UNL d   1     -49.154  13.338  23.122  0.00  0.00     0.062 A 
ATOM      3  C   UNL d   1     -48.420  13.659  23.022  0.00  0.00     0.105 A 
ATOM      4  C   UNL d   1     -49.011  14.925  22.740  0.00  0.00     0.213 A 
ATOM      5  C   UNL d   1     -49.826  13.810  23.031  0.00  0.00     0.018 A 
ATOM      6  O   UNL d   1     -48.342  14.457  22.830  0.00  0.00    -0.287 OA
ATOM      7  C   UNL d   1     -49.257  12.508  23.322  0.00  0.00     0.198 A 
ATOM      8  C   UNL d   1     -50.419  15.080  22.748  0.00  0.00     0.105 C 
ATOM      9  C   UNL d   1     -47.708  13.184  23.112  0.00  0.00     0.025 A 
ATOM     10  C   UNL d   1     -47.800  12.368  23.309  0.00  0.00     0.005 A 
ATOM     11  C   UNL d   1     -48.572  12.030  23.414  0.00  0.00     0.042 A 
ATOM     12  N   UNL d   1     -51.064  15.546  22.658  0.00  0.00    -0.191 NA
ATOM     13  O   UNL d   1     -49.827  12.259  23.400  0.00  0.00    -0.286 OA
ATOM     14  N   UNL d   1     -48.935  15.728  22.547  0.00  0.00    -0.120 N 
ATOM     15  C   UNL d   1     -50.598  13.439  23.144  0.00  0.00     0.001 C 
ENDROOT
BRANCH  10  16
ATOM     16  C   UNL d   1     -47.136  11.910  23.397  0.00  0.00     0.000 A 
ATOM     17  C   UNL d   1     -47.185  11.117  23.615  0.00  0.00     0.000 A 
ATOM     18  C   UNL d   1     -46.515  10.674  23.698  0.00  0.00     0.000 A 
ATOM     19  C   UNL d   1     -45.760  11.009  23.566  0.00  0.00     0.000 A 
ATOM     20  C   UNL d   1     -45.722  11.797  23.350  0.00  0.00     0.000 A 
ATOM     21  C   UNL d   1     -46.411  12.257  23.263  0.00  0.00     0.000 A 
ENDBRANCH  10  16
TORSDOF 1
ENDMDL
MODEL 4
REMARK VINA RESULT:      -7.3      1.827      4.062
REMARK  1 active torsions:
REMARK  status: ('A' for Active; 'I' for Inactive)
REMARK    1  A    between atoms: C_15  and  C_10 
ROOT
ATOM      1  C   UNL d   1     -49.508  14.565  22.893  0.00  0.00     0.111 A 
ATOM      2  C   UNL d   1     -48.504  13.555  22.856  0.00  0.00     0.062 A 
ATOM      3  C   UNL d   1     -47.946  14.116  22.694  0.00  0.00     0.105 A 
ATOM      4  C   UNL d   1     -48.950  15.126  22.731  0.00  0.00     0.213 A 
ATOM      5  C   UNL d   1     -49.292  13.775  22.957  0.00  0.00     0.018 A 
ATOM      6  O   UNL d   1     -48.166  14.908  22.630  0.00  0.00    -0.287 OA
ATOM      7  C   UNL d   1     -48.295  12.723  22.927  0.00  0.00     0.198 A 
ATOM      8  C   UNL d   1     -50.301  14.789  22.994  0.00  0.00     0.105 C 
ATOM      9  C   UNL d   1     -47.119  13.906  22.585  0.00  0.00     0.025 A 
ATOM     10  C   UNL d   1     -46.905  13.091  22.653  0.00  0.00     0.005 A 
ATOM     11  C   UNL d   1     -47.491  12.502  22.824  0.00  0.00     0.042 A 
ATOM     12  N   UNL d   1     -51.064  15.013  23.091  0.00  0.00    -0.191 NA
ATOM     13  O   UNL d   1     -48.728  12.287  23.053  0.00  0.00    -0.286 OA
ATOM     14  N   UNL d   1     -49.174  15.922  22.667  0.00  0.00    -0.120 N 
ATOM     15  C   UNL d   1     -49.867  13.153  23.130  0.00  0.00     0.001 C 
ENDROOT
BRANCH  10  16
ATOM     16  C   UNL d   1     -46.128  12.882  22.553  0.00  0.00     0.000 A 
ATOM     17  C   UNL d   1     -45.780  12.286  23.004  0.00  0.00     0.000 A 
ATOM     18  C   UNL d   1     -45.005  12.089  22.892  0.00  0.00     0.000 A 
ATOM     19  C   UNL d   1     -44.540  12.482  22.318  0.00  0.00     0.000 A 
ATOM     20  C   UNL d   1     -44.895  13.071  21.875  0.00  0.00     0.000 A 
ATOM     21  C   UNL d   1     -45.694  13.278  21.988  0.00  0.00     0.000 A 
ENDBRANCH  10  16
TORSDOF 1
ENDMDL
MODEL 5
REMARK VINA RESULT:      -7.0      1.133      1.739
REMARK  1 active torsions:
REMARK  status: ('A' for Active; 'I' for Inactive)
REMARK    1  A    between atoms: C_15  and  C_10 
ROOT
ATOM      1  C   UNL d   1     -44.825  12.272  22.517  0.00  0.00     0.111 A 
ATOM      2  C   UNL d   1     -46.164  12.563  22.906  0.00  0.00     0.062 A 
ATOM      3  C   UNL d   1     -46.137  13.252  22.485  0.00  0.00     0.105 A 
ATOM      4  C   UNL d   1     -44.797  12.961  22.096  0.00  0.00     0.213 A 
ATOM      5  C   UNL d   1     -45.506  12.065  22.925  0.00  0.00     0.018 A 
ATOM      6  O   UNL d   1     -45.450  13.456  22.076  0.00  0.00    -0.287 OA
ATOM      7  C   UNL d   1     -46.871  12.331  23.339  0.00  0.00     0.198 A 
ATOM      8  C   UNL d   1     -44.162  11.773  22.535  0.00  0.00     0.105 C 
ATOM      9  C   UNL d   1     -46.812  13.783  22.452  0.00  0.00     0.025 A 
ATOM     10  C   UNL d   1     -47.510  13.563  22.875  0.00  0.00     0.005 A 
ATOM     11  C   UNL d   1     -47.539  12.839  23.317  0.00  0.00     0.042 A 
ATOM     12  N   UNL d   1     -43.517  11.297  22.548  0.00  0.00    -0.191 NA
ATOM     13  O   UNL d   1     -46.892  11.796  23.666  0.00  0.00    -0.286 OA
ATOM     14  N   UNL d   1     -44.106  13.164  21.686  0.00  0.00    -0.120 N 
ATOM     15  C   UNL d   1     -45.565  11.335  23.384  0.00  0.00     0.001 C 
ENDROOT
BRANCH  10  16
ATOM     16  C   UNL d   1     -48.153  14.057  22.852  0.00  0.00     0.000 A 
ATOM     17  C   UNL d   1     -48.169  14.722  22.366  0.00  0.00     0.000 A 
ATOM     18  C   UNL d   1     -48.816  15.204  22.353  0.00  0.00     0.000 A 
ATOM     19  C   UNL d   1     -49.483  15.039  22.831  0.00  0.00     0.000 A 
ATOM     20  C   UNL d   1     -49.458  14.376  23.311  0.00  0.00     0.000 A 
ATOM     21  C   UNL d   1     -48.791  13.877  23.326  0.00  0.00     0.000 A 
ENDBRANCH  10  16
TORSDOF 1
ENDMDL
MODEL 6
REMARK VINA RESULT:      -6.7      8.797      9.790
REMARK  1 active torsions:
REMARK  status: ('A' for Active; 'I' for Inactive)
REMARK    1  A    between atoms: C_15  and  C_10 
ROOT
ATOM      1  C   UNL d   1     -40.517  14.920  18.019  0.00  0.00     0.111 A 
ATOM      2  C   UNL d   1     -40.298  15.066  19.419  0.00  0.00     0.062 A 
ATOM      3  C   UNL d   1     -39.742  14.480  19.393  0.00  0.00     0.105 A 
ATOM      4  C   UNL d   1     -39.962  14.334  17.993  0.00  0.00     0.213 A 
ATOM      5  C   UNL d   1     -40.691  15.292  18.730  0.00  0.00     0.018 A 
ATOM      6  O   UNL d   1     -39.570  14.109  18.677  0.00  0.00    -0.287 OA
ATOM      7  C   UNL d   1     -40.492  15.466  20.156  0.00  0.00     0.198 A 
ATOM      8  C   UNL d   1     -40.911  15.146  17.325  0.00  0.00     0.105 C 
ATOM      9  C   UNL d   1     -39.322  14.231  20.101  0.00  0.00     0.025 A 
ATOM     10  C   UNL d   1     -39.507  14.618  20.829  0.00  0.00     0.005 A 
ATOM     11  C   UNL d   1     -40.091  15.234  20.856  0.00  0.00     0.042 A 
ATOM     12  N   UNL d   1     -41.288  15.358  16.649  0.00  0.00    -0.191 NA
ATOM     13  O   UNL d   1     -40.924  15.921  20.176  0.00  0.00    -0.286 OA
ATOM     14  N   UNL d   1     -39.790  13.963  17.272  0.00  0.00    -0.120 N 
ATOM     15  C   UNL d   1     -41.280  15.922  18.788  0.00  0.00     0.001 C 
ENDROOT
BRANCH  10  16
ATOM     16  C   UNL d   1     -39.117  14.391  21.502  0.00  0.00     0.000 A 
ATOM     17  C   UNL d   1     -38.441  14.785  21.763  0.00  0.00     0.000 A 
ATOM     18  C   UNL d   1     -38.064  14.547  22.435  0.00  0.00     0.000 A 
ATOM     19  C   UNL d   1     -38.348  13.899  22.882  0.00  0.00     0.000 A 
ATOM     20  C   UNL d   1     -39.019  13.514  22.615  0.00  0.00     0.000 A 
ATOM     21  C   UNL d   1     -39.412  13.757  21.921  0.00  0.00     0.000 A 
ENDBRANCH  10  16
TORSDOF 1
ENDMDL
MODEL 7
REMARK VINA RESULT:      -6.7      8.669     10.377
REMARK  1 active torsions:
REMARK  status: ('A' for Active; 'I' for Inactive)
REMARK    1  A    between atoms: C_15  and  C_10 
ROOT
ATOM      1  C   UNL d   1     -38.624  14.496  16.502  0.00  0.00     0.111 A 
ATOM      2  C   UNL d   1     -39.135  14.321  17.821  0.00  0.00     0.062 A 
ATOM      3  C   UNL d   1     -39.286  15.113  17.867  0.00  0.00     0.105 A 
ATOM      4  C   UNL d   1     -38.774  15.288  16.549  0.00  0.00     0.213 A 
ATOM      5  C   UNL d   1     -38.802  14.005  17.135  0.00  0.00     0.018 A 
ATOM      6  O   UNL d   1     -39.105  15.604  17.230  0.00  0.00    -0.287 OA
ATOM      7  C   UNL d   1     -39.316  13.791  18.475  0.00  0.00     0.198 A 
ATOM      8  C   UNL d   1     -38.289  14.180  15.812  0.00  0.00     0.105 C 
ATOM      9  C   UNL d   1     -39.633  15.462  18.573  0.00  0.00     0.025 A 
ATOM     10  C   UNL d   1     -39.813  14.949  19.220  0.00  0.00     0.005 A 
ATOM     11  C   UNL d   1     -39.655  14.116  19.171  0.00  0.00     0.042 A 
ATOM     12  N   UNL d   1     -37.965  13.883  15.142  0.00  0.00    -0.191 NA
ATOM     13  O   UNL d   1     -39.199  13.176  18.438  0.00  0.00    -0.286 OA
ATOM     14  N   UNL d   1     -38.592  15.780  15.906  0.00  0.00    -0.120 N 
ATOM     15  C   UNL d   1     -38.652  13.153  17.114  0.00  0.00     0.001 C 
ENDROOT
BRANCH  10  16
ATOM     16  C   UNL d   1     -40.140  15.266  19.891  0.00  0.00     0.000 A 
ATOM     17  C   UNL d   1     -40.956  15.286  20.004  0.00  0.00     0.000 A 
ATOM     18  C   UNL d   1     -41.267  15.605  20.678  0.00  0.00     0.000 A 
ATOM     19  C   UNL d   1     -40.771  15.922  21.272  0.00  0.00     0.000 A 
ATOM     20  C   UNL d   1     -39.962  15.898  21.150  0.00  0.00     0.000 A 
ATOM     21  C   UNL d   1     -39.637  15.569  20.456  0.00  0.00     0.000 A 
ENDBRANCH  10  16
TORSDOF 1
ENDMDL
MODEL 8
REMARK VINA RESULT:      -6.7      8.499     10.288
REMARK  1 active torsions:
REMARK  status: ('A' for Active; 'I' for Inactive)
REMARK    1  A    between atoms: C_15  and  C_10 
ROOT
ATOM      1  C   UNL d   1     -38.651  14.039  16.543  0.00  0.00     0.111 A 
ATOM      2  C   UNL d   1     -39.469  14.794  17.432  0.00  0.00     0.062 A 
ATOM      3  C   UNL d   1     -39.334  14.253  18.016  0.00  0.00     0.105 A 
ATOM      4  C   UNL d   1     -38.516  13.498  17.127  0.00  0.00     0.213 A 
ATOM      5  C   UNL d   1     -39.128  14.691  16.687  0.00  0.00     0.018 A 
ATOM      6  O   UNL d   1     -38.854  13.599  17.867  0.00  0.00    -0.287 OA
ATOM      7  C   UNL d   1     -39.966  15.484  17.566  0.00  0.00     0.198 A 
ATOM      8  C   UNL d   1     -38.307  13.933  15.795  0.00  0.00     0.105 C 
ATOM      9  C   UNL d   1     -39.681  14.344  18.798  0.00  0.00     0.025 A 
ATOM     10  C   UNL d   1     -40.170  15.018  18.938  0.00  0.00     0.005 A 
ATOM     11  C   UNL d   1     -40.312  15.587  18.324  0.00  0.00     0.042 A 
ATOM     12  N   UNL d   1     -37.971  13.824  15.076  0.00  0.00    -0.191 NA
ATOM     13  O   UNL d   1     -40.072  15.904  17.112  0.00  0.00    -0.286 OA
ATOM     14  N   UNL d   1     -38.033  12.841  16.975  0.00  0.00    -0.120 N 
ATOM     15  C   UNL d   1     -39.291  15.286  16.082  0.00  0.00     0.001 C 
ENDROOT
BRANCH  10  16
ATOM     16  C   UNL d   1     -40.503  15.113  19.672  0.00  0.00     0.000 A 
ATOM     17  C   UNL d   1     -40.498  15.843  20.056  0.00  0.00     0.000 A 
ATOM     18  C   UNL d   1     -40.833  15.922  20.786  0.00  0.00     0.000 A 
ATOM     19  C   UNL d   1     -41.191  15.269  21.168  0.00  0.00     0.000 A 
ATOM     20  C   UNL d   1     -41.191  14.549  20.778  0.00  0.00     0.000 A 
ATOM     21  C   UNL d   1     -40.846  14.464  20.025  0.00  0.00     0.000 A 
ENDBRANCH  10  16
TORSDOF 1
ENDMDL
MODEL 9
REMARK VINA RESULT:      -6.5      8.689     10.722
REMARK  1 active torsions:
REMARK  status: ('A' for Active; 'I' for Inactive)
REMARK    1  A    between atoms: C_15  and  C_10 
ROOT
ATOM      1  C   UNL d   1     -39.569  15.262  20.331  0.00  0.00     0.111 A 
ATOM      2  C   UNL d   1     -39.675  14.659  19.044  0.00  0.00     0.062 A 
ATOM      3  C   UNL d   1     -38.916  14.879  18.878  0.00  0.00     0.105 A 
ATOM      4  C   UNL d   1     -38.810  15.482  20.165  0.00  0.00     0.213 A 
ATOM      5  C   UNL d   1     -40.009  14.849  19.774  0.00  0.00     0.018 A 
ATOM      6  O   UNL d   1     -38.476  15.294  19.439  0.00  0.00    -0.287 OA
ATOM      7  C   UNL d   1     -40.151  14.226  18.472  0.00  0.00     0.198 A 
ATOM      8  C   UNL d   1     -39.903  15.454  21.065  0.00  0.00     0.105 C 
ATOM      9  C   UNL d   1     -38.550  14.690  18.123  0.00  0.00     0.025 A 
ATOM     10  C   UNL d   1     -39.011  14.265  17.556  0.00  0.00     0.005 A 
ATOM     11  C   UNL d   1     -39.809  14.034  17.730  0.00  0.00     0.042 A 
ATOM     12  N   UNL d   1     -40.218  15.644  21.778  0.00  0.00    -0.191 NA
ATOM     13  O   UNL d   1     -40.741  14.055  18.601  0.00  0.00    -0.286 OA
ATOM     14  N   UNL d   1     -38.370  15.899  20.731  0.00  0.00    -0.120 N 
ATOM     15  C   UNL d   1     -40.824  14.601  19.923  0.00  0.00     0.001 C 
ENDROOT
BRANCH  10  16
ATOM     16  C   UNL d   1     -38.676  14.081  16.840  0.00  0.00     0.000 A 
ATOM     17  C   UNL d   1     -38.724  14.595  16.197  0.00  0.00     0.000 A 
ATOM     18  C   UNL d   1     -38.386  14.398  15.491  0.00  0.00     0.000 A 
ATOM     19  C   UNL d   1     -37.982  13.671  15.396  0.00  0.00     0.000 A 
ATOM     20  C   UNL d   1     -37.940  13.168  16.040  0.00  0.00     0.000 A 
ATOM     21  C   UNL d   1     -38.287  13.369  16.771  0.00  0.00     0.000 A 
ENDBRANCH  10  16
TORSDOF 1
ENDMDL
