MODEL 1
REMARK VINA RESULT:      -2.8      0.000      0.000
REMARK  4 active torsions:
REMARK  status: ('A' for Active; 'I' for Inactive)
REMARK    1  A    between atoms: N_2  and  C_1 
REMARK       I    between atoms: C_6  and  N_2 
REMARK    2  A    between atoms: C_16  and  N_3 
REMARK    3  A    between atoms: C_8  and  C_6 
REMARK    4  A    between atoms: O_19  and  C_12 
ROOT
ATOM      1  C   UNL d   1      58.297   0.677  32.570  0.00  0.00    -0.031 C 
ATOM      2  C   UNL d   1      59.092   0.682  32.826  0.00  0.00    -0.008 C 
ATOM      3  C   UNL d   1      57.509   0.675  32.316  0.00  0.00     0.133 C 
ENDROOT
BRANCH   3   4
ATOM      4  N   UNL d   1      57.131  -0.052  32.135  0.00  0.00    -0.276 N 
ATOM      5  C   UNL d   1      57.241  -0.516  31.453  0.00  0.00     0.183 A 
ATOM      6  S   UNL d   1      56.773  -1.165  31.502  0.00  0.00    -0.048 SA
ATOM      7  C   UNL d   1      56.349  -1.139  32.215  0.00  0.00     0.050 A 
ATOM      8  C   UNL d   1      55.805  -1.640  32.547  0.00  0.00     0.008 A 
ATOM      9  C   UNL d   1      56.580  -0.444  32.598  0.00  0.00     0.095 A 
ATOM     10  C   UNL d   1      55.467  -1.466  33.282  0.00  0.00     0.003 A 
ATOM     11  C   UNL d   1      55.700  -0.758  33.676  0.00  0.00     0.026 A 
ATOM     12  C   UNL d   1      56.245  -0.267  33.331  0.00  0.00     0.111 A 
BRANCH   5  13
ATOM     13  N   UNL d   1      57.762  -0.339  30.805  0.00  0.00    -0.183 NA
ATOM     14  C   UNL d   1      57.896  -0.905  30.231  0.00  0.00     0.287 C 
ATOM     15  O   UNL d   1      57.531  -1.646  30.272  0.00  0.00    -0.265 OA
BRANCH  14  16
ATOM     16  C   UNL d   1      58.401  -0.733  29.602  0.00  0.00     0.087 A 
ATOM     17  S   UNL d   1      58.281  -0.157  29.002  0.00  0.00    -0.082 SA
ATOM     18  C   UNL d   1      58.920  -0.175  28.494  0.00  0.00     0.036 A 
ATOM     19  C   UNL d   1      59.442  -0.750  28.759  0.00  0.00     0.008 A 
ATOM     20  C   UNL d   1      59.126  -1.091  29.435  0.00  0.00     0.012 A 
ENDBRANCH  14  16
ENDBRANCH   5  13
BRANCH  12  21
ATOM     21  O   UNL d   1      56.469   0.436  33.735  0.00  0.00    -0.327 OA
ATOM     22  C   UNL d   1      56.036   0.682  34.395  0.00  0.00     0.181 C 
ENDBRANCH  12  21
ENDBRANCH   3   4
TORSDOF 4
ENDMDL
MODEL 2
REMARK VINA RESULT:      -1.9      1.367      4.701
REMARK  4 active torsions:
REMARK  status: ('A' for Active; 'I' for Inactive)
REMARK    1  A    between atoms: N_2  and  C_1 
REMARK       I    between atoms: C_6  and  N_2 
REMARK    2  A    between atoms: C_16  and  N_3 
REMARK    3  A    between atoms: C_8  and  C_6 
REMARK    4  A    between atoms: O_19  and  C_12 
ROOT
ATOM      1  C   UNL d   1      58.388  -2.432  29.560  0.00  0.00    -0.031 C 
ATOM      2  C   UNL d   1      57.899  -2.944  29.116  0.00  0.00    -0.008 C 
ATOM      3  C   UNL d   1      58.872  -1.925  30.000  0.00  0.00     0.133 C 
ENDROOT
BRANCH   3   4
ATOM      4  N   UNL d   1      58.847  -1.098  29.861  0.00  0.00    -0.276 N 
ATOM      5  C   UNL d   1      58.313  -0.552  30.190  0.00  0.00     0.183 A 
ATOM      6  S   UNL d   1      58.484   0.179  29.910  0.00  0.00    -0.048 SA
ATOM      7  C   UNL d   1      59.131   0.127  29.393  0.00  0.00     0.050 A 
ATOM      8  C   UNL d   1      59.532   0.682  28.960  0.00  0.00     0.008 A 
ATOM      9  C   UNL d   1      59.347  -0.670  29.371  0.00  0.00     0.095 A 
ATOM     10  C   UNL d   1      60.171   0.461  28.483  0.00  0.00     0.003 A 
ATOM     11  C   UNL d   1      60.395  -0.352  28.458  0.00  0.00     0.026 A 
ATOM     12  C   UNL d   1      59.984  -0.894  28.897  0.00  0.00     0.111 A 
BRANCH   5  13
ATOM     13  N   UNL d   1      57.685  -0.730  30.734  0.00  0.00    -0.183 NA
ATOM     14  C   UNL d   1      57.549  -0.232  31.369  0.00  0.00     0.287 C 
ATOM     15  O   UNL d   1      58.013   0.442  31.487  0.00  0.00    -0.265 OA
BRANCH  14  16
ATOM     16  C   UNL d   1      56.940  -0.406  31.897  0.00  0.00     0.087 A 
ATOM     17  S   UNL d   1      56.693   0.059  32.552  0.00  0.00    -0.082 SA
ATOM     18  C   UNL d   1      56.073  -0.322  32.921  0.00  0.00     0.036 A 
ATOM     19  C   UNL d   1      55.922  -1.019  32.514  0.00  0.00     0.008 A 
ATOM     20  C   UNL d   1      56.451  -1.070  31.890  0.00  0.00     0.012 A 
ENDBRANCH  14  16
ENDBRANCH   5  13
BRANCH  12  21
ATOM     21  O   UNL d   1      60.216  -1.701  28.863  0.00  0.00    -0.327 OA
ATOM     22  C   UNL d   1      60.933  -1.904  28.503  0.00  0.00     0.181 C 
ENDBRANCH  12  21
ENDBRANCH   3   4
TORSDOF 4
ENDMDL
