MODEL 1
REMARK VINA RESULT:      -3.4      0.000      0.000
REMARK  4 active torsions:
REMARK  status: ('A' for Active; 'I' for Inactive)
REMARK    1  A    between atoms: C_8  and  N_1 
REMARK    2  A    between atoms: N_7  and  C_4 
REMARK    3  A    between atoms: N_6  and  C_10 
REMARK    4  A    between atoms: C_15  and  N_7 
ROOT
ATOM      1  N   UNL d   1      31.605  17.337 -23.995  0.00  0.00    -0.241 N 
ATOM      2  C   UNL d   1      31.613  18.004 -24.456  0.00  0.00     0.269 A 
ATOM      3  C   UNL d   1      32.207  17.404 -23.444  0.00  0.00     0.285 A 
ATOM      4  C   UNL d   1      32.573  18.131 -23.592  0.00  0.00     0.142 A 
ATOM      5  C   UNL d   1      32.216  18.482 -24.192  0.00  0.00     0.085 A 
ATOM      6  O   UNL d   1      31.102  18.196 -25.097  0.00  0.00    -0.267 OA
ATOM      7  O   UNL d   1      32.410  16.845 -22.850  0.00  0.00    -0.265 OA
ENDROOT
BRANCH   4   8
ATOM      8  N   UNL d   1      33.241  18.481 -23.174  0.00  0.00    -0.241 NA
BRANCH   8   9
ATOM      9  C   UNL d   1      33.183  19.222 -22.803  0.00  0.00     0.082 A 
ATOM     10  C   UNL d   1      33.064  19.252 -21.982  0.00  0.00     0.021 A 
ATOM     11  C   UNL d   1      33.007  20.001 -21.617  0.00  0.00     0.019 A 
ATOM     12  C   UNL d   1      33.066  20.684 -22.051  0.00  0.00     0.064 A 
ATOM     13  C   UNL d   1      33.182  20.660 -22.850  0.00  0.00     0.019 A 
ATOM     14  C   UNL d   1      33.241  19.924 -23.232  0.00  0.00     0.021 A 
BRANCH  12  15
ATOM     15  N   UNL d   1      33.006  21.418 -21.666  0.00  0.00    -0.300 N 
ATOM     16  C   UNL d   1      33.196  22.107 -22.079  0.00  0.00     0.107 A 
ATOM     17  C   UNL d   1      33.133  22.832 -21.687  0.00  0.00     0.142 A 
ATOM     18  O   UNL d   1      32.888  22.857 -20.906  0.00  0.00    -0.300 OA
ATOM     19  C   UNL d   1      32.706  22.165 -20.518  0.00  0.00     0.142 A 
ATOM     20  C   UNL d   1      32.761  21.424 -20.889  0.00  0.00     0.107 A 
ENDBRANCH  12  15
ENDBRANCH   8   9
ENDBRANCH   4   8
BRANCH   1  21
ATOM     21  C   UNL d   1      31.063  16.746 -24.118  0.00  0.00     0.070 A 
ATOM     22  C   UNL d   1      31.244  16.087 -24.610  0.00  0.00     0.018 A 
ATOM     23  C   UNL d   1      30.691  15.493 -24.730  0.00  0.00     0.002 A 
ATOM     24  C   UNL d   1      29.948  15.544 -24.364  0.00  0.00     0.000 A 
ATOM     25  C   UNL d   1      29.767  16.178 -23.888  0.00  0.00     0.002 A 
ATOM     26  C   UNL d   1      30.324  16.775 -23.768  0.00  0.00     0.018 A 
ENDBRANCH   1  21
TORSDOF 4
ENDMDL
MODEL 2
REMARK VINA RESULT:      -2.9      1.149      5.544
REMARK  4 active torsions:
REMARK  status: ('A' for Active; 'I' for Inactive)
REMARK    1  A    between atoms: C_8  and  N_1 
REMARK    2  A    between atoms: N_7  and  C_4 
REMARK    3  A    between atoms: N_6  and  C_10 
REMARK    4  A    between atoms: C_15  and  N_7 
ROOT
ATOM      1  N   UNL d   1      32.834  21.265 -21.703  0.00  0.00    -0.241 N 
ATOM      2  C   UNL d   1      32.936  20.558 -21.319  0.00  0.00     0.269 A 
ATOM      3  C   UNL d   1      32.931  21.132 -22.506  0.00  0.00     0.285 A 
ATOM      4  C   UNL d   1      33.092  20.325 -22.586  0.00  0.00     0.142 A 
ATOM      5  C   UNL d   1      33.094  19.990 -21.880  0.00  0.00     0.085 A 
ATOM      6  O   UNL d   1      32.891  20.408 -20.492  0.00  0.00    -0.267 OA
ATOM      7  O   UNL d   1      32.876  21.702 -23.120  0.00  0.00    -0.265 OA
ENDROOT
BRANCH   4   8
ATOM      8  N   UNL d   1      33.241  19.886 -23.313  0.00  0.00    -0.241 NA
BRANCH   8   9
ATOM      9  C   UNL d   1      32.907  19.137 -23.445  0.00  0.00     0.082 A 
ATOM     10  C   UNL d   1      32.259  19.071 -23.960  0.00  0.00     0.021 A 
ATOM     11  C   UNL d   1      31.930  18.314 -24.087  0.00  0.00     0.019 A 
ATOM     12  C   UNL d   1      32.233  17.658 -23.719  0.00  0.00     0.064 A 
ATOM     13  C   UNL d   1      32.863  17.717 -23.218  0.00  0.00     0.019 A 
ATOM     14  C   UNL d   1      33.205  18.461 -23.078  0.00  0.00     0.021 A 
BRANCH  12  15
ATOM     15  N   UNL d   1      31.888  16.916 -23.861  0.00  0.00    -0.300 N 
ATOM     16  C   UNL d   1      32.197  16.436 -24.459  0.00  0.00     0.107 A 
ATOM     17  C   UNL d   1      31.847  15.699 -24.593  0.00  0.00     0.142 A 
ATOM     18  O   UNL d   1      31.209  15.458 -24.139  0.00  0.00    -0.300 OA
ATOM     19  C   UNL d   1      30.921  15.947 -23.556  0.00  0.00     0.142 A 
ATOM     20  C   UNL d   1      31.254  16.692 -23.401  0.00  0.00     0.107 A 
ENDBRANCH  12  15
ENDBRANCH   8   9
ENDBRANCH   4   8
BRANCH   1  21
ATOM     21  C   UNL d   1      32.667  21.946 -21.295  0.00  0.00     0.070 A 
ATOM     22  C   UNL d   1      31.900  22.084 -20.977  0.00  0.00     0.018 A 
ATOM     23  C   UNL d   1      31.739  22.776 -20.565  0.00  0.00     0.002 A 
ATOM     24  C   UNL d   1      32.337  23.341 -20.463  0.00  0.00     0.000 A 
ATOM     25  C   UNL d   1      33.080  23.214 -20.768  0.00  0.00     0.002 A 
ATOM     26  C   UNL d   1      33.241  22.518 -21.182  0.00  0.00     0.018 A 
ENDBRANCH   1  21
TORSDOF 4
ENDMDL
