MODEL 1
REMARK VINA RESULT:      31.2      0.000      0.000
REMARK  5 active torsions:
REMARK  status: ('A' for Active; 'I' for Inactive)
REMARK    1  A    between atoms: C_3  and  S_1 
REMARK    2  A    between atoms: N_2  and  C_4 
REMARK    3  A    between atoms: N_5  and  C_16 
REMARK    4  A    between atoms: C_11  and  N_5 
REMARK    5  A    between atoms: C_17  and  C_11 
ROOT
ATOM      1  N   UNL d   1      12.893  12.219  -3.451  0.00  0.00    -0.244 NA
ENDROOT
BRANCH   1   2
ATOM      2  C   UNL d   1      13.365  12.134  -2.774  0.00  0.00     0.082 A 
ATOM      3  C   UNL d   1      14.136  11.882  -2.835  0.00  0.00     0.020 A 
ATOM      4  C   UNL d   1      14.607  11.797  -2.162  0.00  0.00     0.015 A 
ATOM      5  C   UNL d   1      14.277  11.973  -1.428  0.00  0.00     0.107 A 
ATOM      6  C   UNL d   1      13.506  12.224  -1.367  0.00  0.00     0.015 A 
ATOM      7  C   UNL d   1      13.035  12.310  -2.038  0.00  0.00     0.020 A 
BRANCH   5   8
ATOM      8  S   UNL d   1      14.749  11.889  -0.744  0.00  0.00     0.302 S 
ATOM      9  O   UNL d   1      14.063  11.866  -0.278  0.00  0.00    -0.197 OA
ATOM     10  O   UNL d   1      15.207  11.805  -0.060  0.00  0.00    -0.197 OA
ATOM     11  N   UNL d   1      15.427  11.911  -1.208  0.00  0.00    -0.043 N 
ENDBRANCH   5   8
ENDBRANCH   1   2
BRANCH   1  12
ATOM     12  C   UNL d   1      13.227  12.402  -4.169  0.00  0.00     0.099 C 
BRANCH  12  13
ATOM     13  C   UNL d   1      13.348  13.188  -4.397  0.00  0.00     0.019 A 
ATOM     14  C   UNL d   1      12.954  13.788  -3.966  0.00  0.00     0.003 A 
ATOM     15  C   UNL d   1      13.074  14.575  -4.194  0.00  0.00     0.024 A 
ATOM     16  C   UNL d   1      13.577  14.768  -4.838  0.00  0.00     0.127 A 
ATOM     17  C   UNL d   1      13.951  14.171  -5.243  0.00  0.00     0.024 A 
ATOM     18  C   UNL d   1      13.851  13.381  -5.041  0.00  0.00     0.003 A 
BRANCH  16  19
ATOM     19  N   UNL d   1      13.707  15.546  -5.077  0.00  0.00    -0.114 N 
ATOM     20  O   UNL d   1      14.126  16.066  -4.574  0.00  0.00    -0.532 OA
ATOM     21  O   UNL d   1      13.422  15.803  -5.812  0.00  0.00    -0.532 OA
ENDBRANCH  16  19
ENDBRANCH  12  13
ENDBRANCH   1  12
TORSDOF 5
ENDMDL
