MODEL 1
REMARK VINA RESULT:      -8.2      0.000      0.000
REMARK  5 active torsions:
REMARK  status: ('A' for Active; 'I' for Inactive)
REMARK    1  A    between atoms: C_11  and  N_2 
REMARK    2  A    between atoms: C_6  and  O_13 
REMARK    3  A    between atoms: C_12  and  C_7 
REMARK    4  A    between atoms: C_16  and  C_11 
REMARK    5  A    between atoms: O_13  and  C_16 
ROOT
ATOM      1  C   UNL d   1     -48.389  13.473  22.428  0.00  0.00     0.142 C 
ENDROOT
BRANCH   1   2
ATOM      2  O   UNL d   1     -47.600  13.294  22.280  0.00  0.00    -0.304 OA
BRANCH   2   3
ATOM      3  C   UNL d   1     -47.230  12.701  22.718  0.00  0.00     0.100 A 
ATOM      4  C   UNL d   1     -46.426  12.753  22.884  0.00  0.00     0.023 A 
ATOM      5  C   UNL d   1     -46.050  12.168  23.319  0.00  0.00     0.002 A 
ATOM      6  C   UNL d   1     -46.489  11.515  23.593  0.00  0.00     0.000 A 
ATOM      7  C   UNL d   1     -47.296  11.461  23.427  0.00  0.00     0.002 A 
ATOM      8  C   UNL d   1     -47.667  12.054  22.989  0.00  0.00     0.025 A 
ATOM      9  C   UNL d   1     -47.730  10.817  23.698  0.00  0.00     0.000 C 
BRANCH   4  10
ATOM     10  C   UNL d   1     -45.993  13.400  22.611  0.00  0.00     0.002 C 
ATOM     11  C   UNL d   1     -46.100  14.147  22.947  0.00  0.00     0.000 C 
ATOM     12  C   UNL d   1     -45.448  13.308  21.998  0.00  0.00     0.000 C 
ENDBRANCH   4  10
ENDBRANCH   2   3
ENDBRANCH   1   2
BRANCH   1  13
ATOM     13  C   UNL d   1     -48.810  13.930  21.886  0.00  0.00     0.112 C 
BRANCH  13  14
ATOM     14  N   UNL d   1     -49.527  14.264  22.104  0.00  0.00    -0.249 N 
ATOM     15  C   UNL d   1     -50.181  13.982  21.673  0.00  0.00     0.378 A 
ATOM     16  O   UNL d   1     -50.864  14.362  21.947  0.00  0.00    -0.258 OA
ATOM     17  O   UNL d   1     -50.146  13.417  21.074  0.00  0.00    -0.237 OA
ATOM     18  C   UNL d   1     -50.635  14.887  22.555  0.00  0.00     0.121 A 
ATOM     19  C   UNL d   1     -51.064  15.409  23.031  0.00  0.00     0.026 A 
ATOM     20  C   UNL d   1     -49.810  14.823  22.648  0.00  0.00     0.092 A 
ATOM     21  C   UNL d   1     -50.677  15.864  23.595  0.00  0.00     0.002 A 
ATOM     22  C   UNL d   1     -49.859  15.801  23.687  0.00  0.00     0.002 A 
ATOM     23  C   UNL d   1     -49.422  15.281  23.216  0.00  0.00     0.020 A 
ENDBRANCH  13  14
ENDBRANCH   1  13
TORSDOF 5
ENDMDL
MODEL 2
REMARK VINA RESULT:      -8.0      1.212      4.443
REMARK  5 active torsions:
REMARK  status: ('A' for Active; 'I' for Inactive)
REMARK    1  A    between atoms: C_11  and  N_2 
REMARK    2  A    between atoms: C_6  and  O_13 
REMARK    3  A    between atoms: C_12  and  C_7 
REMARK    4  A    between atoms: C_16  and  C_11 
REMARK    5  A    between atoms: O_13  and  C_16 
ROOT
ATOM      1  C   UNL d   1     -48.184  13.595  22.940  0.00  0.00     0.142 C 
ENDROOT
BRANCH   1   2
ATOM      2  O   UNL d   1     -48.783  14.156  22.981  0.00  0.00    -0.304 OA
BRANCH   2   3
ATOM      3  C   UNL d   1     -49.497  14.016  22.591  0.00  0.00     0.100 A 
ATOM      4  C   UNL d   1     -50.080  14.595  22.578  0.00  0.00     0.023 A 
ATOM      5  C   UNL d   1     -50.792  14.464  22.194  0.00  0.00     0.002 A 
ATOM      6  C   UNL d   1     -50.923  13.735  21.812  0.00  0.00     0.000 A 
ATOM      7  C   UNL d   1     -50.339  13.152  21.824  0.00  0.00     0.002 A 
ATOM      8  C   UNL d   1     -49.625  13.292  22.213  0.00  0.00     0.025 A 
ATOM      9  C   UNL d   1     -50.468  12.432  21.448  0.00  0.00     0.000 C 
BRANCH   4  10
ATOM     10  C   UNL d   1     -49.948  15.317  22.957  0.00  0.00     0.002 C 
ATOM     11  C   UNL d   1     -49.483  15.898  22.599  0.00  0.00     0.000 C 
ATOM     12  C   UNL d   1     -50.279  15.465  23.698  0.00  0.00     0.000 C 
ENDBRANCH   4  10
ENDBRANCH   2   3
ENDBRANCH   1   2
BRANCH   1  13
ATOM     13  C   UNL d   1     -47.479  13.723  23.350  0.00  0.00     0.112 C 
BRANCH  13  14
ATOM     14  N   UNL d   1     -46.832  13.239  23.210  0.00  0.00    -0.249 N 
ATOM     15  C   UNL d   1     -46.188  13.624  22.848  0.00  0.00     0.378 A 
ATOM     16  O   UNL d   1     -45.577  13.076  22.740  0.00  0.00    -0.258 OA
ATOM     17  O   UNL d   1     -46.170  14.420  22.636  0.00  0.00    -0.237 OA
ATOM     18  C   UNL d   1     -45.840  12.340  23.037  0.00  0.00     0.121 A 
ATOM     19  C   UNL d   1     -45.482  11.597  23.082  0.00  0.00     0.026 A 
ATOM     20  C   UNL d   1     -46.614  12.447  23.326  0.00  0.00     0.092 A 
ATOM     21  C   UNL d   1     -45.889  10.963  23.412  0.00  0.00     0.002 A 
ATOM     22  C   UNL d   1     -46.656  11.068  23.698  0.00  0.00     0.002 A 
ATOM     23  C   UNL d   1     -47.023  11.809  23.657  0.00  0.00     0.020 A 
ENDBRANCH  13  14
ENDBRANCH   1  13
TORSDOF 5
ENDMDL
MODEL 3
REMARK VINA RESULT:      -7.4      1.220      4.359
REMARK  5 active torsions:
REMARK  status: ('A' for Active; 'I' for Inactive)
REMARK    1  A    between atoms: C_11  and  N_2 
REMARK    2  A    between atoms: C_6  and  O_13 
REMARK    3  A    between atoms: C_12  and  C_7 
REMARK    4  A    between atoms: C_16  and  C_11 
REMARK    5  A    between atoms: O_13  and  C_16 
ROOT
ATOM      1  C   UNL d   1     -48.422  13.170  22.843  0.00  0.00     0.142 C 
ENDROOT
BRANCH   1   2
ATOM      2  O   UNL d   1     -48.952  13.782  22.986  0.00  0.00    -0.304 OA
BRANCH   2   3
ATOM      3  C   UNL d   1     -49.645  13.830  22.541  0.00  0.00     0.100 A 
ATOM      4  C   UNL d   1     -50.086  14.525  22.538  0.00  0.00     0.023 A 
ATOM      5  C   UNL d   1     -50.776  14.581  22.098  0.00  0.00     0.002 A 
ATOM      6  C   UNL d   1     -51.031  13.926  21.651  0.00  0.00     0.000 A 
ATOM      7  C   UNL d   1     -50.589  13.228  21.652  0.00  0.00     0.002 A 
ATOM      8  C   UNL d   1     -49.896  13.180  22.097  0.00  0.00     0.025 A 
ATOM      9  C   UNL d   1     -50.841  12.581  21.211  0.00  0.00     0.000 C 
BRANCH   4  10
ATOM     10  C   UNL d   1     -49.831  15.172  22.982  0.00  0.00     0.002 C 
ATOM     11  C   UNL d   1     -49.207  15.643  22.716  0.00  0.00     0.000 C 
ATOM     12  C   UNL d   1     -50.198  15.355  23.698  0.00  0.00     0.000 C 
ENDBRANCH   4  10
ENDBRANCH   2   3
ENDBRANCH   1   2
BRANCH   1  13
ATOM     13  C   UNL d   1     -47.877  12.961  23.426  0.00  0.00     0.112 C 
BRANCH  13  14
ATOM     14  N   UNL d   1     -47.148  12.653  23.211  0.00  0.00    -0.249 N 
ATOM     15  C   UNL d   1     -47.064  11.837  23.356  0.00  0.00     0.378 A 
ATOM     16  O   UNL d   1     -46.308  11.600  23.115  0.00  0.00    -0.258 OA
ATOM     17  O   UNL d   1     -47.644  11.353  23.685  0.00  0.00    -0.237 OA
ATOM     18  C   UNL d   1     -45.914  12.274  22.817  0.00  0.00     0.121 A 
ATOM     19  C   UNL d   1     -45.158  12.383  22.501  0.00  0.00     0.026 A 
ATOM     20  C   UNL d   1     -46.436  12.920  22.878  0.00  0.00     0.092 A 
ATOM     21  C   UNL d   1     -44.922  13.129  22.248  0.00  0.00     0.002 A 
ATOM     22  C   UNL d   1     -45.438  13.769  22.309  0.00  0.00     0.002 A 
ATOM     23  C   UNL d   1     -46.197  13.669  22.623  0.00  0.00     0.020 A 
ENDBRANCH  13  14
ENDBRANCH   1  13
TORSDOF 5
ENDMDL
MODEL 4
REMARK VINA RESULT:      -6.3      8.729     10.028
REMARK  5 active torsions:
REMARK  status: ('A' for Active; 'I' for Inactive)
REMARK    1  A    between atoms: C_11  and  N_2 
REMARK    2  A    between atoms: C_6  and  O_13 
REMARK    3  A    between atoms: C_12  and  C_7 
REMARK    4  A    between atoms: C_16  and  C_11 
REMARK    5  A    between atoms: O_13  and  C_16 
ROOT
ATOM      1  C   UNL d   1     -39.781  14.345  19.409  0.00  0.00     0.142 C 
ENDROOT
BRANCH   1   2
ATOM      2  O   UNL d   1     -40.013  14.488  18.633  0.00  0.00    -0.304 OA
BRANCH   2   3
ATOM      3  C   UNL d   1     -39.575  14.166  18.013  0.00  0.00     0.100 A 
ATOM      4  C   UNL d   1     -39.615  14.502  17.263  0.00  0.00     0.023 A 
ATOM      5  C   UNL d   1     -39.182  14.189  16.640  0.00  0.00     0.002 A 
ATOM      6  C   UNL d   1     -38.699  13.523  16.772  0.00  0.00     0.000 A 
ATOM      7  C   UNL d   1     -38.658  13.185  17.525  0.00  0.00     0.002 A 
ATOM      8  C   UNL d   1     -39.096  13.507  18.145  0.00  0.00     0.025 A 
ATOM      9  C   UNL d   1     -38.180  12.528  17.655  0.00  0.00     0.000 C 
BRANCH   4  10
ATOM     10  C   UNL d   1     -40.095  15.161  17.135  0.00  0.00     0.002 C 
ATOM     11  C   UNL d   1     -40.894  15.068  16.950  0.00  0.00     0.000 C 
ATOM     12  C   UNL d   1     -39.780  15.922  17.191  0.00  0.00     0.000 C 
ENDBRANCH   4  10
ENDBRANCH   2   3
ENDBRANCH   1   2
BRANCH   1  13
ATOM     13  C   UNL d   1     -40.316  14.474  20.023  0.00  0.00     0.112 C 
BRANCH  13  14
ATOM     14  N   UNL d   1     -40.043  14.710  20.760  0.00  0.00    -0.249 N 
ATOM     15  C   UNL d   1     -40.336  15.447  21.015  0.00  0.00     0.378 A 
ATOM     16  O   UNL d   1     -40.019  15.616  21.760  0.00  0.00    -0.258 OA
ATOM     17  O   UNL d   1     -40.857  15.922  20.588  0.00  0.00    -0.237 OA
ATOM     18  C   UNL d   1     -39.522  14.979  21.975  0.00  0.00     0.121 A 
ATOM     19  C   UNL d   1     -39.060  14.834  22.644  0.00  0.00     0.026 A 
ATOM     20  C   UNL d   1     -39.540  14.424  21.354  0.00  0.00     0.092 A 
ATOM     21  C   UNL d   1     -38.620  14.142  22.699  0.00  0.00     0.002 A 
ATOM     22  C   UNL d   1     -38.638  13.591  22.084  0.00  0.00     0.002 A 
ATOM     23  C   UNL d   1     -39.097  13.728  21.410  0.00  0.00     0.020 A 
ENDBRANCH  13  14
ENDBRANCH   1  13
TORSDOF 5
ENDMDL
MODEL 5
REMARK VINA RESULT:      -5.4      9.415     10.639
REMARK  5 active torsions:
REMARK  status: ('A' for Active; 'I' for Inactive)
REMARK    1  A    between atoms: C_11  and  N_2 
REMARK    2  A    between atoms: C_6  and  O_13 
REMARK    3  A    between atoms: C_12  and  C_7 
REMARK    4  A    between atoms: C_16  and  C_11 
REMARK    5  A    between atoms: O_13  and  C_16 
ROOT
ATOM      1  C   UNL d   1     -38.930  14.711  19.168  0.00  0.00     0.142 C 
ENDROOT
BRANCH   1   2
ATOM      2  O   UNL d   1     -38.835  14.666  18.352  0.00  0.00    -0.304 OA
BRANCH   2   3
ATOM      3  C   UNL d   1     -39.446  14.918  17.859  0.00  0.00     0.100 A 
ATOM      4  C   UNL d   1     -39.397  14.795  17.047  0.00  0.00     0.023 A 
ATOM      5  C   UNL d   1     -40.000  15.042  16.549  0.00  0.00     0.002 A 
ATOM      6  C   UNL d   1     -40.667  15.422  16.872  0.00  0.00     0.000 A 
ATOM      7  C   UNL d   1     -40.718  15.547  17.687  0.00  0.00     0.002 A 
ATOM      8  C   UNL d   1     -40.107  15.294  18.181  0.00  0.00     0.025 A 
ATOM      9  C   UNL d   1     -41.377  15.922  18.005  0.00  0.00     0.000 C 
BRANCH   4  10
ATOM     10  C   UNL d   1     -38.734  14.418  16.730  0.00  0.00     0.002 C 
ATOM     11  C   UNL d   1     -38.087  14.859  16.470  0.00  0.00     0.000 C 
ATOM     12  C   UNL d   1     -38.713  13.595  16.669  0.00  0.00     0.000 C 
ENDBRANCH   4  10
ENDBRANCH   2   3
ENDBRANCH   1   2
BRANCH   1  13
ATOM     13  C   UNL d   1     -38.271  14.625  19.658  0.00  0.00     0.112 C 
BRANCH  13  14
ATOM     14  N   UNL d   1     -38.375  14.471  20.457  0.00  0.00    -0.249 N 
ATOM     15  C   UNL d   1     -38.218  13.683  20.678  0.00  0.00     0.378 A 
ATOM     16  O   UNL d   1     -38.343  13.604  21.492  0.00  0.00    -0.258 OA
ATOM     17  O   UNL d   1     -37.977  13.087  20.162  0.00  0.00    -0.237 OA
ATOM     18  C   UNL d   1     -38.581  14.350  21.785  0.00  0.00     0.121 A 
ATOM     19  C   UNL d   1     -38.781  14.612  22.542  0.00  0.00     0.026 A 
ATOM     20  C   UNL d   1     -38.599  14.880  21.143  0.00  0.00     0.092 A 
ATOM     21  C   UNL d   1     -38.999  15.396  22.662  0.00  0.00     0.002 A 
ATOM     22  C   UNL d   1     -39.017  15.922  22.026  0.00  0.00     0.002 A 
ATOM     23  C   UNL d   1     -38.818  15.668  21.265  0.00  0.00     0.020 A 
ENDBRANCH  13  14
ENDBRANCH   1  13
TORSDOF 5
ENDMDL
