MODEL 1
REMARK VINA RESULT:     104.5      0.000      0.000
REMARK  6 active torsions:
REMARK  status: ('A' for Active; 'I' for Inactive)
REMARK    1  A    between atoms: C_11  and  N_3 
REMARK    2  A    between atoms: C_10  and  C_4 
REMARK    3  A    between atoms: C_18  and  C_11 
REMARK    4  A    between atoms: O_21  and  C_13 
REMARK    5  A    between atoms: O_22  and  C_15 
REMARK    6  A    between atoms: C_23  and  C_18 
ROOT
ATOM      1  N   UNL d   1     -55.887-100.860 -43.533  0.00  0.00    -0.122 N 
ATOM      2  C   UNL d   1     -56.254-100.220 -43.907  0.00  0.00     0.741 A 
ATOM      3  N   UNL d   1     -56.243-100.160 -44.741  0.00  0.00    -0.103 N 
ATOM      4  C   UNL d   1     -55.985-100.776 -42.714  0.00  0.00     0.185 A 
ATOM      5  C   UNL d   1     -55.864-100.742 -45.192  0.00  0.00     0.280 A 
ATOM      6  N   UNL d   1     -56.580 -99.736 -43.325  0.00  0.00     0.045 NA
ATOM      7  C   UNL d   1     -55.507-101.445 -43.984  0.00  0.00     0.087 A 
ATOM      8  N   UNL d   1     -56.415-100.079 -42.582  0.00  0.00    -0.114 NA
ATOM      9  C   UNL d   1     -55.500-101.379 -44.806  0.00  0.00     0.074 A 
ATOM     10  O   UNL d   1     -55.853-100.684 -46.015  0.00  0.00    -0.266 OA
ATOM     11  C   UNL d   1     -55.119-101.965 -45.256  0.00  0.00     0.006 A 
ATOM     12  C   UNL d   1     -55.141-102.082 -43.610  0.00  0.00     0.018 A 
ATOM     13  C   UNL d   1     -54.754-102.601 -44.883  0.00  0.00     0.000 A 
ATOM     14  C   UNL d   1     -54.766-102.659 -44.060  0.00  0.00     0.002 A 
ENDROOT
BRANCH   4  15
ATOM     15  C   UNL d   1     -55.705-101.291 -42.133  0.00  0.00     0.039 A 
ATOM     16  C   UNL d   1     -55.554-101.015 -41.382  0.00  0.00     0.029 A 
ATOM     17  C   UNL d   1     -55.275-101.527 -40.801  0.00  0.00     0.116 A 
ATOM     18  C   UNL d   1     -55.148-102.328 -40.983  0.00  0.00     0.116 A 
ATOM     19  C   UNL d   1     -55.302-102.605 -41.745  0.00  0.00     0.026 A 
ATOM     20  C   UNL d   1     -55.582-102.089 -42.327  0.00  0.00     0.005 A 
BRANCH  17  21
ATOM     21  O   UNL d   1     -55.125-101.247 -40.050  0.00  0.00    -0.326 OA
ATOM     22  C   UNL d   1     -55.031-101.773 -39.418  0.00  0.00     0.181 C 
ENDBRANCH  17  21
BRANCH  18  23
ATOM     23  O   UNL d   1     -54.869-102.839 -40.401  0.00  0.00    -0.326 OA
ATOM     24  C   UNL d   1     -55.032-102.681 -39.605  0.00  0.00     0.181 C 
ENDBRANCH  18  23
ENDBRANCH   4  15
BRANCH   3  25
ATOM     25  C   UNL d   1     -56.608 -99.523 -45.115  0.00  0.00     0.101 C 
BRANCH  25  26
ATOM     26  C   UNL d   1     -57.010 -98.961 -44.665  0.00  0.00     0.020 C 
BRANCH  26  27
ATOM     27  C   UNL d   1     -57.836 -98.892 -44.719  0.00  0.00     0.002 A 
ATOM     28  C   UNL d   1     -58.201 -98.882 -45.459  0.00  0.00     0.000 A 
ATOM     29  C   UNL d   1     -59.009 -98.815 -45.507  0.00  0.00     0.000 A 
ATOM     30  C   UNL d   1     -59.451 -98.758 -44.830  0.00  0.00     0.000 A 
ATOM     31  C   UNL d   1     -59.095 -98.767 -44.090  0.00  0.00     0.000 A 
ATOM     32  C   UNL d   1     -58.277 -98.835 -44.042  0.00  0.00     0.000 A 
ENDBRANCH  26  27
ENDBRANCH  25  26
ENDBRANCH   3  25
TORSDOF 6
ENDMDL
