MODEL 1
REMARK VINA RESULT:      53.7      0.000      0.000
REMARK  8 active torsions:
REMARK  status: ('A' for Active; 'I' for Inactive)
REMARK    1  A    between atoms: S_3  and  C_1 
REMARK    2  A    between atoms: C_7  and  C_2 
REMARK    3  A    between atoms: N_9  and  S_3 
REMARK    4  A    between atoms: C_8  and  C_6 
REMARK    5  A    between atoms: O_21  and  C_7 
REMARK    6  A    between atoms: O_22  and  C_8 
REMARK    7  A    between atoms: C_14  and  N_9 
REMARK    8  A    between atoms: C_10  and  C_14 
ROOT
ATOM      1  C   UNL d   1     -50.373  25.971  33.935  0.00  0.00     0.140 A 
ATOM      2  C   UNL d   1     -51.119  26.141  33.645  0.00  0.00     0.082 A 
ATOM      3  C   UNL d   1     -51.539  25.430  33.573  0.00  0.00     0.018 A 
ATOM      4  S   UNL d   1     -50.339  25.158  34.040  0.00  0.00    -0.069 SA
ATOM      5  C   UNL d   1     -51.054  24.846  33.816  0.00  0.00     0.093 A 
ATOM      6  C   UNL d   1     -52.297  25.320  33.311  0.00  0.00     0.001 C 
ENDROOT
BRANCH   1   7
ATOM      7  S   UNL d   1     -49.849  26.578  34.055  0.00  0.00     0.291 S 
ATOM      8  O   UNL d   1     -50.142  26.676  34.836  0.00  0.00    -0.198 OA
ATOM      9  O   UNL d   1     -49.557  26.499  33.311  0.00  0.00    -0.198 OA
BRANCH   7  10
ATOM     10  N   UNL d   1     -49.321  27.198  34.191  0.00  0.00    -0.156 NA
BRANCH  10  11
ATOM     11  C   UNL d   1     -48.943  27.280  34.923  0.00  0.00     0.119 C 
BRANCH  11  12
ATOM     12  C   UNL d   1     -48.530  27.973  35.097  0.00  0.00     0.049 A 
ATOM     13  S   UNL d   1     -47.923  28.331  34.659  0.00  0.00    -0.085 SA
ATOM     14  C   UNL d   1     -47.683  29.007  35.045  0.00  0.00     0.035 A 
ATOM     15  C   UNL d   1     -48.135  29.083  35.731  0.00  0.00     0.007 A 
ATOM     16  C   UNL d   1     -48.658  28.440  35.759  0.00  0.00     0.009 A 
ENDBRANCH  11  12
ENDBRANCH  10  11
ENDBRANCH   7  10
ENDBRANCH   1   7
BRANCH   2  17
ATOM     17  C   UNL d   1     -51.423  26.891  33.449  0.00  0.00     0.297 C 
ATOM     18  O   UNL d   1     -50.918  27.538  33.393  0.00  0.00    -0.259 OA
BRANCH  17  19
ATOM     19  O   UNL d   1     -52.236  26.977  33.312  0.00  0.00    -0.296 OA
ATOM     20  C   UNL d   1     -52.619  27.664  33.535  0.00  0.00     0.185 C 
ENDBRANCH  17  19
ENDBRANCH   2  17
BRANCH   5  21
ATOM     21  C   UNL d   1     -51.268  24.024  33.832  0.00  0.00     0.302 C 
ATOM     22  O   UNL d   1     -50.736  23.483  33.542  0.00  0.00    -0.259 OA
BRANCH  21  23
ATOM     23  O   UNL d   1     -52.002  23.787  34.138  0.00  0.00    -0.295 OA
ATOM     24  C   UNL d   1     -52.646  23.663  33.639  0.00  0.00     0.185 C 
ENDBRANCH  21  23
ENDBRANCH   5  21
TORSDOF 8
ENDMDL
MODEL 2
REMARK VINA RESULT:      53.8      1.071      1.920
REMARK  8 active torsions:
REMARK  status: ('A' for Active; 'I' for Inactive)
REMARK    1  A    between atoms: S_3  and  C_1 
REMARK    2  A    between atoms: C_7  and  C_2 
REMARK    3  A    between atoms: N_9  and  S_3 
REMARK    4  A    between atoms: C_8  and  C_6 
REMARK    5  A    between atoms: O_21  and  C_7 
REMARK    6  A    between atoms: O_22  and  C_8 
REMARK    7  A    between atoms: C_14  and  N_9 
REMARK    8  A    between atoms: C_10  and  C_14 
ROOT
ATOM      1  C   UNL d   1     -50.953  25.956  33.967  0.00  0.00     0.140 A 
ATOM      2  C   UNL d   1     -50.655  25.249  33.684  0.00  0.00     0.082 A 
ATOM      3  C   UNL d   1     -51.287  24.725  33.575  0.00  0.00     0.018 A 
ATOM      4  S   UNL d   1     -51.766  25.863  34.030  0.00  0.00    -0.069 SA
ATOM      5  C   UNL d   1     -51.951  25.110  33.789  0.00  0.00     0.093 A 
ATOM      6  C   UNL d   1     -51.265  23.962  33.306  0.00  0.00     0.001 C 
ENDROOT
BRANCH   1   7
ATOM      7  S   UNL d   1     -50.442  26.567  34.120  0.00  0.00     0.291 S 
ATOM      8  O   UNL d   1     -50.438  26.768  33.306  0.00  0.00    -0.198 OA
ATOM      9  O   UNL d   1     -50.434  26.388  34.903  0.00  0.00    -0.198 OA
BRANCH   7  10
ATOM     10  N   UNL d   1     -49.921  27.191  34.263  0.00  0.00    -0.156 NA
BRANCH  10  11
ATOM     11  C   UNL d   1     -49.537  27.265  34.992  0.00  0.00     0.119 C 
BRANCH  11  12
ATOM     12  C   UNL d   1     -49.008  27.886  35.117  0.00  0.00     0.049 A 
ATOM     13  S   UNL d   1     -49.181  28.684  35.265  0.00  0.00    -0.085 SA
ATOM     14  C   UNL d   1     -48.481  29.093  35.352  0.00  0.00     0.035 A 
ATOM     15  C   UNL d   1     -47.859  28.558  35.259  0.00  0.00     0.007 A 
ATOM     16  C   UNL d   1     -48.191  27.812  35.114  0.00  0.00     0.009 A 
ENDBRANCH  11  12
ENDBRANCH  10  11
ENDBRANCH   7  10
ENDBRANCH   1   7
BRANCH   2  17
ATOM     17  C   UNL d   1     -49.858  25.067  33.527  0.00  0.00     0.297 C 
ATOM     18  O   UNL d   1     -49.334  25.663  33.313  0.00  0.00    -0.259 OA
BRANCH  17  19
ATOM     19  O   UNL d   1     -49.601  24.281  33.587  0.00  0.00    -0.296 OA
ATOM     20  C   UNL d   1     -48.802  24.114  33.636  0.00  0.00     0.185 C 
ENDBRANCH  17  19
ENDBRANCH   2  17
BRANCH   5  21
ATOM     21  C   UNL d   1     -52.730  24.772  33.762  0.00  0.00     0.302 C 
ATOM     22  O   UNL d   1     -52.806  23.974  33.894  0.00  0.00    -0.259 OA
BRANCH  21  23
ATOM     23  O   UNL d   1     -53.390  25.249  33.605  0.00  0.00    -0.295 OA
ATOM     24  C   UNL d   1     -54.085  24.921  33.306  0.00  0.00     0.185 C 
ENDBRANCH  21  23
ENDBRANCH   5  21
TORSDOF 8
ENDMDL
MODEL 3
REMARK VINA RESULT:      54.9      2.990      6.073
REMARK  8 active torsions:
REMARK  status: ('A' for Active; 'I' for Inactive)
REMARK    1  A    between atoms: S_3  and  C_1 
REMARK    2  A    between atoms: C_7  and  C_2 
REMARK    3  A    between atoms: N_9  and  S_3 
REMARK    4  A    between atoms: C_8  and  C_6 
REMARK    5  A    between atoms: O_21  and  C_7 
REMARK    6  A    between atoms: O_22  and  C_8 
REMARK    7  A    between atoms: C_14  and  N_9 
REMARK    8  A    between atoms: C_10  and  C_14 
ROOT
ATOM      1  C   UNL d   1     -48.320  30.290  34.499  0.00  0.00     0.140 A 
ATOM      2  C   UNL d   1     -47.797  30.389  35.121  0.00  0.00     0.082 A 
ATOM      3  C   UNL d   1     -47.508  31.165  35.097  0.00  0.00     0.018 A 
ATOM      4  S   UNL d   1     -48.348  31.004  34.097  0.00  0.00    -0.069 SA
ATOM      5  C   UNL d   1     -47.850  31.523  34.473  0.00  0.00     0.093 A 
ATOM      6  C   UNL d   1     -46.978  31.518  35.597  0.00  0.00     0.001 C 
ENDROOT
BRANCH   1   7
ATOM      7  S   UNL d   1     -48.683  29.571  34.400  0.00  0.00     0.291 S 
ATOM      8  O   UNL d   1     -49.422  29.958  34.308  0.00  0.00    -0.198 OA
ATOM      9  O   UNL d   1     -47.984  29.186  34.486  0.00  0.00    -0.198 OA
BRANCH   7  10
ATOM     10  N   UNL d   1     -49.064  28.847  34.297  0.00  0.00    -0.156 NA
BRANCH  10  11
ATOM     11  C   UNL d   1     -49.405  28.647  33.570  0.00  0.00     0.119 C 
BRANCH  11  12
ATOM     12  C   UNL d   1     -49.869  27.967  33.507  0.00  0.00     0.049 A 
ATOM     13  S   UNL d   1     -49.636  27.177  33.610  0.00  0.00    -0.085 SA
ATOM     14  C   UNL d   1     -50.283  26.695  33.493  0.00  0.00     0.035 A 
ATOM     15  C   UNL d   1     -50.931  27.174  33.316  0.00  0.00     0.007 A 
ATOM     16  C   UNL d   1     -50.669  27.961  33.325  0.00  0.00     0.009 A 
ENDBRANCH  11  12
ENDBRANCH  10  11
ENDBRANCH   7  10
ENDBRANCH   1   7
BRANCH   2  17
ATOM     17  C   UNL d   1     -47.581  29.821  35.691  0.00  0.00     0.297 C 
ATOM     18  O   UNL d   1     -47.024  29.245  35.506  0.00  0.00    -0.259 OA
BRANCH  17  19
ATOM     19  O   UNL d   1     -47.931  29.845  36.441  0.00  0.00    -0.296 OA
ATOM     20  C   UNL d   1     -47.546  29.518  37.084  0.00  0.00     0.185 C 
ENDBRANCH  17  19
ENDBRANCH   2  17
BRANCH   5  21
ATOM     21  C   UNL d   1     -47.705  32.329  34.247  0.00  0.00     0.302 C 
ATOM     22  O   UNL d   1     -47.287  32.803  34.758  0.00  0.00    -0.259 OA
BRANCH  21  23
ATOM     23  O   UNL d   1     -47.985  32.619  33.521  0.00  0.00    -0.295 OA
ATOM     24  C   UNL d   1     -48.036  33.430  33.382  0.00  0.00     0.185 C 
ENDBRANCH  21  23
ENDBRANCH   5  21
TORSDOF 8
ENDMDL
