MODEL 1
REMARK VINA RESULT:      43.5      0.000      0.000
REMARK  4 active torsions:
REMARK  status: ('A' for Active; 'I' for Inactive)
REMARK    1  A    between atoms: C_2  and  C_1 
REMARK       I    between atoms: N_3  and  C_1 
REMARK    2  A    between atoms: C_14  and  N_3 
REMARK    3  A    between atoms: C_6  and  S_7 
REMARK    4  A    between atoms: S_7  and  C_15 
ROOT
ATOM      1  C   UNL d   1     -50.055  24.008  33.439  0.00  0.00     0.279 C 
ATOM      2  N   UNL d   1     -49.416  24.520  33.522  0.00  0.00    -0.208 NA
ATOM      3  O   UNL d   1     -49.928  23.188  33.388  0.00  0.00    -0.265 OA
ENDROOT
BRANCH   1   4
ATOM      4  C   UNL d   1     -50.826  24.307  33.406  0.00  0.00     0.059 A 
ATOM      5  C   UNL d   1     -51.472  23.785  33.429  0.00  0.00     0.025 A 
ATOM      6  C   UNL d   1     -52.244  24.091  33.395  0.00  0.00     0.099 A 
ATOM      7  N   UNL d   1     -52.890  23.566  33.419  0.00  0.00    -0.241 NA
ATOM      8  C   UNL d   1     -52.372  24.903  33.339  0.00  0.00     0.099 A 
ATOM      9  C   UNL d   1     -53.661  23.869  33.385  0.00  0.00     0.120 A 
ATOM     10  C   UNL d   1     -53.785  24.693  33.329  0.00  0.00     0.120 A 
ATOM     11  N   UNL d   1     -53.137  25.202  33.306  0.00  0.00    -0.241 NA
ATOM     12  C   UNL d   1     -51.728  25.420  33.316  0.00  0.00     0.021 A 
ATOM     13  C   UNL d   1     -50.954  25.126  33.349  0.00  0.00     0.006 A 
ENDBRANCH   1   4
BRANCH   2  14
ATOM     14  C   UNL d   1     -49.544  25.333  33.572  0.00  0.00     0.085 A 
ATOM     15  C   UNL d   1     -50.257  25.649  33.309  0.00  0.00     0.020 A 
ATOM     16  C   UNL d   1     -50.387  26.459  33.357  0.00  0.00     0.008 A 
ATOM     17  C   UNL d   1     -49.804  26.952  33.670  0.00  0.00     0.034 A 
ATOM     18  C   UNL d   1     -49.094  26.629  33.931  0.00  0.00     0.008 A 
ATOM     19  C   UNL d   1     -48.964  25.819  33.882  0.00  0.00     0.020 A 
BRANCH  17  20
ATOM     20  S   UNL d   1     -49.935  27.762  33.718  0.00  0.00    -0.028 SA
BRANCH  20  21
ATOM     21  C   UNL d   1     -50.064  28.571  33.767  0.00  0.00     0.309 C 
ATOM     22  F   UNL d   1     -50.784  28.886  33.519  0.00  0.00    -0.165 F 
ATOM     23  F   UNL d   1     -49.477  29.063  34.062  0.00  0.00    -0.165 F 
ENDBRANCH  20  21
ENDBRANCH  17  20
ENDBRANCH   2  14
TORSDOF 4
ENDMDL
