MODEL 1
REMARK VINA RESULT:     275.6      0.000      0.000
REMARK  4 active torsions:
REMARK  status: ('A' for Active; 'I' for Inactive)
REMARK    1  A    between atoms: C_7  and  C_1 
REMARK    2  A    between atoms: C_12  and  C_6 
REMARK       I    between atoms: N_11  and  C_7 
REMARK    3  A    between atoms: C_20  and  N_11 
REMARK       I    between atoms: C_13  and  N_14 
REMARK    4  A    between atoms: N_14  and  C_21 
ROOT
ATOM      1  C   UNL d   1     -56.174-101.283 -42.768  0.00  0.00     0.108 A 
ATOM      2  C   UNL d   1     -57.123-100.787 -43.360  0.00  0.00     0.044 A 
ATOM      3  C   UNL d   1     -56.429-101.062 -43.410  0.00  0.00     0.116 A 
ATOM      4  C   UNL d   1     -57.335-100.834 -42.629  0.00  0.00     0.112 A 
ATOM      5  S   UNL d   1     -56.745-101.144 -42.251  0.00  0.00    -0.061 SA
ATOM      6  C   UNL d   1     -57.612-100.491 -43.888  0.00  0.00     0.005 A 
ATOM      7  N   UNL d   1     -58.043-100.586 -42.400  0.00  0.00    -0.239 NA
ATOM      8  C   UNL d   1     -58.315-100.243 -43.671  0.00  0.00     0.018 A 
ATOM      9  C   UNL d   1     -58.527-100.290 -42.940  0.00  0.00     0.082 A 
ATOM     10  N   UNL d   1     -55.897-101.141 -44.169  0.00  0.00    -0.147 N 
ATOM     11  C   UNL d   1     -58.942 -99.904 -44.123  0.00  0.00     0.002 A 
ATOM     12  C   UNL d   1     -59.267-100.008 -42.825  0.00  0.00     0.019 A 
ATOM     13  C   UNL d   1     -59.540 -99.755 -43.604  0.00  0.00     0.002 A 
ENDROOT
BRANCH   1  14
ATOM     14  C   UNL d   1     -55.283-101.690 -42.535  0.00  0.00     0.287 C 
ATOM     15  N   UNL d   1     -54.729-102.090 -41.819  0.00  0.00    -0.208 NA
ATOM     16  O   UNL d   1     -54.769-101.692 -43.300  0.00  0.00    -0.265 OA
BRANCH  15  17
ATOM     17  C   UNL d   1     -55.038-102.171 -41.043  0.00  0.00     0.085 A 
ATOM     18  C   UNL d   1     -54.866-101.581 -40.487  0.00  0.00     0.021 A 
ATOM     19  C   UNL d   1     -55.166-101.645 -39.704  0.00  0.00     0.021 A 
ATOM     20  C   UNL d   1     -55.635-102.296 -39.483  0.00  0.00     0.085 A 
ATOM     21  C   UNL d   1     -55.802-102.880 -40.043  0.00  0.00     0.021 A 
ATOM     22  C   UNL d   1     -55.504-102.818 -40.820  0.00  0.00     0.021 A 
BRANCH  20  23
ATOM     23  N   UNL d   1     -55.984-102.351 -38.539  0.00  0.00    -0.208 NA
ATOM     24  C   UNL d   1     -56.641-101.400 -38.211  0.00  0.00     0.279 C 
ATOM     25  O   UNL d   1     -57.041-101.444 -37.156  0.00  0.00    -0.265 OA
ATOM     26  C   UNL d   1     -57.002-100.261 -38.879  0.00  0.00     0.068 C 
ENDBRANCH  20  23
ENDBRANCH  15  17
ENDBRANCH   1  14
BRANCH   6  27
ATOM     27  C   UNL d   1     -57.385-100.441 -44.670  0.00  0.00     0.000 A 
ATOM     28  C   UNL d   1     -57.228 -99.706 -44.997  0.00  0.00     0.000 A 
ATOM     29  C   UNL d   1     -57.001 -99.657 -45.779  0.00  0.00     0.000 A 
ATOM     30  C   UNL d   1     -56.923-100.320 -46.254  0.00  0.00     0.000 A 
ATOM     31  C   UNL d   1     -57.078-101.049 -45.933  0.00  0.00     0.000 A 
ATOM     32  C   UNL d   1     -56.591-100.287 -47.411  0.00  0.00     0.000 C 
ATOM     33  C   UNL d   1     -57.310-101.126 -45.140  0.00  0.00     0.000 A 
ENDBRANCH   6  27
TORSDOF 4
ENDMDL
