MODEL 1
REMARK VINA RESULT:      70.1      0.000      0.000
REMARK  6 active torsions:
REMARK  status: ('A' for Active; 'I' for Inactive)
REMARK    1  A    between atoms: O_8  and  C_2 
REMARK    2  A    between atoms: C_10  and  C_5 
REMARK    3  A    between atoms: C_21  and  O_8 
REMARK    4  A    between atoms: N_9  and  C_10 
REMARK    5  A    between atoms: C_12  and  C_15 
REMARK    6  A    between atoms: O_26  and  C_12 
ROOT
ATOM      1  C   UNL d   1      14.079  13.042  -1.804  0.00  0.00     0.108 A 
ATOM      2  C   UNL d   1      13.483  13.070  -3.355  0.00  0.00     0.161 A 
ATOM      3  C   UNL d   1      14.258  12.420  -2.334  0.00  0.00     0.064 A 
ATOM      4  C   UNL d   1      13.965  12.433  -3.100  0.00  0.00     0.222 A 
ATOM      5  C   UNL d   1      14.376  13.029  -1.029  0.00  0.00     0.079 A 
ATOM      6  O   UNL d   1      13.603  13.677  -2.047  0.00  0.00    -0.305 OA
ATOM      7  C   UNL d   1      13.305  13.687  -2.830  0.00  0.00     0.126 A 
ATOM      8  C   UNL d   1      14.737  11.792  -2.072  0.00  0.00     0.009 A 
ATOM      9  C   UNL d   1      14.849  12.402  -0.779  0.00  0.00     0.199 A 
ATOM     10  O   UNL d   1      14.140  11.820  -3.626  0.00  0.00    -0.284 OA
ATOM     11  C   UNL d   1      15.030  11.781  -1.303  0.00  0.00     0.042 A 
ATOM     12  O   UNL d   1      15.143  12.387  -0.015  0.00  0.00    -0.286 OA
ATOM     13  C   UNL d   1      12.832  14.313  -3.081  0.00  0.00     0.029 C 
ENDROOT
BRANCH   2  14
ATOM     14  O   UNL d   1      13.190  13.081  -4.124  0.00  0.00    -0.302 OA
BRANCH  14  15
ATOM     15  C   UNL d   1      13.339  13.727  -4.611  0.00  0.00     0.100 A 
ATOM     16  C   UNL d   1      13.923  13.678  -5.190  0.00  0.00     0.025 A 
ATOM     17  C   UNL d   1      14.073  14.324  -5.677  0.00  0.00     0.007 A 
ATOM     18  C   UNL d   1      13.638  15.019  -5.586  0.00  0.00     0.063 A 
ATOM     19  C   UNL d   1      13.048  15.064  -4.999  0.00  0.00     0.007 A 
ATOM     20  C   UNL d   1      12.903  14.420  -4.518  0.00  0.00     0.025 A 
BRANCH  18  21
ATOM     21  C   UNL d   1      13.786  15.670  -6.074  0.00  0.00     0.296 C 
ATOM     22  O   UNL d   1      14.555  15.844  -6.314  0.00  0.00    -0.259 OA
BRANCH  21  23
ATOM     23  O   UNL d   1      13.164  16.153  -6.326  0.00  0.00    -0.296 OA
ATOM     24  C   UNL d   1      13.277  16.968  -6.374  0.00  0.00     0.185 C 
ENDBRANCH  21  23
ENDBRANCH  18  21
ENDBRANCH  14  15
ENDBRANCH   2  14
BRANCH   5  25
ATOM     25  C   UNL d   1      14.198  13.637  -0.516  0.00  0.00     0.086 C 
BRANCH  25  26
ATOM     26  N   UNL d   1      14.746  14.245  -0.390  0.00  0.00    -0.300 N 
ATOM     27  C   UNL d   1      14.514  15.032  -0.476  0.00  0.00     0.100 A 
ATOM     28  C   UNL d   1      15.059  15.633  -0.351  0.00  0.00     0.100 A 
ATOM     29  N   UNL d   1      15.833  15.456  -0.141  0.00  0.00    -0.299 N 
ATOM     30  C   UNL d   1      16.065  14.665  -0.054  0.00  0.00     0.100 A 
ATOM     31  C   UNL d   1      16.384  16.065  -0.014  0.00  0.00     0.100 C 
ATOM     32  C   UNL d   1      15.518  14.058  -0.180  0.00  0.00     0.100 A 
ENDBRANCH  25  26
ENDBRANCH   5  25
TORSDOF 6
ENDMDL
MODEL 2
REMARK VINA RESULT:      72.6      1.776      3.467
REMARK  6 active torsions:
REMARK  status: ('A' for Active; 'I' for Inactive)
REMARK    1  A    between atoms: O_8  and  C_2 
REMARK    2  A    between atoms: C_10  and  C_5 
REMARK    3  A    between atoms: C_21  and  O_8 
REMARK    4  A    between atoms: N_9  and  C_10 
REMARK    5  A    between atoms: C_12  and  C_15 
REMARK    6  A    between atoms: O_26  and  C_12 
ROOT
ATOM      1  C   UNL d   1      13.927  14.499  -4.018  0.00  0.00     0.108 A 
ATOM      2  C   UNL d   1      14.761  15.741  -4.741  0.00  0.00     0.161 A 
ATOM      3  C   UNL d   1      14.013  14.518  -4.850  0.00  0.00     0.064 A 
ATOM      4  C   UNL d   1      14.425  15.131  -5.208  0.00  0.00     0.222 A 
ATOM      5  C   UNL d   1      13.511  13.879  -3.655  0.00  0.00     0.079 A 
ATOM      6  O   UNL d   1      14.256  15.098  -3.547  0.00  0.00    -0.305 OA
ATOM      7  C   UNL d   1      14.676  15.723  -3.916  0.00  0.00     0.126 A 
ATOM      8  C   UNL d   1      13.676  13.908  -5.305  0.00  0.00     0.009 A 
ATOM      9  C   UNL d   1      13.180  13.280  -4.114  0.00  0.00     0.199 A 
ATOM     10  O   UNL d   1      14.511  15.152  -6.029  0.00  0.00    -0.284 OA
ATOM     11  C   UNL d   1      13.263  13.294  -4.943  0.00  0.00     0.042 A 
ATOM     12  O   UNL d   1      12.769  12.667  -3.759  0.00  0.00    -0.286 OA
ATOM     13  C   UNL d   1      15.006  16.322  -3.458  0.00  0.00     0.029 C 
ENDROOT
BRANCH   2  14
ATOM     14  O   UNL d   1      15.173  16.354  -5.103  0.00  0.00    -0.302 OA
BRANCH  14  15
ATOM     15  C   UNL d   1      14.781  17.048  -5.307  0.00  0.00     0.100 A 
ATOM     16  C   UNL d   1      14.266  17.056  -5.949  0.00  0.00     0.025 A 
ATOM     17  C   UNL d   1      13.874  17.750  -6.153  0.00  0.00     0.007 A 
ATOM     18  C   UNL d   1      13.997  18.438  -5.714  0.00  0.00     0.063 A 
ATOM     19  C   UNL d   1      14.519  18.425  -5.064  0.00  0.00     0.007 A 
ATOM     20  C   UNL d   1      14.906  17.734  -4.865  0.00  0.00     0.025 A 
BRANCH  18  21
ATOM     21  C   UNL d   1      13.605  19.136  -5.915  0.00  0.00     0.296 C 
ATOM     22  O   UNL d   1      12.929  19.113  -6.388  0.00  0.00    -0.259 OA
BRANCH  21  23
ATOM     23  O   UNL d   1      13.884  19.866  -5.646  0.00  0.00    -0.296 OA
ATOM     24  C   UNL d   1      13.729  20.548  -6.083  0.00  0.00     0.185 C 
ENDBRANCH  21  23
ENDBRANCH  18  21
ENDBRANCH  14  15
ENDBRANCH   2  14
BRANCH   5  25
ATOM     25  C   UNL d   1      13.429  13.865  -2.843  0.00  0.00     0.086 C 
BRANCH  25  26
ATOM     26  N   UNL d   1      13.885  13.343  -2.392  0.00  0.00    -0.300 N 
ATOM     27  C   UNL d   1      14.566  13.613  -2.012  0.00  0.00     0.100 A 
ATOM     28  C   UNL d   1      15.017  13.093  -1.564  0.00  0.00     0.100 A 
ATOM     29  N   UNL d   1      14.795  12.306  -1.492  0.00  0.00    -0.299 N 
ATOM     30  C   UNL d   1      14.111  12.034  -1.874  0.00  0.00     0.100 A 
ATOM     31  C   UNL d   1      15.251  11.780  -1.039  0.00  0.00     0.100 C 
ATOM     32  C   UNL d   1      13.655  12.557  -2.326  0.00  0.00     0.100 A 
ENDBRANCH  25  26
ENDBRANCH   5  25
TORSDOF 6
ENDMDL
