MODEL 1
REMARK VINA RESULT:     104.6      0.000      0.000
REMARK  9 active torsions:
REMARK  status: ('A' for Active; 'I' for Inactive)
REMARK    1  A    between atoms: C_3  and  C_1 
REMARK    2  A    between atoms: N_5  and  C_2 
REMARK    3  A    between atoms: N_4  and  C_3 
REMARK    4  A    between atoms: C_14  and  C_3 
REMARK    5  A    between atoms: C_12  and  N_4 
REMARK       I    between atoms: C_6  and  N_5 
REMARK    6  A    between atoms: C_9  and  C_6 
REMARK    7  A    between atoms: C_7  and  C_12 
REMARK       I    between atoms: N_16  and  C_7 
REMARK    8  A    between atoms: N_8  and  C_17 
REMARK    9  A    between atoms: C_17  and  C_9 
ROOT
ATOM      1  C   UNL d   1      60.489  47.697  51.037  0.00  0.00     0.036 A 
ATOM      2  C   UNL d   1      60.983  47.158  50.654  0.00  0.00     0.086 A 
ATOM      3  C   UNL d   1      59.823  47.412  51.464  0.00  0.00     0.010 A 
ATOM      4  C   UNL d   1      60.838  46.345  50.682  0.00  0.00     0.020 A 
ATOM      5  C   UNL d   1      59.678  46.601  51.491  0.00  0.00     0.035 A 
ATOM      6  C   UNL d   1      60.181  46.082  51.104  0.00  0.00     0.008 A 
ATOM      7 BR   UNL d   1      59.038  46.328  51.902  0.00  0.00    -0.049 Br
ENDROOT
BRANCH   1   8
ATOM      8  C   UNL d   1      60.630  48.538  51.015  0.00  0.00     0.083 C 
BRANCH   8   9
ATOM      9  N   UNL d   1      60.391  48.943  50.336  0.00  0.00    -0.239 NA
BRANCH   9  10
ATOM     10  C   UNL d   1      59.919  49.608  50.371  0.00  0.00     0.163 C 
BRANCH  10  11
ATOM     11  C   UNL d   1      59.176  49.605  50.014  0.00  0.00     0.317 C 
ATOM     12  O   UNL d   1      58.520  49.511  50.482  0.00  0.00    -0.262 OA
ATOM     13  N   UNL d   1      59.113  49.696  49.197  0.00  0.00    -0.083 NA
ATOM     14  N   UNL d   1      58.359  49.689  48.864  0.00  0.00    -0.019 N 
ENDBRANCH  10  11
ENDBRANCH   9  10
ENDBRANCH   8   9
BRANCH   8  15
ATOM     15  C   UNL d   1      60.978  48.914  51.631  0.00  0.00     0.018 A 
ATOM     16  C   UNL d   1      60.508  49.274  52.204  0.00  0.00     0.002 A 
ATOM     17  C   UNL d   1      60.869  49.661  52.837  0.00  0.00     0.000 A 
ATOM     18  C   UNL d   1      61.678  49.699  52.915  0.00  0.00     0.000 A 
ATOM     19  C   UNL d   1      62.165  49.333  52.332  0.00  0.00     0.000 A 
ATOM     20  C   UNL d   1      61.802  48.941  51.689  0.00  0.00     0.002 A 
ENDBRANCH   8  15
ENDBRANCH   1   8
BRANCH   2  21
ATOM     21  N   UNL d   1      61.638  47.448  50.236  0.00  0.00    -0.208 NA
ATOM     22  C   UNL d   1      62.013  46.949  49.700  0.00  0.00     0.281 C 
ATOM     23  O   UNL d   1      62.665  47.241  49.284  0.00  0.00    -0.265 OA
BRANCH  22  24
ATOM     24  C   UNL d   1      61.754  46.176  49.572  0.00  0.00     0.082 C 
BRANCH  24  25
ATOM     25  C   UNL d   1      62.065  45.735  48.963  0.00  0.00     0.085 C 
BRANCH  25  26
ATOM     26  N   UNL d   1      62.030  44.927  49.003  0.00  0.00    -0.299 N 
ATOM     27  C   UNL d   1      62.712  44.495  49.178  0.00  0.00     0.107 A 
ATOM     28  C   UNL d   1      62.685  43.672  49.220  0.00  0.00     0.142 A 
ATOM     29  O   UNL d   1      61.965  43.283  49.084  0.00  0.00    -0.300 OA
ATOM     30  C   UNL d   1      61.293  43.713  48.912  0.00  0.00     0.142 A 
ATOM     31  C   UNL d   1      61.324  44.534  48.871  0.00  0.00     0.107 A 
ENDBRANCH  25  26
ENDBRANCH  24  25
ENDBRANCH  22  24
ENDBRANCH   2  21
TORSDOF 9
ENDMDL
MODEL 2
REMARK VINA RESULT:     105.6      1.905      2.926
REMARK  9 active torsions:
REMARK  status: ('A' for Active; 'I' for Inactive)
REMARK    1  A    between atoms: C_3  and  C_1 
REMARK    2  A    between atoms: N_5  and  C_2 
REMARK    3  A    between atoms: N_4  and  C_3 
REMARK    4  A    between atoms: C_14  and  C_3 
REMARK    5  A    between atoms: C_12  and  N_4 
REMARK       I    between atoms: C_6  and  N_5 
REMARK    6  A    between atoms: C_9  and  C_6 
REMARK    7  A    between atoms: C_7  and  C_12 
REMARK       I    between atoms: N_16  and  C_7 
REMARK    8  A    between atoms: N_8  and  C_17 
REMARK    9  A    between atoms: C_17  and  C_9 
ROOT
ATOM      1  C   UNL d   1      60.681  48.879  50.426  0.00  0.00     0.036 A 
ATOM      2  C   UNL d   1      60.785  48.062  50.466  0.00  0.00     0.086 A 
ATOM      3  C   UNL d   1      61.165  49.330  49.905  0.00  0.00     0.010 A 
ATOM      4  C   UNL d   1      61.353  47.676  50.006  0.00  0.00     0.020 A 
ATOM      5  C   UNL d   1      61.732  48.944  49.447  0.00  0.00     0.035 A 
ATOM      6  C   UNL d   1      61.819  48.131  49.501  0.00  0.00     0.008 A 
ATOM      7 BR   UNL d   1      62.196  49.377  48.947  0.00  0.00    -0.049 Br
ENDROOT
BRANCH   1   8
ATOM      8  C   UNL d   1      60.098  49.289  50.896  0.00  0.00     0.083 C 
BRANCH   8   9
ATOM      9  N   UNL d   1      60.363  49.666  51.581  0.00  0.00    -0.239 NA
BRANCH   9  10
ATOM     10  C   UNL d   1      60.339  49.304  52.312  0.00  0.00     0.163 C 
BRANCH  10  11
ATOM     11  C   UNL d   1      60.897  49.498  52.886  0.00  0.00     0.317 C 
ATOM     12  O   UNL d   1      61.650  49.688  52.649  0.00  0.00    -0.262 OA
ATOM     13  N   UNL d   1      60.684  49.496  53.683  0.00  0.00    -0.083 NA
ATOM     14  N   UNL d   1      61.261  49.693  54.238  0.00  0.00    -0.019 N 
ENDBRANCH  10  11
ENDBRANCH   9  10
ENDBRANCH   8   9
BRANCH   8  15
ATOM     15  C   UNL d   1      59.328  49.303  50.676  0.00  0.00     0.018 A 
ATOM     16  C   UNL d   1      58.765  48.930  51.150  0.00  0.00     0.002 A 
ATOM     17  C   UNL d   1      57.973  48.946  50.923  0.00  0.00     0.000 A 
ATOM     18  C   UNL d   1      57.726  49.318  50.243  0.00  0.00     0.000 A 
ATOM     19  C   UNL d   1      58.296  49.701  49.754  0.00  0.00     0.000 A 
ATOM     20  C   UNL d   1      59.100  49.687  49.982  0.00  0.00     0.002 A 
ENDBRANCH   8  15
ENDBRANCH   1   8
BRANCH   2  21
ATOM     21  N   UNL d   1      60.303  47.626  50.982  0.00  0.00    -0.208 NA
ATOM     22  C   UNL d   1      60.346  46.806  50.959  0.00  0.00     0.281 C 
ATOM     23  O   UNL d   1      59.865  46.374  51.474  0.00  0.00    -0.265 OA
BRANCH  22  24
ATOM     24  C   UNL d   1      60.852  46.411  50.439  0.00  0.00     0.082 C 
BRANCH  24  25
ATOM     25  C   UNL d   1      61.200  45.710  50.660  0.00  0.00     0.085 C 
BRANCH  25  26
ATOM     26  N   UNL d   1      61.308  45.131  50.104  0.00  0.00    -0.299 N 
ATOM     27  C   UNL d   1      61.827  44.507  50.257  0.00  0.00     0.107 A 
ATOM     28  C   UNL d   1      61.942  43.913  49.696  0.00  0.00     0.142 A 
ATOM     29  O   UNL d   1      61.531  43.951  48.977  0.00  0.00    -0.300 OA
ATOM     30  C   UNL d   1      61.019  44.568  48.829  0.00  0.00     0.142 A 
ATOM     31  C   UNL d   1      60.907  45.159  49.391  0.00  0.00     0.107 A 
ENDBRANCH  25  26
ENDBRANCH  24  25
ENDBRANCH  22  24
ENDBRANCH   2  21
TORSDOF 9
ENDMDL
