MODEL 1
REMARK VINA RESULT:      -2.4      0.000      0.000
REMARK  5 active torsions:
REMARK  status: ('A' for Active; 'I' for Inactive)
REMARK    1  A    between atoms: N_10  and  C_3 
REMARK    2  A    between atoms: N_11  and  C_6 
REMARK    3  A    between atoms: C_12  and  N_10 
REMARK    4  A    between atoms: C_13  and  N_11 
REMARK    5  A    between atoms: C_21  and  C_13 
ROOT
ATOM      1  C   UNL d   1      32.095  16.809 -24.430  0.00  0.00     0.187 A 
ATOM      2  C   UNL d   1      31.366  16.800 -24.728  0.00  0.00     0.094 A 
ATOM      3  C   UNL d   1      30.948  17.470 -24.776  0.00  0.00     0.185 A 
ATOM      4  N   UNL d   1      32.412  17.481 -24.180  0.00  0.00    -0.040 NA
ATOM      5  N   UNL d   1      31.272  18.140 -24.523  0.00  0.00    -0.040 NA
ATOM      6  C   UNL d   1      32.002  18.145 -24.226  0.00  0.00     0.753 A 
ATOM      7  N   UNL d   1      32.190  15.458 -24.637  0.00  0.00    -0.162 NA
ATOM      8  N   UNL d   1      32.513  16.140 -24.382  0.00  0.00    -0.208 N 
ATOM      9  C   UNL d   1      31.460  15.453 -24.934  0.00  0.00     0.127 A 
ATOM     10  C   UNL d   1      33.239  16.146 -24.087  0.00  0.00     0.123 C 
ENDROOT
BRANCH   3  11
ATOM     11  N   UNL d   1      30.188  17.472 -25.083  0.00  0.00    -0.226 NA
BRANCH  11  12
ATOM     12  C   UNL d   1      29.538  17.417 -24.584  0.00  0.00     0.083 A 
ATOM     13  C   UNL d   1      29.157  18.101 -24.304  0.00  0.00     0.021 A 
ATOM     14  C   UNL d   1      28.504  18.048 -23.802  0.00  0.00     0.031 A 
ATOM     15  C   UNL d   1      28.224  17.299 -23.575  0.00  0.00     0.140 A 
ATOM     16  C   UNL d   1      28.597  16.620 -23.849  0.00  0.00     0.031 A 
ATOM     17  F   UNL d   1      27.574  17.235 -23.075  0.00  0.00    -0.204 F 
ATOM     18  C   UNL d   1      29.255  16.678 -24.355  0.00  0.00     0.021 A 
ENDBRANCH  11  12
ENDBRANCH   3  11
BRANCH   6  19
ATOM     19  N   UNL d   1      32.334  18.859 -23.962  0.00  0.00    -0.058 NA
BRANCH  19  20
ATOM     20  C   UNL d   1      32.654  18.907 -23.195  0.00  0.00     0.118 C 
BRANCH  20  21
ATOM     21  C   UNL d   1      32.821  19.520 -22.667  0.00  0.00     0.020 A 
ATOM     22  C   UNL d   1      33.076  20.259 -22.943  0.00  0.00     0.002 A 
ATOM     23  C   UNL d   1      33.241  20.866 -22.398  0.00  0.00     0.000 A 
ATOM     24  C   UNL d   1      33.150  20.737 -21.593  0.00  0.00     0.000 A 
ATOM     25  C   UNL d   1      32.897  20.006 -21.318  0.00  0.00     0.000 A 
ATOM     26  C   UNL d   1      32.733  19.399 -21.854  0.00  0.00     0.002 A 
ENDBRANCH  20  21
ENDBRANCH  19  20
ENDBRANCH   6  19
TORSDOF 5
ENDMDL
MODEL 2
REMARK VINA RESULT:      -1.4      3.242      5.767
REMARK  5 active torsions:
REMARK  status: ('A' for Active; 'I' for Inactive)
REMARK    1  A    between atoms: N_10  and  C_3 
REMARK    2  A    between atoms: N_11  and  C_6 
REMARK    3  A    between atoms: C_12  and  N_10 
REMARK    4  A    between atoms: C_13  and  N_11 
REMARK    5  A    between atoms: C_21  and  C_13 
ROOT
ATOM      1  C   UNL d   1      33.022  22.169 -23.783  0.00  0.00     0.187 A 
ATOM      2  C   UNL d   1      33.076  22.724 -23.226  0.00  0.00     0.094 A 
ATOM      3  C   UNL d   1      33.184  22.518 -22.470  0.00  0.00     0.185 A 
ATOM      4  N   UNL d   1      33.075  21.411 -23.592  0.00  0.00    -0.040 NA
ATOM      5  N   UNL d   1      33.236  21.756 -22.286  0.00  0.00    -0.040 NA
ATOM      6  C   UNL d   1      33.182  21.204 -22.846  0.00  0.00     0.753 A 
ATOM      7  N   UNL d   1      32.860  23.145 -24.730  0.00  0.00    -0.162 NA
ATOM      8  N   UNL d   1      32.914  22.374 -24.538  0.00  0.00    -0.208 N 
ATOM      9  C   UNL d   1      32.914  23.697 -24.171  0.00  0.00     0.127 A 
ATOM     10  C   UNL d   1      32.861  21.825 -25.095  0.00  0.00     0.123 C 
ENDROOT
BRANCH   3  11
ATOM     11  N   UNL d   1      33.241  23.087 -21.882  0.00  0.00    -0.226 NA
BRANCH  11  12
ATOM     12  C   UNL d   1      32.809  23.011 -21.188  0.00  0.00     0.083 A 
ATOM     13  C   UNL d   1      33.142  22.651 -20.516  0.00  0.00     0.021 A 
ATOM     14  C   UNL d   1      32.709  22.573 -19.817  0.00  0.00     0.031 A 
ATOM     15  C   UNL d   1      31.929  22.860 -19.787  0.00  0.00     0.140 A 
ATOM     16  C   UNL d   1      31.595  23.217 -20.447  0.00  0.00     0.031 A 
ATOM     17  F   UNL d   1      31.490  22.788 -19.095  0.00  0.00    -0.204 F 
ATOM     18  C   UNL d   1      32.035  23.293 -21.150  0.00  0.00     0.021 A 
ENDBRANCH  11  12
ENDBRANCH   3  11
BRANCH   6  19
ATOM     19  N   UNL d   1      33.239  20.401 -22.640  0.00  0.00    -0.058 NA
BRANCH  19  20
ATOM     20  C   UNL d   1      32.885  19.824 -23.124  0.00  0.00     0.118 C 
BRANCH  20  21
ATOM     21  C   UNL d   1      32.846  19.000 -23.119  0.00  0.00     0.020 A 
ATOM     22  C   UNL d   1      33.188  18.563 -22.503  0.00  0.00     0.002 A 
ATOM     23  C   UNL d   1      33.140  17.732 -22.513  0.00  0.00     0.000 A 
ATOM     24  C   UNL d   1      32.757  17.346 -23.128  0.00  0.00     0.000 A 
ATOM     25  C   UNL d   1      32.418  17.777 -23.739  0.00  0.00     0.000 A 
ATOM     26  C   UNL d   1      32.463  18.602 -23.734  0.00  0.00     0.002 A 
ENDBRANCH  20  21
ENDBRANCH  19  20
ENDBRANCH   6  19
TORSDOF 5
ENDMDL
