MODEL 1
REMARK VINA RESULT:      46.5      0.000      0.000
REMARK  8 active torsions:
REMARK  status: ('A' for Active; 'I' for Inactive)
REMARK    1  A    between atoms: S_7  and  C_3 
REMARK    2  A    between atoms: C_8  and  C_4 
REMARK    3  A    between atoms: C_14  and  S_7 
REMARK    4  A    between atoms: C_17  and  C_8 
REMARK    5  A    between atoms: C_9  and  C_14 
REMARK       I    between atoms: N_12  and  C_9 
REMARK    6  A    between atoms: C_15  and  N_12 
REMARK    7  A    between atoms: O_22  and  C_16 
REMARK    8  A    between atoms: C_23  and  O_22 
ROOT
ATOM      1  N   UNL d   1      13.204  13.136  -4.175  0.00  0.00    -0.149 N 
ATOM      2  C   UNL d   1      13.194  12.469  -3.719  0.00  0.00     0.303 A 
ATOM      3  C   UNL d   1      13.578  13.822  -3.912  0.00  0.00     0.220 A 
ATOM      4  C   UNL d   1      13.562  12.485  -2.987  0.00  0.00     0.161 A 
ATOM      5  N   UNL d   1      13.936  13.151  -2.708  0.00  0.00    -0.141 NA
ATOM      6  N   UNL d   1      13.946  13.817  -3.165  0.00  0.00    -0.121 NA
ATOM      7  O   UNL d   1      12.815  11.779  -3.989  0.00  0.00    -0.263 OA
ATOM      8  N   UNL d   1      12.835  13.153  -4.931  0.00  0.00    -0.037 N 
ENDROOT
BRANCH   3   9
ATOM      9  S   UNL d   1      13.592  14.499  -4.368  0.00  0.00    -0.041 SA
BRANCH   9  10
ATOM     10  C   UNL d   1      14.034  15.157  -4.117  0.00  0.00     0.101 C 
BRANCH  10  11
ATOM     11  C   UNL d   1      13.948  15.868  -4.509  0.00  0.00     0.286 C 
ATOM     12  N   UNL d   1      14.617  16.302  -4.718  0.00  0.00    -0.208 NA
ATOM     13  O   UNL d   1      13.212  16.185  -4.713  0.00  0.00    -0.265 OA
BRANCH  12  14
ATOM     14  C   UNL d   1      14.547  17.014  -5.110  0.00  0.00     0.085 A 
ATOM     15  C   UNL d   1      14.111  17.084  -5.816  0.00  0.00     0.021 A 
ATOM     16  C   UNL d   1      14.048  17.812  -6.201  0.00  0.00     0.026 A 
ATOM     17  C   UNL d   1      14.408  18.481  -5.908  0.00  0.00     0.100 A 
ATOM     18  C   UNL d   1      14.844  18.411  -5.202  0.00  0.00     0.026 A 
ATOM     19  C   UNL d   1      14.913  17.712  -4.817  0.00  0.00     0.021 A 
BRANCH  17  20
ATOM     20  O   UNL d   1      14.339  19.179  -6.292  0.00  0.00    -0.305 OA
BRANCH  20  21
ATOM     21  C   UNL d   1      13.882  19.799  -5.992  0.00  0.00     0.123 C 
ATOM     22  C   UNL d   1      14.211  20.533  -5.807  0.00  0.00     0.029 C 
ENDBRANCH  20  21
ENDBRANCH  17  20
ENDBRANCH  12  14
ENDBRANCH  10  11
ENDBRANCH   9  10
ENDBRANCH   3   9
BRANCH   4  23
ATOM     23  C   UNL d   1      13.552  11.791  -2.511  0.00  0.00     0.026 C 
BRANCH  23  24
ATOM     24  C   UNL d   1      13.884  11.814  -1.769  0.00  0.00     0.002 A 
ATOM     25  C   UNL d   1      13.427  11.864  -1.091  0.00  0.00     0.000 A 
ATOM     26  C   UNL d   1      13.759  11.887  -0.357  0.00  0.00     0.000 A 
ATOM     27  C   UNL d   1      14.597  11.860  -0.282  0.00  0.00     0.000 A 
ATOM     28  C   UNL d   1      15.071  11.810  -0.960  0.00  0.00     0.000 A 
ATOM     29  C   UNL d   1      14.721  11.788  -1.694  0.00  0.00     0.000 A 
ENDBRANCH  23  24
ENDBRANCH   4  23
TORSDOF 8
ENDMDL
