MODEL 1
REMARK VINA RESULT:      -5.2      0.000      0.000
REMARK  7 active torsions:
REMARK  status: ('A' for Active; 'I' for Inactive)
REMARK    1  A    between atoms: S_2  and  C_1 
REMARK    2  A    between atoms: C_8  and  S_2 
REMARK    3  A    between atoms: N_16  and  C_6 
REMARK    4  A    between atoms: N_9  and  C_22 
REMARK    5  A    between atoms: C_24  and  N_16 
REMARK    6  A    between atoms: C_22  and  C_23 
REMARK    7  A    between atoms: C_23  and  C_24 
ROOT
ATOM      1  C   UNL d   1     -45.704  13.097  22.405  0.00  0.00     0.187 A 
ATOM      2  N   UNL d   1     -45.145  13.301  21.846  0.00  0.00    -0.208 NA
ATOM      3  C   UNL d   1     -45.449  12.416  22.793  0.00  0.00     0.118 A 
ATOM      4  S   UNL d   1     -44.733  12.203  22.470  0.00  0.00    -0.035 SA
ATOM      5  C   UNL d   1     -44.538  12.749  21.880  0.00  0.00     0.196 A 
ATOM      6 CL   UNL d   1     -45.843  12.021  23.395  0.00  0.00    -0.073 Cl
ENDROOT
BRANCH   1   7
ATOM      7  S   UNL d   1     -46.403  13.503  22.555  0.00  0.00     0.228 S 
ATOM      8  O   UNL d   1     -46.088  13.843  23.230  0.00  0.00    -0.216 OA
ATOM      9  O   UNL d   1     -46.721  13.160  21.873  0.00  0.00    -0.216 OA
BRANCH   7  10
ATOM     10  C   UNL d   1     -47.122  13.891  22.666  0.00  0.00     0.089 A 
ATOM     11  C   UNL d   1     -47.800  13.471  22.856  0.00  0.00     0.011 A 
ATOM     12  C   UNL d   1     -48.519  13.858  22.967  0.00  0.00     0.001 A 
ATOM     13  C   UNL d   1     -48.558  14.682  22.887  0.00  0.00     0.000 A 
ATOM     14  C   UNL d   1     -47.879  15.111  22.697  0.00  0.00     0.001 A 
ATOM     15  C   UNL d   1     -49.276  15.078  22.997  0.00  0.00     0.000 C 
ATOM     16  C   UNL d   1     -47.159  14.724  22.585  0.00  0.00     0.011 A 
ENDBRANCH   7  10
ENDBRANCH   1   7
BRANCH   5  17
ATOM     17  N   UNL d   1     -43.859  12.745  21.410  0.00  0.00    -0.220 NA
BRANCH  17  18
ATOM     18  C   UNL d   1     -43.186  13.150  21.664  0.00  0.00     0.103 C 
BRANCH  18  19
ATOM     19  C   UNL d   1     -42.627  13.398  21.108  0.00  0.00     0.040 C 
BRANCH  19  20
ATOM     20  C   UNL d   1     -41.871  13.616  21.360  0.00  0.00     0.083 C 
BRANCH  20  21
ATOM     21  N   UNL d   1     -41.407  14.095  20.881  0.00  0.00    -0.285 N 
ATOM     22  C   UNL d   1     -40.971  13.854  20.232  0.00  0.00     0.183 A 
ATOM     23  N   UNL d   1     -40.594  14.513  19.919  0.00  0.00    -0.222 NA
ATOM     24  C   UNL d   1     -40.800  15.158  20.375  0.00  0.00     0.120 A 
ATOM     25  C   UNL d   1     -41.304  14.903  20.973  0.00  0.00     0.102 A 
ENDBRANCH  20  21
ENDBRANCH  19  20
ENDBRANCH  18  19
ENDBRANCH  17  18
ENDBRANCH   5  17
TORSDOF 7
ENDMDL
MODEL 2
REMARK VINA RESULT:      -5.0      1.295      1.761
REMARK  7 active torsions:
REMARK  status: ('A' for Active; 'I' for Inactive)
REMARK    1  A    between atoms: S_2  and  C_1 
REMARK    2  A    between atoms: C_8  and  S_2 
REMARK    3  A    between atoms: N_16  and  C_6 
REMARK    4  A    between atoms: N_9  and  C_22 
REMARK    5  A    between atoms: C_24  and  N_16 
REMARK    6  A    between atoms: C_22  and  C_23 
REMARK    7  A    between atoms: C_23  and  C_24 
ROOT
ATOM      1  C   UNL d   1     -47.180  13.133  22.554  0.00  0.00     0.187 A 
ATOM      2  N   UNL d   1     -46.510  13.492  22.257  0.00  0.00    -0.208 NA
ATOM      3  C   UNL d   1     -46.949  12.536  23.073  0.00  0.00     0.118 A 
ATOM      4  S   UNL d   1     -46.135  12.530  23.094  0.00  0.00    -0.035 SA
ATOM      5  C   UNL d   1     -45.856  13.122  22.588  0.00  0.00     0.196 A 
ATOM      6 CL   UNL d   1     -47.445  12.036  23.494  0.00  0.00    -0.073 Cl
ENDROOT
BRANCH   1   7
ATOM      7  S   UNL d   1     -47.955  13.333  22.366  0.00  0.00     0.228 S 
ATOM      8  O   UNL d   1     -48.007  13.835  23.012  0.00  0.00    -0.216 OA
ATOM      9  O   UNL d   1     -47.903  12.827  21.714  0.00  0.00    -0.216 OA
BRANCH   7  10
ATOM     10  C   UNL d   1     -48.729  13.506  22.140  0.00  0.00     0.089 A 
ATOM     11  C   UNL d   1     -49.112  13.051  21.576  0.00  0.00     0.011 A 
ATOM     12  C   UNL d   1     -49.886  13.223  21.350  0.00  0.00     0.001 A 
ATOM     13  C   UNL d   1     -50.283  13.863  21.697  0.00  0.00     0.000 A 
ATOM     14  C   UNL d   1     -49.902  14.325  22.266  0.00  0.00     0.001 A 
ATOM     15  C   UNL d   1     -51.059  14.041  21.475  0.00  0.00     0.000 C 
ATOM     16  C   UNL d   1     -49.128  14.152  22.492  0.00  0.00     0.011 A 
ENDBRANCH   7  10
ENDBRANCH   1   7
BRANCH   5  17
ATOM     17  N   UNL d   1     -45.065  13.311  22.440  0.00  0.00    -0.220 NA
BRANCH  17  18
ATOM     18  C   UNL d   1     -44.646  12.887  21.870  0.00  0.00     0.103 C 
BRANCH  18  19
ATOM     19  C   UNL d   1     -43.976  13.224  21.524  0.00  0.00     0.040 C 
BRANCH  19  20
ATOM     20  C   UNL d   1     -43.300  12.762  21.410  0.00  0.00     0.083 C 
BRANCH  20  21
ATOM     21  N   UNL d   1     -42.614  13.113  21.126  0.00  0.00    -0.285 N 
ATOM     22  C   UNL d   1     -42.478  13.358  20.358  0.00  0.00     0.183 A 
ATOM     23  N   UNL d   1     -41.722  13.677  20.321  0.00  0.00    -0.222 NA
ATOM     24  C   UNL d   1     -41.394  13.627  21.067  0.00  0.00     0.120 A 
ATOM     25  C   UNL d   1     -41.944  13.278  21.570  0.00  0.00     0.102 A 
ENDBRANCH  20  21
ENDBRANCH  19  20
ENDBRANCH  18  19
ENDBRANCH  17  18
ENDBRANCH   5  17
TORSDOF 7
ENDMDL
MODEL 3
REMARK VINA RESULT:      -4.4      3.597      7.085
REMARK  7 active torsions:
REMARK  status: ('A' for Active; 'I' for Inactive)
REMARK    1  A    between atoms: S_2  and  C_1 
REMARK    2  A    between atoms: C_8  and  S_2 
REMARK    3  A    between atoms: N_16  and  C_6 
REMARK    4  A    between atoms: N_9  and  C_22 
REMARK    5  A    between atoms: C_24  and  N_16 
REMARK    6  A    between atoms: C_22  and  C_23 
REMARK    7  A    between atoms: C_23  and  C_24 
ROOT
ATOM      1  C   UNL d   1     -40.571  14.372  19.610  0.00  0.00     0.187 A 
ATOM      2  N   UNL d   1     -41.037  13.785  19.935  0.00  0.00    -0.208 NA
ATOM      3  C   UNL d   1     -40.557  15.012  20.128  0.00  0.00     0.118 A 
ATOM      4  S   UNL d   1     -41.014  14.816  20.773  0.00  0.00    -0.035 SA
ATOM      5  C   UNL d   1     -41.316  14.054  20.658  0.00  0.00     0.196 A 
ATOM      6 CL   UNL d   1     -40.156  15.720  20.020  0.00  0.00    -0.073 Cl
ENDROOT
BRANCH   1   7
ATOM      7  S   UNL d   1     -40.183  14.331  18.886  0.00  0.00     0.228 S 
ATOM      8  O   UNL d   1     -40.772  14.765  18.518  0.00  0.00    -0.216 OA
ATOM      9  O   UNL d   1     -39.588  13.892  19.258  0.00  0.00    -0.216 OA
BRANCH   7  10
ATOM     10  C   UNL d   1     -39.759  14.264  18.182  0.00  0.00     0.089 A 
ATOM     11  C   UNL d   1     -39.062  13.834  18.152  0.00  0.00     0.011 A 
ATOM     12  C   UNL d   1     -38.638  13.768  17.447  0.00  0.00     0.001 A 
ATOM     13  C   UNL d   1     -38.919  14.139  16.762  0.00  0.00     0.000 A 
ATOM     14  C   UNL d   1     -39.621  14.573  16.786  0.00  0.00     0.001 A 
ATOM     15  C   UNL d   1     -38.499  14.076  16.052  0.00  0.00     0.000 C 
ATOM     16  C   UNL d   1     -40.045  14.640  17.490  0.00  0.00     0.011 A 
ENDBRANCH   7  10
ENDBRANCH   1   7
BRANCH   5  17
ATOM     17  N   UNL d   1     -41.808  13.637  21.174  0.00  0.00    -0.220 NA
BRANCH  17  18
ATOM     18  C   UNL d   1     -42.588  13.479  20.955  0.00  0.00     0.103 C 
BRANCH  18  19
ATOM     19  C   UNL d   1     -43.099  13.123  21.497  0.00  0.00     0.040 C 
BRANCH  19  20
ATOM     20  C   UNL d   1     -43.871  12.938  21.268  0.00  0.00     0.083 C 
BRANCH  20  21
ATOM     21  N   UNL d   1     -44.445  12.817  21.843  0.00  0.00    -0.285 N 
ATOM     22  C   UNL d   1     -44.457  12.217  22.397  0.00  0.00     0.183 A 
ATOM     23  N   UNL d   1     -45.130  12.309  22.860  0.00  0.00    -0.222 NA
ATOM     24  C   UNL d   1     -45.530  12.967  22.589  0.00  0.00     0.120 A 
ATOM     25  C   UNL d   1     -45.108  13.286  21.958  0.00  0.00     0.102 A 
ENDBRANCH  20  21
ENDBRANCH  19  20
ENDBRANCH  18  19
ENDBRANCH  17  18
ENDBRANCH   5  17
TORSDOF 7
ENDMDL
MODEL 4
REMARK VINA RESULT:      -3.8      6.556      8.174
REMARK  7 active torsions:
REMARK  status: ('A' for Active; 'I' for Inactive)
REMARK    1  A    between atoms: S_2  and  C_1 
REMARK    2  A    between atoms: C_8  and  S_2 
REMARK    3  A    between atoms: N_16  and  C_6 
REMARK    4  A    between atoms: N_9  and  C_22 
REMARK    5  A    between atoms: C_24  and  N_16 
REMARK    6  A    between atoms: C_22  and  C_23 
REMARK    7  A    between atoms: C_23  and  C_24 
ROOT
ATOM      1  C   UNL d   1     -39.769  14.943  18.012  0.00  0.00     0.187 A 
ATOM      2  N   UNL d   1     -39.584  14.674  18.761  0.00  0.00    -0.208 NA
ATOM      3  C   UNL d   1     -40.394  15.476  18.073  0.00  0.00     0.118 A 
ATOM      4  S   UNL d   1     -40.592  15.534  18.861  0.00  0.00    -0.035 SA
ATOM      5  C   UNL d   1     -40.091  15.037  19.294  0.00  0.00     0.196 A 
ATOM      6 CL   UNL d   1     -40.755  15.878  17.456  0.00  0.00    -0.073 Cl
ENDROOT
BRANCH   1   7
ATOM      7  S   UNL d   1     -39.395  14.719  17.316  0.00  0.00     0.228 S 
ATOM      8  O   UNL d   1     -39.189  15.493  17.148  0.00  0.00    -0.216 OA
ATOM      9  O   UNL d   1     -39.602  13.936  17.484  0.00  0.00    -0.216 OA
BRANCH   7  10
ATOM     10  C   UNL d   1     -39.031  14.448  16.627  0.00  0.00     0.089 A 
ATOM     11  C   UNL d   1     -38.714  13.694  16.589  0.00  0.00     0.011 A 
ATOM     12  C   UNL d   1     -38.350  13.423  15.899  0.00  0.00     0.001 A 
ATOM     13  C   UNL d   1     -38.304  13.920  15.238  0.00  0.00     0.000 A 
ATOM     14  C   UNL d   1     -38.622  14.681  15.270  0.00  0.00     0.001 A 
ATOM     15  C   UNL d   1     -37.941  13.655  14.543  0.00  0.00     0.000 C 
ATOM     16  C   UNL d   1     -38.985  14.951  15.959  0.00  0.00     0.011 A 
ENDBRANCH   7  10
ENDBRANCH   1   7
BRANCH   5  17
ATOM     17  N   UNL d   1     -40.098  14.925  20.112  0.00  0.00    -0.220 NA
BRANCH  17  18
ATOM     18  C   UNL d   1     -39.411  15.069  20.548  0.00  0.00     0.103 C 
BRANCH  18  19
ATOM     19  C   UNL d   1     -39.378  14.843  21.342  0.00  0.00     0.040 C 
BRANCH  19  20
ATOM     20  C   UNL d   1     -38.832  14.272  21.581  0.00  0.00     0.083 C 
BRANCH  20  21
ATOM     21  N   UNL d   1     -38.763  14.088  22.379  0.00  0.00    -0.285 N 
ATOM     22  C   UNL d   1     -38.741  14.621  22.998  0.00  0.00     0.183 A 
ATOM     23  N   UNL d   1     -38.668  14.196  23.698  0.00  0.00    -0.222 NA
ATOM     24  C   UNL d   1     -38.644  13.403  23.507  0.00  0.00     0.120 A 
ATOM     25  C   UNL d   1     -38.703  13.331  22.689  0.00  0.00     0.102 A 
ENDBRANCH  20  21
ENDBRANCH  19  20
ENDBRANCH  18  19
ENDBRANCH  17  18
ENDBRANCH   5  17
TORSDOF 7
ENDMDL
MODEL 5
REMARK VINA RESULT:      -3.2      6.124      7.335
REMARK  7 active torsions:
REMARK  status: ('A' for Active; 'I' for Inactive)
REMARK    1  A    between atoms: S_2  and  C_1 
REMARK    2  A    between atoms: C_8  and  S_2 
REMARK    3  A    between atoms: N_16  and  C_6 
REMARK    4  A    between atoms: N_9  and  C_22 
REMARK    5  A    between atoms: C_24  and  N_16 
REMARK    6  A    between atoms: C_22  and  C_23 
REMARK    7  A    between atoms: C_23  and  C_24 
ROOT
ATOM      1  C   UNL d   1     -39.755  14.636  19.854  0.00  0.00     0.187 A 
ATOM      2  N   UNL d   1     -39.372  14.156  19.315  0.00  0.00    -0.208 NA
ATOM      3  C   UNL d   1     -40.430  14.943  19.496  0.00  0.00     0.118 A 
ATOM      4  S   UNL d   1     -40.462  14.651  18.737  0.00  0.00    -0.035 SA
ATOM      5  C   UNL d   1     -39.806  14.160  18.618  0.00  0.00     0.196 A 
ATOM      6 CL   UNL d   1     -40.976  15.452  19.838  0.00  0.00    -0.073 Cl
ENDROOT
BRANCH   1   7
ATOM      7  S   UNL d   1     -39.507  14.788  20.623  0.00  0.00     0.228 S 
ATOM      8  O   UNL d   1     -40.157  14.398  20.934  0.00  0.00    -0.216 OA
ATOM      9  O   UNL d   1     -38.850  15.181  20.309  0.00  0.00    -0.216 OA
BRANCH   7  10
ATOM     10  C   UNL d   1     -39.220  14.962  21.376  0.00  0.00     0.089 A 
ATOM     11  C   UNL d   1     -39.016  15.729  21.580  0.00  0.00     0.011 A 
ATOM     12  C   UNL d   1     -38.729  15.903  22.333  0.00  0.00     0.001 A 
ATOM     13  C   UNL d   1     -38.647  15.297  22.892  0.00  0.00     0.000 A 
ATOM     14  C   UNL d   1     -38.851  14.522  22.693  0.00  0.00     0.001 A 
ATOM     15  C   UNL d   1     -38.360  15.464  23.649  0.00  0.00     0.000 C 
ATOM     16  C   UNL d   1     -39.138  14.348  21.939  0.00  0.00     0.011 A 
ENDBRANCH   7  10
ENDBRANCH   1   7
BRANCH   5  17
ATOM     17  N   UNL d   1     -39.618  13.748  17.928  0.00  0.00    -0.220 NA
BRANCH  17  18
ATOM     18  C   UNL d   1     -38.830  13.689  17.691  0.00  0.00     0.103 C 
BRANCH  18  19
ATOM     19  C   UNL d   1     -38.653  13.545  16.897  0.00  0.00     0.040 C 
BRANCH  19  20
ATOM     20  C   UNL d   1     -37.943  13.824  16.580  0.00  0.00     0.083 C 
BRANCH  20  21
ATOM     21  N   UNL d   1     -37.960  14.329  15.933  0.00  0.00    -0.285 N 
ATOM     22  C   UNL d   1     -37.940  15.146  15.954  0.00  0.00     0.183 A 
ATOM     23  N   UNL d   1     -37.968  15.422  15.180  0.00  0.00    -0.222 NA
ATOM     24  C   UNL d   1     -38.005  14.774  14.686  0.00  0.00     0.120 A 
ATOM     25  C   UNL d   1     -38.000  14.094  15.148  0.00  0.00     0.102 A 
ENDBRANCH  20  21
ENDBRANCH  19  20
ENDBRANCH  18  19
ENDBRANCH  17  18
ENDBRANCH   5  17
TORSDOF 7
ENDMDL
