MODEL 1
REMARK VINA RESULT:      -8.5      0.000      0.000
REMARK  9 active torsions:
REMARK  status: ('A' for Active; 'I' for Inactive)
REMARK    1  A    between atoms: N_2  and  S_1 
REMARK    2  A    between atoms: C_9  and  S_1 
REMARK    3  A    between atoms: C_4  and  N_2 
REMARK    4  A    between atoms: O_19  and  C_6 
REMARK    5  A    between atoms: O_22  and  C_7 
REMARK       I    between atoms: C_12  and  N_13 
REMARK    6  A    between atoms: C_20  and  C_12 
REMARK    7  A    between atoms: N_13  and  C_17 
REMARK    8  A    between atoms: O_18  and  C_20 
REMARK    9  A    between atoms: C_21  and  O_18 
ROOT
ATOM      1  C   UNL d   1      51.579  33.931  52.678  0.00  0.00     0.105 A 
ATOM      2  C   UNL d   1      51.067  33.806  53.313  0.00  0.00     0.015 A 
ATOM      3  C   UNL d   1      51.313  34.274  51.998  0.00  0.00     0.015 A 
ATOM      4  C   UNL d   1      50.021  34.382  52.554  0.00  0.00     0.085 A 
ATOM      5  C   UNL d   1      50.277  34.032  53.257  0.00  0.00     0.020 A 
ATOM      6  C   UNL d   1      50.523  34.507  51.925  0.00  0.00     0.020 A 
ENDROOT
BRANCH   1   7
ATOM      7  S   UNL d   1      52.381  33.700  52.738  0.00  0.00     0.287 S 
ATOM      8  O   UNL d   1      52.531  34.373  53.209  0.00  0.00    -0.198 OA
ATOM      9  O   UNL d   1      52.216  33.039  52.272  0.00  0.00    -0.198 OA
BRANCH   7  10
ATOM     10  N   UNL d   1      53.175  33.478  52.803  0.00  0.00    -0.139 NA
BRANCH  10  11
ATOM     11  C   UNL d   1      53.416  32.909  53.343  0.00  0.00     0.182 A 
ATOM     12  N   UNL d   1      53.397  32.129  53.147  0.00  0.00    -0.185 NA
ATOM     13  C   UNL d   1      53.641  31.551  53.693  0.00  0.00     0.274 A 
ATOM     14  N   UNL d   1      53.898  31.757  54.419  0.00  0.00    -0.181 NA
ATOM     15  C   UNL d   1      53.924  32.546  54.636  0.00  0.00     0.185 A 
ATOM     16  C   UNL d   1      53.673  33.143  54.074  0.00  0.00     0.084 A 
BRANCH  13  17
ATOM     17  O   UNL d   1      53.617  30.737  53.477  0.00  0.00    -0.297 OA
ATOM     18  C   UNL d   1      53.266  30.174  53.954  0.00  0.00     0.185 C 
ENDBRANCH  13  17
BRANCH  15  19
ATOM     19  O   UNL d   1      54.199  32.733  55.406  0.00  0.00    -0.312 OA
ATOM     20  C   UNL d   1      54.742  33.346  55.494  0.00  0.00     0.183 C 
ENDBRANCH  15  19
ENDBRANCH  10  11
ENDBRANCH   7  10
ENDBRANCH   1   7
BRANCH   4  21
ATOM     21  N   UNL d   1      49.226  34.618  52.477  0.00  0.00    -0.206 NA
ATOM     22  C   UNL d   1      48.969  35.247  52.877  0.00  0.00     0.304 C 
ATOM     23  O   UNL d   1      49.472  35.695  53.386  0.00  0.00    -0.263 OA
BRANCH  22  24
ATOM     24  C   UNL d   1      48.166  35.500  52.811  0.00  0.00     0.185 C 
BRANCH  24  25
ATOM     25  O   UNL d   1      47.844  36.096  53.275  0.00  0.00    -0.300 OA
BRANCH  25  26
ATOM     26  C   UNL d   1      47.057  36.255  53.213  0.00  0.00     0.100 A 
ATOM     27  C   UNL d   1      46.566  36.123  53.877  0.00  0.00     0.025 A 
ATOM     28  C   UNL d   1      45.738  36.280  53.842  0.00  0.00     0.002 A 
ATOM     29  C   UNL d   1      45.421  36.551  53.189  0.00  0.00     0.000 A 
ATOM     30  C   UNL d   1      45.920  36.692  52.496  0.00  0.00     0.002 A 
ATOM     31  C   UNL d   1      44.576  36.709  53.165  0.00  0.00     0.000 C 
ATOM     32  C   UNL d   1      46.721  36.533  52.551  0.00  0.00     0.025 A 
ENDBRANCH  25  26
ENDBRANCH  24  25
ENDBRANCH  22  24
ENDBRANCH   4  21
TORSDOF 9
ENDMDL
MODEL 2
REMARK VINA RESULT:      -8.1      0.329      1.315
REMARK  9 active torsions:
REMARK  status: ('A' for Active; 'I' for Inactive)
REMARK    1  A    between atoms: N_2  and  S_1 
REMARK    2  A    between atoms: C_9  and  S_1 
REMARK    3  A    between atoms: C_4  and  N_2 
REMARK    4  A    between atoms: O_19  and  C_6 
REMARK    5  A    between atoms: O_22  and  C_7 
REMARK       I    between atoms: C_12  and  N_13 
REMARK    6  A    between atoms: C_20  and  C_12 
REMARK    7  A    between atoms: N_13  and  C_17 
REMARK    8  A    between atoms: O_18  and  C_20 
REMARK    9  A    between atoms: C_21  and  O_18 
ROOT
ATOM      1  C   UNL d   1      51.532  33.926  52.603  0.00  0.00     0.105 A 
ATOM      2  C   UNL d   1      51.089  33.983  53.298  0.00  0.00     0.015 A 
ATOM      3  C   UNL d   1      51.202  34.109  51.891  0.00  0.00     0.015 A 
ATOM      4  C   UNL d   1      49.982  34.413  52.530  0.00  0.00     0.085 A 
ATOM      5  C   UNL d   1      50.304  34.229  53.268  0.00  0.00     0.020 A 
ATOM      6  C   UNL d   1      50.415  34.358  51.843  0.00  0.00     0.020 A 
ENDROOT
BRANCH   1   7
ATOM      7  S   UNL d   1      52.330  33.675  52.638  0.00  0.00     0.287 S 
ATOM      8  O   UNL d   1      52.522  34.371  53.057  0.00  0.00    -0.198 OA
ATOM      9  O   UNL d   1      52.123  32.992  52.223  0.00  0.00    -0.198 OA
BRANCH   7  10
ATOM     10  N   UNL d   1      53.119  33.434  52.677  0.00  0.00    -0.139 NA
BRANCH  10  11
ATOM     11  C   UNL d   1      53.381  32.922  53.263  0.00  0.00     0.182 A 
ATOM     12  N   UNL d   1      53.601  33.207  53.982  0.00  0.00    -0.185 NA
ATOM     13  C   UNL d   1      53.867  32.690  54.577  0.00  0.00     0.274 A 
ATOM     14  N   UNL d   1      53.909  31.904  54.447  0.00  0.00    -0.181 NA
ATOM     15  C   UNL d   1      53.689  31.596  53.721  0.00  0.00     0.185 A 
ATOM     16  C   UNL d   1      53.415  32.129  53.107  0.00  0.00     0.084 A 
BRANCH  13  17
ATOM     17  O   UNL d   1      54.095  33.000  55.327  0.00  0.00    -0.297 OA
ATOM     18  C   UNL d   1      54.828  33.340  55.449  0.00  0.00     0.185 C 
ENDBRANCH  13  17
BRANCH  15  19
ATOM     19  O   UNL d   1      53.743  30.767  53.614  0.00  0.00    -0.312 OA
ATOM     20  C   UNL d   1      53.067  30.352  53.392  0.00  0.00     0.183 C 
ENDBRANCH  15  19
ENDBRANCH  10  11
ENDBRANCH   7  10
ENDBRANCH   1   7
BRANCH   4  21
ATOM     21  N   UNL d   1      49.190  34.664  52.478  0.00  0.00    -0.206 NA
ATOM     22  C   UNL d   1      48.955  35.292  52.892  0.00  0.00     0.304 C 
ATOM     23  O   UNL d   1      49.480  35.725  53.393  0.00  0.00    -0.263 OA
BRANCH  22  24
ATOM     24  C   UNL d   1      48.155  35.561  52.851  0.00  0.00     0.185 C 
BRANCH  24  25
ATOM     25  O   UNL d   1      47.840  36.111  53.371  0.00  0.00    -0.300 OA
BRANCH  25  26
ATOM     26  C   UNL d   1      47.050  36.266  53.343  0.00  0.00     0.100 A 
ATOM     27  C   UNL d   1      46.586  36.118  54.022  0.00  0.00     0.025 A 
ATOM     28  C   UNL d   1      45.756  36.270  54.023  0.00  0.00     0.002 A 
ATOM     29  C   UNL d   1      45.413  36.552  53.388  0.00  0.00     0.000 A 
ATOM     30  C   UNL d   1      45.883  36.709  52.679  0.00  0.00     0.002 A 
ATOM     31  C   UNL d   1      44.566  36.703  53.399  0.00  0.00     0.000 C 
ATOM     32  C   UNL d   1      46.687  36.555  52.700  0.00  0.00     0.025 A 
ENDBRANCH  25  26
ENDBRANCH  24  25
ENDBRANCH  22  24
ENDBRANCH   4  21
TORSDOF 9
ENDMDL
MODEL 3
REMARK VINA RESULT:      -7.8      1.765      7.092
REMARK  9 active torsions:
REMARK  status: ('A' for Active; 'I' for Inactive)
REMARK    1  A    between atoms: N_2  and  S_1 
REMARK    2  A    between atoms: C_9  and  S_1 
REMARK    3  A    between atoms: C_4  and  N_2 
REMARK    4  A    between atoms: O_19  and  C_6 
REMARK    5  A    between atoms: O_22  and  C_7 
REMARK       I    between atoms: C_12  and  N_13 
REMARK    6  A    between atoms: C_20  and  C_12 
REMARK    7  A    between atoms: N_13  and  C_17 
REMARK    8  A    between atoms: O_18  and  C_20 
REMARK    9  A    between atoms: C_21  and  O_18 
ROOT
ATOM      1  C   UNL d   1      48.902  35.206  52.384  0.00  0.00     0.105 A 
ATOM      2  C   UNL d   1      49.243  35.280  53.132  0.00  0.00     0.015 A 
ATOM      3  C   UNL d   1      49.145  34.628  51.878  0.00  0.00     0.015 A 
ATOM      4  C   UNL d   1      50.075  34.174  52.837  0.00  0.00     0.085 A 
ATOM      5  C   UNL d   1      49.837  34.761  53.368  0.00  0.00     0.020 A 
ATOM      6  C   UNL d   1      49.740  34.098  52.098  0.00  0.00     0.020 A 
ENDROOT
BRANCH   1   7
ATOM      7  S   UNL d   1      48.298  35.736  52.148  0.00  0.00     0.287 S 
ATOM      8  O   UNL d   1      48.471  36.216  52.810  0.00  0.00    -0.198 OA
ATOM      9  O   UNL d   1      48.139  35.251  51.500  0.00  0.00    -0.198 OA
BRANCH   7  10
ATOM     10  N   UNL d   1      47.704  36.263  51.922  0.00  0.00    -0.139 NA
BRANCH  10  11
ATOM     11  C   UNL d   1      46.919  36.135  52.126  0.00  0.00     0.182 A 
ATOM     12  N   UNL d   1      46.435  35.717  51.639  0.00  0.00    -0.185 NA
ATOM     13  C   UNL d   1      45.640  35.586  51.844  0.00  0.00     0.274 A 
ATOM     14  N   UNL d   1      45.341  35.872  52.527  0.00  0.00    -0.181 NA
ATOM     15  C   UNL d   1      45.819  36.300  53.035  0.00  0.00     0.185 A 
ATOM     16  C   UNL d   1      46.640  36.435  52.824  0.00  0.00     0.084 A 
BRANCH  13  17
ATOM     17  O   UNL d   1      45.142  35.146  51.326  0.00  0.00    -0.297 OA
ATOM     18  C   UNL d   1      44.791  35.487  50.672  0.00  0.00     0.185 C 
ENDBRANCH  13  17
BRANCH  15  19
ATOM     19  O   UNL d   1      45.478  36.588  53.745  0.00  0.00    -0.312 OA
ATOM     20  C   UNL d   1      45.159  36.047  54.278  0.00  0.00     0.183 C 
ENDBRANCH  15  19
ENDBRANCH  10  11
ENDBRANCH   7  10
ENDBRANCH   1   7
BRANCH   4  21
ATOM     21  N   UNL d   1      50.674  33.639  53.055  0.00  0.00    -0.206 NA
ATOM     22  C   UNL d   1      51.428  33.833  52.934  0.00  0.00     0.304 C 
ATOM     23  O   UNL d   1      51.656  34.569  52.587  0.00  0.00    -0.263 OA
BRANCH  22  24
ATOM     24  C   UNL d   1      52.049  33.302  53.149  0.00  0.00     0.185 C 
BRANCH  24  25
ATOM     25  O   UNL d   1      52.392  32.775  52.622  0.00  0.00    -0.300 OA
BRANCH  25  26
ATOM     26  C   UNL d   1      52.766  32.124  52.911  0.00  0.00     0.100 A 
ATOM     27  C   UNL d   1      52.468  31.367  52.717  0.00  0.00     0.025 A 
ATOM     28  C   UNL d   1      52.839  30.666  53.005  0.00  0.00     0.002 A 
ATOM     29  C   UNL d   1      53.467  30.717  53.457  0.00  0.00     0.000 A 
ATOM     30  C   UNL d   1      53.785  31.495  53.664  0.00  0.00     0.002 A 
ATOM     31  C   UNL d   1      53.838  29.997  53.745  0.00  0.00     0.000 C 
ATOM     32  C   UNL d   1      53.410  32.162  53.374  0.00  0.00     0.025 A 
ENDBRANCH  25  26
ENDBRANCH  24  25
ENDBRANCH  22  24
ENDBRANCH   4  21
TORSDOF 9
ENDMDL
MODEL 4
REMARK VINA RESULT:      -7.2      2.016      7.207
REMARK  9 active torsions:
REMARK  status: ('A' for Active; 'I' for Inactive)
REMARK    1  A    between atoms: N_2  and  S_1 
REMARK    2  A    between atoms: C_9  and  S_1 
REMARK    3  A    between atoms: C_4  and  N_2 
REMARK    4  A    between atoms: O_19  and  C_6 
REMARK    5  A    between atoms: O_22  and  C_7 
REMARK       I    between atoms: C_12  and  N_13 
REMARK    6  A    between atoms: C_20  and  C_12 
REMARK    7  A    between atoms: N_13  and  C_17 
REMARK    8  A    between atoms: O_18  and  C_20 
REMARK    9  A    between atoms: C_21  and  O_18 
ROOT
ATOM      1  C   UNL d   1      48.396  35.427  52.289  0.00  0.00     0.105 A 
ATOM      2  C   UNL d   1      48.708  35.612  53.031  0.00  0.00     0.015 A 
ATOM      3  C   UNL d   1      48.725  34.843  51.841  0.00  0.00     0.015 A 
ATOM      4  C   UNL d   1      49.685  34.605  52.847  0.00  0.00     0.085 A 
ATOM      5  C   UNL d   1      49.360  35.200  53.319  0.00  0.00     0.020 A 
ATOM      6  C   UNL d   1      49.380  34.419  52.116  0.00  0.00     0.020 A 
ENDROOT
BRANCH   1   7
ATOM      7  S   UNL d   1      47.733  35.848  51.999  0.00  0.00     0.287 S 
ATOM      8  O   UNL d   1      47.851  36.425  52.591  0.00  0.00    -0.198 OA
ATOM      9  O   UNL d   1      47.630  35.268  51.421  0.00  0.00    -0.198 OA
BRANCH   7  10
ATOM     10  N   UNL d   1      47.080  36.269  51.719  0.00  0.00    -0.139 NA
BRANCH  10  11
ATOM     11  C   UNL d   1      46.314  36.050  51.917  0.00  0.00     0.182 A 
ATOM     12  N   UNL d   1      46.095  35.993  52.689  0.00  0.00    -0.185 NA
ATOM     13  C   UNL d   1      45.320  35.772  52.892  0.00  0.00     0.274 A 
ATOM     14  N   UNL d   1      44.778  35.612  52.328  0.00  0.00    -0.181 NA
ATOM     15  C   UNL d   1      44.984  35.665  51.537  0.00  0.00     0.185 A 
ATOM     16  C   UNL d   1      45.783  35.893  51.327  0.00  0.00     0.084 A 
BRANCH  13  17
ATOM     17  O   UNL d   1      45.101  35.715  53.704  0.00  0.00    -0.297 OA
ATOM     18  C   UNL d   1      44.701  35.066  53.999  0.00  0.00     0.185 C 
ENDBRANCH  13  17
BRANCH  15  19
ATOM     19  O   UNL d   1      44.395  35.492  50.966  0.00  0.00    -0.312 OA
ATOM     20  C   UNL d   1      44.343  34.724  50.673  0.00  0.00     0.183 C 
ENDBRANCH  15  19
ENDBRANCH  10  11
ENDBRANCH   7  10
ENDBRANCH   1   7
BRANCH   4  21
ATOM     21  N   UNL d   1      50.344  34.177  53.121  0.00  0.00    -0.206 NA
ATOM     22  C   UNL d   1      51.007  34.173  52.694  0.00  0.00     0.304 C 
ATOM     23  O   UNL d   1      51.075  34.591  51.963  0.00  0.00    -0.263 OA
BRANCH  22  24
ATOM     24  C   UNL d   1      51.685  33.744  52.955  0.00  0.00     0.185 C 
BRANCH  24  25
ATOM     25  O   UNL d   1      52.447  34.049  52.927  0.00  0.00    -0.300 OA
BRANCH  25  26
ATOM     26  C   UNL d   1      52.985  33.802  53.473  0.00  0.00     0.100 A 
ATOM     27  C   UNL d   1      53.206  34.326  54.086  0.00  0.00     0.025 A 
ATOM     28  C   UNL d   1      53.768  34.096  54.673  0.00  0.00     0.002 A 
ATOM     29  C   UNL d   1      54.087  33.391  54.648  0.00  0.00     0.000 A 
ATOM     30  C   UNL d   1      53.866  32.840  54.018  0.00  0.00     0.002 A 
ATOM     31  C   UNL d   1      54.659  33.167  55.251  0.00  0.00     0.000 C 
ATOM     32  C   UNL d   1      53.319  33.083  53.460  0.00  0.00     0.025 A 
ENDBRANCH  25  26
ENDBRANCH  24  25
ENDBRANCH  22  24
ENDBRANCH   4  21
TORSDOF 9
ENDMDL
