MODEL 1
REMARK VINA RESULT:      11.5      0.000      0.000
REMARK  5 active torsions:
REMARK  status: ('A' for Active; 'I' for Inactive)
REMARK    1  A    between atoms: C_6  and  N_1 
REMARK    2  A    between atoms: C_10  and  C_3 
REMARK    3  A    between atoms: C_7  and  C_6 
REMARK    4  A    between atoms: C_13  and  C_10 
REMARK    5  A    between atoms: C_14  and  C_13 
ROOT
ATOM      1  N   UNL d   1      46.256 -18.206  43.460  0.00  0.00    -0.289 N 
ATOM      2  N   UNL d   1      46.097 -18.194  44.797  0.00  0.00    -0.227 NA
ATOM      3  C   UNL d   1      46.081 -17.711  44.098  0.00  0.00     0.148 A 
ATOM      4  C   UNL d   1      46.375 -18.955  43.729  0.00  0.00     0.083 A 
ATOM      5  C   UNL d   1      46.275 -18.948  44.572  0.00  0.00     0.099 A 
ATOM      6  C   UNL d   1      46.562 -19.659  43.347  0.00  0.00     0.019 A 
ATOM      7  C   UNL d   1      46.376 -19.674  44.954  0.00  0.00     0.021 A 
ATOM      8  C   UNL d   1      46.647 -20.330  43.774  0.00  0.00     0.002 A 
ATOM      9  C   UNL d   1      46.550 -20.323  44.588  0.00  0.00     0.002 A 
ENDROOT
BRANCH   1  10
ATOM     10  C   UNL d   1      46.262 -17.832  42.768  0.00  0.00     0.088 C 
BRANCH  10  11
ATOM     11  C   UNL d   1      46.076 -18.210  42.072  0.00  0.00     0.052 C 
ATOM     12  C   UNL d   1      45.293 -18.434  41.942  0.00  0.00     0.009 C 
ATOM     13 BR   UNL d   1      46.629 -18.380  41.494  0.00  0.00    -0.048 Br
ENDBRANCH  10  11
ENDBRANCH   1  10
BRANCH   3  14
ATOM     14  C   UNL d   1      45.922 -16.903  44.071  0.00  0.00     0.037 C 
BRANCH  14  15
ATOM     15  C   UNL d   1      45.576 -16.529  44.721  0.00  0.00     0.003 C 
BRANCH  15  16
ATOM     16  C   UNL d   1      45.300 -15.755  44.653  0.00  0.00     0.000 C 
ATOM     17  C   UNL d   1      45.821 -15.122  44.738  0.00  0.00     0.000 C 
ENDBRANCH  15  16
ENDBRANCH  14  15
ENDBRANCH   3  14
TORSDOF 5
ENDMDL
