MODEL 1
REMARK VINA RESULT:      81.9      0.000      0.000
REMARK  7 active torsions:
REMARK  status: ('A' for Active; 'I' for Inactive)
REMARK    1  A    between atoms: N_7  and  C_2 
REMARK    2  A    between atoms: N_9  and  C_3 
REMARK    3  A    between atoms: C_14  and  N_7 
REMARK    4  A    between atoms: C_8  and  C_12 
REMARK    5  A    between atoms: O_19  and  C_8 
REMARK    6  A    between atoms: C_17  and  N_9 
REMARK    7  A    between atoms: C_29  and  O_19 
ROOT
ATOM      1  N   UNL d   1      60.721  48.414  49.988  0.00  0.00    -0.038 NA
ATOM      2  C   UNL d   1      60.569  49.060  50.490  0.00  0.00     0.202 A 
ATOM      3  C   UNL d   1      61.161  47.767  50.264  0.00  0.00     0.753 A 
ATOM      4  N   UNL d   1      61.448  47.770  51.048  0.00  0.00    -0.038 NA
ATOM      5  C   UNL d   1      60.855  49.058  51.263  0.00  0.00     0.154 A 
ATOM      6  C   UNL d   1      61.295  48.412  51.541  0.00  0.00     0.202 A 
ATOM      7  N   UNL d   1      60.695  49.708  51.748  0.00  0.00    -0.236 NA
ATOM      8  N   UNL d   1      61.577  48.418  52.315  0.00  0.00    -0.222 NA
ATOM      9  C   UNL d   1      60.984  49.706  52.530  0.00  0.00     0.120 A 
ATOM     10  C   UNL d   1      61.423  49.067  52.815  0.00  0.00     0.121 A 
ENDROOT
BRANCH   3  11
ATOM     11  N   UNL d   1      61.310  47.133  49.771  0.00  0.00    -0.059 NA
BRANCH  11  12
ATOM     12  C   UNL d   1      61.306  46.364  50.071  0.00  0.00     0.100 A 
ATOM     13  C   UNL d   1      61.705  45.767  49.697  0.00  0.00     0.020 A 
ATOM     14  C   UNL d   1      61.700  44.994  49.998  0.00  0.00     0.007 A 
ATOM     15  C   UNL d   1      61.283  44.827  50.692  0.00  0.00     0.064 A 
ATOM     16  C   UNL d   1      60.872  45.432  51.083  0.00  0.00     0.007 A 
ATOM     17  C   UNL d   1      60.881  46.198  50.776  0.00  0.00     0.020 A 
BRANCH  15  18
ATOM     18  C   UNL d   1      61.279  44.066  50.989  0.00  0.00     0.300 C 
ATOM     19  O   UNL d   1      60.597  43.770  51.359  0.00  0.00    -0.259 OA
BRANCH  18  20
ATOM     20  O   UNL d   1      61.946  43.584  50.926  0.00  0.00    -0.271 OA
BRANCH  20  21
ATOM     21  C   UNL d   1      62.158  43.079  51.543  0.00  0.00     0.126 C 
ATOM     22  C   UNL d   1      62.684  42.464  51.404  0.00  0.00     0.029 C 
ENDBRANCH  20  21
ENDBRANCH  18  20
ENDBRANCH  15  18
ENDBRANCH  11  12
ENDBRANCH   3  11
BRANCH   2  23
ATOM     23  N   UNL d   1      60.129  49.706  50.212  0.00  0.00    -0.225 NA
BRANCH  23  24
ATOM     24  C   UNL d   1      59.308  49.656  50.163  0.00  0.00     0.083 A 
ATOM     25  C   UNL d   1      58.937  49.649  49.419  0.00  0.00     0.020 A 
ATOM     26  C   UNL d   1      58.117  49.599  49.375  0.00  0.00     0.013 A 
ATOM     27  C   UNL d   1      57.659  49.557  50.060  0.00  0.00     0.058 A 
ATOM     28  C   UNL d   1      58.031  49.565  50.805  0.00  0.00     0.013 A 
ATOM     29 CL   UNL d   1      56.839  49.508  50.026  0.00  0.00    -0.082 Cl
ATOM     30  C   UNL d   1      58.854  49.615  50.850  0.00  0.00     0.020 A 
ENDBRANCH  23  24
ENDBRANCH   2  23
TORSDOF 7
ENDMDL
