MODEL 1
REMARK VINA RESULT:      -4.3      0.000      0.000
REMARK  2 active torsions:
REMARK  status: ('A' for Active; 'I' for Inactive)
REMARK    1  A    between atoms: C_10  and  N_3 
REMARK    2  A    between atoms: C_15  and  C_10 
ROOT
ATOM      1  C   UNL d   1      58.054  -0.938  30.220  0.00  0.00     0.166 A 
ATOM      2  C   UNL d   1      58.319  -0.162  30.322  0.00  0.00     0.117 A 
ATOM      3  N   UNL d   1      58.458  -1.236  29.573  0.00  0.00    -0.289 N 
ATOM      4  N   UNL d   1      57.484  -1.262  30.729  0.00  0.00    -0.225 NA
ATOM      5  N   UNL d   1      57.998   0.271  30.944  0.00  0.00    -0.241 NA
ATOM      6  C   UNL d   1      58.868   0.000  29.751  0.00  0.00     0.037 A 
ATOM      7  C   UNL d   1      58.955  -0.672  29.281  0.00  0.00     0.067 A 
ATOM      8  C   UNL d   1      57.181  -0.817  31.335  0.00  0.00     0.101 A 
ATOM      9  C   UNL d   1      57.447  -0.041  31.437  0.00  0.00     0.099 A 
ATOM     10  C   UNL d   1      59.309   0.678  29.588  0.00  0.00     0.003 A 
ATOM     11  C   UNL d   1      59.483  -0.664  28.651  0.00  0.00     0.018 A 
ATOM     12  C   UNL d   1      57.145   0.406  32.042  0.00  0.00     0.021 A 
ATOM     13  C   UNL d   1      56.632  -1.128  31.826  0.00  0.00     0.021 A 
ATOM     14  C   UNL d   1      59.839   0.682  28.954  0.00  0.00     0.000 A 
ATOM     15  C   UNL d   1      59.925   0.009  28.484  0.00  0.00     0.002 A 
ATOM     16  C   UNL d   1      56.325  -0.659  32.449  0.00  0.00     0.002 A 
ATOM     17  C   UNL d   1      56.573   0.102  32.565  0.00  0.00     0.002 A 
ENDROOT
BRANCH   3  18
ATOM     18  C   UNL d   1      58.370  -1.984  29.271  0.00  0.00     0.082 C 
BRANCH  18  19
ATOM     19  C   UNL d   1      58.949  -2.559  29.459  0.00  0.00     0.019 C 
ATOM     20  C   UNL d   1      58.900  -3.298  29.150  0.00  0.00     0.002 C 
ENDBRANCH  18  19
ENDBRANCH   3  18
TORSDOF 2
ENDMDL
MODEL 2
REMARK VINA RESULT:      -3.9      0.694      2.110
REMARK  2 active torsions:
REMARK  status: ('A' for Active; 'I' for Inactive)
REMARK    1  A    between atoms: C_10  and  N_3 
REMARK    2  A    between atoms: C_15  and  C_10 
ROOT
ATOM      1  C   UNL d   1      58.574  -0.512  30.038  0.00  0.00     0.166 A 
ATOM      2  C   UNL d   1      58.207  -1.249  30.113  0.00  0.00     0.117 A 
ATOM      3  N   UNL d   1      59.150  -0.599  29.462  0.00  0.00    -0.289 N 
ATOM      4  N   UNL d   1      58.332   0.131  30.503  0.00  0.00    -0.225 NA
ATOM      5  N   UNL d   1      57.598  -1.317  30.662  0.00  0.00    -0.241 NA
ATOM      6  C   UNL d   1      58.555  -1.763  29.595  0.00  0.00     0.037 A 
ATOM      7  C   UNL d   1      59.146  -1.356  29.188  0.00  0.00     0.067 A 
ATOM      8  C   UNL d   1      57.730   0.042  31.038  0.00  0.00     0.101 A 
ATOM      9  C   UNL d   1      57.363  -0.695  31.112  0.00  0.00     0.099 A 
ATOM     10  C   UNL d   1      58.416  -2.560  29.433  0.00  0.00     0.003 A 
ATOM     11  C   UNL d   1      59.594  -1.749  28.621  0.00  0.00     0.018 A 
ATOM     12  C   UNL d   1      56.760  -0.788  31.646  0.00  0.00     0.021 A 
ATOM     13  C   UNL d   1      57.495   0.660  31.487  0.00  0.00     0.021 A 
ATOM     14  C   UNL d   1      58.868  -2.950  28.863  0.00  0.00     0.000 A 
ATOM     15  C   UNL d   1      59.459  -2.543  28.456  0.00  0.00     0.002 A 
ATOM     16  C   UNL d   1      56.871   0.557  32.037  0.00  0.00     0.002 A 
ATOM     17  C   UNL d   1      56.501  -0.157  32.123  0.00  0.00     0.002 A 
ENDROOT
BRANCH   3  18
ATOM     18  C   UNL d   1      59.650  -0.012  29.208  0.00  0.00     0.082 C 
BRANCH  18  19
ATOM     19  C   UNL d   1      60.422   0.022  29.530  0.00  0.00     0.019 C 
ATOM     20  C   UNL d   1      60.868   0.682  29.440  0.00  0.00     0.002 C 
ENDBRANCH  18  19
ENDBRANCH   3  18
TORSDOF 2
ENDMDL
MODEL 3
REMARK VINA RESULT:      -2.8      9.065      9.418
REMARK  2 active torsions:
REMARK  status: ('A' for Active; 'I' for Inactive)
REMARK    1  A    between atoms: C_10  and  N_3 
REMARK    2  A    between atoms: C_15  and  C_10 
ROOT
ATOM      1  C   UNL d   1      59.466  -9.389  33.359  0.00  0.00     0.166 A 
ATOM      2  C   UNL d   1      60.270  -9.251  33.228  0.00  0.00     0.117 A 
ATOM      3  N   UNL d   1      59.152  -9.623  32.639  0.00  0.00    -0.289 N 
ATOM      4  N   UNL d   1      59.136  -9.282  34.112  0.00  0.00    -0.225 NA
ATOM      5  N   UNL d   1      60.724  -9.005  33.869  0.00  0.00    -0.241 NA
ATOM      6  C   UNL d   1      60.433  -9.398  32.449  0.00  0.00     0.037 A 
ATOM      7  C   UNL d   1      59.733  -9.631  32.081  0.00  0.00     0.067 A 
ATOM      8  C   UNL d   1      59.601  -9.040  34.730  0.00  0.00     0.101 A 
ATOM      9  C   UNL d   1      60.405  -8.902  34.598  0.00  0.00     0.099 A 
ATOM     10  C   UNL d   1      61.133  -9.353  32.015  0.00  0.00     0.003 A 
ATOM     11  C   UNL d   1      59.737  -9.818  31.280  0.00  0.00     0.018 A 
ATOM     12  C   UNL d   1      60.873  -8.660  35.214  0.00  0.00     0.021 A 
ATOM     13  C   UNL d   1      59.284  -8.937  35.456  0.00  0.00     0.021 A 
ATOM     14  C   UNL d   1      61.132  -9.541  31.211  0.00  0.00     0.000 A 
ATOM     15  C   UNL d   1      60.432  -9.774  30.842  0.00  0.00     0.002 A 
ATOM     16  C   UNL d   1      59.774  -8.686  36.088  0.00  0.00     0.002 A 
ATOM     17  C   UNL d   1      60.563  -8.546  35.978  0.00  0.00     0.002 A 
ENDROOT
BRANCH   3  18
ATOM     18  C   UNL d   1      58.375  -9.816  32.509  0.00  0.00     0.082 C 
BRANCH  18  19
ATOM     19  C   UNL d   1      57.878  -9.248  32.146  0.00  0.00     0.019 C 
ATOM     20  C   UNL d   1      57.143  -9.453  31.901  0.00  0.00     0.002 C 
ENDBRANCH  18  19
ENDBRANCH   3  18
TORSDOF 2
ENDMDL
MODEL 4
REMARK VINA RESULT:      -2.2      8.820      9.295
REMARK  2 active torsions:
REMARK  status: ('A' for Active; 'I' for Inactive)
REMARK    1  A    between atoms: C_10  and  N_3 
REMARK    2  A    between atoms: C_15  and  C_10 
ROOT
ATOM      1  C   UNL d   1      58.853  -9.817  30.651  0.00  0.00     0.166 A 
ATOM      2  C   UNL d   1      59.670  -9.817  30.771  0.00  0.00     0.117 A 
ATOM      3  N   UNL d   1      58.739  -9.817  29.840  0.00  0.00    -0.289 N 
ATOM      4  N   UNL d   1      58.330  -9.817  31.296  0.00  0.00    -0.225 NA
ATOM      5  N   UNL d   1      59.941  -9.817  31.549  0.00  0.00    -0.241 NA
ATOM      6  C   UNL d   1      60.037  -9.817  30.050  0.00  0.00     0.037 A 
ATOM      7  C   UNL d   1      59.453  -9.817  29.467  0.00  0.00     0.067 A 
ATOM      8  C   UNL d   1      58.618  -9.817  32.053  0.00  0.00     0.101 A 
ATOM      9  C   UNL d   1      59.436  -9.817  32.172  0.00  0.00     0.099 A 
ATOM     10  C   UNL d   1      60.833  -9.816  29.837  0.00  0.00     0.003 A 
ATOM     11  C   UNL d   1      59.670  -9.817  28.674  0.00  0.00     0.018 A 
ATOM     12  C   UNL d   1      59.728  -9.817  32.929  0.00  0.00     0.021 A 
ATOM     13  C   UNL d   1      58.116  -9.818  32.675  0.00  0.00     0.021 A 
ATOM     14  C   UNL d   1      61.047  -9.816  29.040  0.00  0.00     0.000 A 
ATOM     15  C   UNL d   1      60.464  -9.816  28.456  0.00  0.00     0.002 A 
ATOM     16  C   UNL d   1      58.425  -9.818  33.454  0.00  0.00     0.002 A 
ATOM     17  C   UNL d   1      59.222  -9.817  33.590  0.00  0.00     0.002 A 
ENDROOT
BRANCH   3  18
ATOM     18  C   UNL d   1      58.017  -9.818  29.469  0.00  0.00     0.082 C 
BRANCH  18  19
ATOM     19  C   UNL d   1      57.700  -9.085  29.215  0.00  0.00     0.019 C 
ATOM     20  C   UNL d   1      56.985  -9.060  28.851  0.00  0.00     0.002 C 
ENDBRANCH  18  19
ENDBRANCH   3  18
TORSDOF 2
ENDMDL
MODEL 5
REMARK VINA RESULT:      -1.8      1.773      2.087
REMARK  2 active torsions:
REMARK  status: ('A' for Active; 'I' for Inactive)
REMARK    1  A    between atoms: C_10  and  N_3 
REMARK    2  A    between atoms: C_15  and  C_10 
ROOT
ATOM      1  C   UNL d   1      58.613   0.675  31.161  0.00  0.00     0.166 A 
ATOM      2  C   UNL d   1      57.931   0.672  30.694  0.00  0.00     0.117 A 
ATOM      3  N   UNL d   1      59.247   0.678  30.642  0.00  0.00    -0.289 N 
ATOM      4  N   UNL d   1      58.560   0.674  31.989  0.00  0.00    -0.225 NA
ATOM      5  N   UNL d   1      57.205   0.669  31.081  0.00  0.00    -0.241 NA
ATOM      6  C   UNL d   1      58.152   0.674  29.916  0.00  0.00     0.037 A 
ATOM      7  C   UNL d   1      58.976   0.678  29.884  0.00  0.00     0.067 A 
ATOM      8  C   UNL d   1      57.834   0.671  32.349  0.00  0.00     0.101 A 
ATOM      9  C   UNL d   1      57.152   0.668  31.882  0.00  0.00     0.099 A 
ATOM     10  C   UNL d   1      57.711   0.672  29.219  0.00  0.00     0.003 A 
ATOM     11  C   UNL d   1      59.355   0.680  29.154  0.00  0.00     0.018 A 
ATOM     12  C   UNL d   1      56.425   0.664  32.239  0.00  0.00     0.021 A 
ATOM     13  C   UNL d   1      57.781   0.670  33.147  0.00  0.00     0.021 A 
ATOM     14  C   UNL d   1      58.096   0.675  28.488  0.00  0.00     0.000 A 
ATOM     15  C   UNL d   1      58.920   0.679  28.456  0.00  0.00     0.002 A 
ATOM     16  C   UNL d   1      57.025   0.666  33.509  0.00  0.00     0.002 A 
ATOM     17  C   UNL d   1      56.347   0.663  33.068  0.00  0.00     0.002 A 
ENDROOT
BRANCH   3  18
ATOM     18  C   UNL d   1      60.029   0.682  30.860  0.00  0.00     0.082 C 
BRANCH  18  19
ATOM     19  C   UNL d   1      60.491   0.002  30.698  0.00  0.00     0.019 C 
ATOM     20  C   UNL d   1      61.120  -0.178  31.161  0.00  0.00     0.002 C 
ENDBRANCH  18  19
ENDBRANCH   3  18
TORSDOF 2
ENDMDL
MODEL 6
REMARK VINA RESULT:      -1.8      1.158      4.209
REMARK  2 active torsions:
REMARK  status: ('A' for Active; 'I' for Inactive)
REMARK    1  A    between atoms: C_10  and  N_3 
REMARK    2  A    between atoms: C_15  and  C_10 
ROOT
ATOM      1  C   UNL d   1      57.473   0.027  32.043  0.00  0.00     0.166 A 
ATOM      2  C   UNL d   1      57.048  -0.593  31.700  0.00  0.00     0.117 A 
ATOM      3  N   UNL d   1      57.166   0.128  32.796  0.00  0.00    -0.289 N 
ATOM      4  N   UNL d   1      58.076   0.410  31.622  0.00  0.00    -0.225 NA
ATOM      5  N   UNL d   1      57.246  -0.812  30.933  0.00  0.00    -0.241 NA
ATOM      6  C   UNL d   1      56.501  -0.856  32.235  0.00  0.00     0.037 A 
ATOM      7  C   UNL d   1      56.575  -0.405  32.921  0.00  0.00     0.067 A 
ATOM      8  C   UNL d   1      58.256   0.178  30.867  0.00  0.00     0.101 A 
ATOM      9  C   UNL d   1      57.830  -0.442  30.525  0.00  0.00     0.099 A 
ATOM     10  C   UNL d   1      55.935  -1.455  32.194  0.00  0.00     0.003 A 
ATOM     11  C   UNL d   1      56.083  -0.554  33.562  0.00  0.00     0.018 A 
ATOM     12  C   UNL d   1      58.007  -0.676  29.769  0.00  0.00     0.021 A 
ATOM     13  C   UNL d   1      58.837   0.546  30.460  0.00  0.00     0.021 A 
ATOM     14  C   UNL d   1      55.442  -1.601  32.840  0.00  0.00     0.000 A 
ATOM     15  C   UNL d   1      55.516  -1.150  33.526  0.00  0.00     0.002 A 
ATOM     16  C   UNL d   1      59.014   0.298  29.680  0.00  0.00     0.002 A 
ATOM     17  C   UNL d   1      58.609  -0.307  29.328  0.00  0.00     0.002 A 
ENDROOT
BRANCH   3  18
ATOM     18  C   UNL d   1      57.420   0.681  33.334  0.00  0.00     0.082 C 
BRANCH  18  19
ATOM     19  C   UNL d   1      57.680   0.416  34.085  0.00  0.00     0.019 C 
ATOM     20  C   UNL d   1      58.373   0.682  34.388  0.00  0.00     0.002 C 
ENDBRANCH  18  19
ENDBRANCH   3  18
TORSDOF 2
ENDMDL
