MODEL 1
REMARK VINA RESULT:      44.4      0.000      0.000
REMARK  2 active torsions:
REMARK  status: ('A' for Active; 'I' for Inactive)
REMARK    1  A    between atoms: C_13  and  C_5 
REMARK    2  A    between atoms: C_16  and  C_13 
ROOT
ATOM      1  C   UNL d   1     -50.449  24.438  33.405  0.00  0.00     0.111 A 
ATOM      2  C   UNL d   1     -51.874  24.489  33.387  0.00  0.00     0.062 A 
ATOM      3  C   UNL d   1     -50.478  23.624  33.443  0.00  0.00     0.213 A 
ATOM      4  C   UNL d   1     -51.903  23.675  33.426  0.00  0.00     0.101 A 
ATOM      5  C   UNL d   1     -51.140  24.868  33.377  0.00  0.00     0.018 A 
ATOM      6  O   UNL d   1     -51.200  23.245  33.454  0.00  0.00    -0.288 OA
ATOM      7  C   UNL d   1     -52.565  24.919  33.359  0.00  0.00     0.194 A 
ATOM      8  C   UNL d   1     -49.674  24.800  33.396  0.00  0.00     0.105 C 
ATOM      9  N   UNL d   1     -48.919  25.178  33.386  0.00  0.00    -0.191 NA
ATOM     10  C   UNL d   1     -52.625  23.296  33.436  0.00  0.00     0.002 A 
ATOM     11  C   UNL d   1     -53.331  23.726  33.408  0.00  0.00     0.042 A 
ATOM     12  C   UNL d   1     -53.302  24.540  33.370  0.00  0.00     0.019 A 
ATOM     13  O   UNL d   1     -52.535  25.752  33.320  0.00  0.00    -0.287 OA
ATOM     14  N   UNL d   1     -49.732  23.207  33.471  0.00  0.00    -0.120 N 
ATOM     15  C   UNL d   1     -54.107  23.974  33.388  0.00  0.00     0.009 C 
ATOM     16  C   UNL d   1     -53.942  23.193  33.427  0.00  0.00     0.009 C 
ENDROOT
BRANCH   5  17
ATOM     17  C   UNL d   1     -51.110  25.701  33.338  0.00  0.00     0.001 C 
BRANCH  17  18
ATOM     18  C   UNL d   1     -50.977  26.142  34.015  0.00  0.00     0.000 A 
ATOM     19  C   UNL d   1     -50.509  26.832  33.979  0.00  0.00     0.000 A 
ATOM     20  C   UNL d   1     -50.376  27.281  34.676  0.00  0.00     0.000 A 
ATOM     21  C   UNL d   1     -50.691  27.054  35.371  0.00  0.00     0.000 A 
ATOM     22  C   UNL d   1     -51.164  26.362  35.422  0.00  0.00     0.000 A 
ATOM     23  C   UNL d   1     -51.308  25.904  34.744  0.00  0.00     0.000 A 
ENDBRANCH  17  18
ENDBRANCH   5  17
TORSDOF 2
ENDMDL
