MODEL 1
REMARK VINA RESULT:      88.3      0.000      0.000
REMARK  4 active torsions:
REMARK  status: ('A' for Active; 'I' for Inactive)
REMARK    1  A    between atoms: N_10  and  C_3 
REMARK    2  A    between atoms: C_14  and  C_5 
REMARK    3  A    between atoms: C_15  and  C_9 
REMARK       I    between atoms: C_11  and  N_12 
REMARK    4  A    between atoms: C_13  and  C_11 
ROOT
ATOM      1  N   UNL d   1      14.315  15.284  -3.096  0.00  0.00    -0.196 N 
ATOM      2  C   UNL d   1      14.334  14.570  -2.627  0.00  0.00     0.167 A 
ATOM      3  C   UNL d   1      14.015  15.243  -3.856  0.00  0.00     0.152 A 
ATOM      4  N   UNL d   1      14.897  16.003  -2.001  0.00  0.00    -0.163 NA
ATOM      5  C   UNL d   1      14.631  14.584  -1.859  0.00  0.00     0.055 A 
ATOM      6  N   UNL d   1      14.052  13.855  -2.943  0.00  0.00    -0.231 NA
ATOM      7  C   UNL d   1      13.734  14.542  -4.176  0.00  0.00     0.052 A 
ATOM      8  C   UNL d   1      14.915  15.304  -1.542  0.00  0.00     0.104 A 
ATOM      9  C   UNL d   1      13.753  13.840  -3.714  0.00  0.00     0.063 A 
ATOM     10  C   UNL d   1      15.211  15.320  -0.780  0.00  0.00     0.023 C 
ENDROOT
BRANCH   3  11
ATOM     11  N   UNL d   1      13.994  15.966  -4.336  0.00  0.00    -0.286 N 
ATOM     12  C   UNL d   1      14.477  16.625  -4.392  0.00  0.00     0.101 A 
ATOM     13  C   UNL d   1      14.300  17.233  -4.917  0.00  0.00     0.102 A 
ATOM     14  N   UNL d   1      13.628  17.175  -5.389  0.00  0.00    -0.267 N 
ATOM     15  C   UNL d   1      13.439  17.772  -5.915  0.00  0.00     0.288 C 
ATOM     16  C   UNL d   1      13.145  16.520  -5.335  0.00  0.00     0.102 A 
ATOM     17  O   UNL d   1      12.769  17.717  -6.389  0.00  0.00    -0.264 OA
ATOM     18  C   UNL d   1      13.330  15.915  -4.806  0.00  0.00     0.101 A 
BRANCH  15  19
ATOM     19  C   UNL d   1      13.922  18.430  -5.972  0.00  0.00     0.156 A 
ATOM     20  O   UNL d   1      13.586  19.182  -5.992  0.00  0.00    -0.300 OA
ATOM     21  C   UNL d   1      14.070  19.840  -6.048  0.00  0.00     0.123 A 
ATOM     22  C   UNL d   1      14.875  19.758  -6.084  0.00  0.00     0.029 A 
ATOM     23  C   UNL d   1      14.728  18.348  -6.008  0.00  0.00     0.032 A 
ENDBRANCH  15  19
ENDBRANCH   3  11
BRANCH   9  24
ATOM     24  C   UNL d   1      13.455  13.091  -4.051  0.00  0.00     0.036 C 
ATOM     25  C   UNL d   1      13.157  12.348  -4.382  0.00  0.00     0.006 C 
ATOM     26  C   UNL d   1      13.844  12.736  -4.744  0.00  0.00     0.006 C 
ATOM     27  C   UNL d   1      12.769  12.699  -3.692  0.00  0.00     0.006 C 
ENDBRANCH   9  24
BRANCH   5  28
ATOM     28  C   UNL d   1      14.650  13.892  -1.404  0.00  0.00     0.004 A 
ATOM     29  C   UNL d   1      14.159  13.816  -0.751  0.00  0.00     0.001 A 
ATOM     30  C   UNL d   1      14.177  13.116  -0.290  0.00  0.00     0.011 A 
ATOM     31  C   UNL d   1      14.687  12.504  -0.491  0.00  0.00     0.058 A 
ATOM     32  C   UNL d   1      15.187  12.588  -1.160  0.00  0.00     0.011 A 
ATOM     33 CL   UNL d   1      14.706  11.779  -0.014  0.00  0.00    -0.082 Cl
ATOM     34  C   UNL d   1      15.168  13.276  -1.612  0.00  0.00     0.001 A 
ENDBRANCH   5  28
TORSDOF 4
ENDMDL
MODEL 2
REMARK VINA RESULT:      88.5      0.768      1.207
REMARK  4 active torsions:
REMARK  status: ('A' for Active; 'I' for Inactive)
REMARK    1  A    between atoms: N_10  and  C_3 
REMARK    2  A    between atoms: C_14  and  C_5 
REMARK    3  A    between atoms: C_15  and  C_9 
REMARK       I    between atoms: C_11  and  N_12 
REMARK    4  A    between atoms: C_13  and  C_11 
ROOT
ATOM      1  N   UNL d   1      14.545  15.471  -2.900  0.00  0.00    -0.196 N 
ATOM      2  C   UNL d   1      14.448  14.736  -2.476  0.00  0.00     0.167 A 
ATOM      3  C   UNL d   1      14.281  15.513  -3.673  0.00  0.00     0.152 A 
ATOM      4  N   UNL d   1      15.160  16.045  -1.740  0.00  0.00    -0.163 NA
ATOM      5  C   UNL d   1      14.706  14.668  -1.697  0.00  0.00     0.055 A 
ATOM      6  N   UNL d   1      14.091  14.084  -2.847  0.00  0.00    -0.231 NA
ATOM      7  C   UNL d   1      13.928  14.874  -4.048  0.00  0.00     0.052 A 
ATOM      8  C   UNL d   1      15.064  15.325  -1.324  0.00  0.00     0.104 A 
ATOM      9  C   UNL d   1      13.832  14.151  -3.629  0.00  0.00     0.063 A 
ATOM     10  C   UNL d   1      15.321  15.259  -0.550  0.00  0.00     0.023 C 
ENDROOT
BRANCH   3  11
ATOM     11  N   UNL d   1      14.378  16.258  -4.108  0.00  0.00    -0.286 N 
ATOM     12  C   UNL d   1      13.865  16.751  -4.513  0.00  0.00     0.101 A 
ATOM     13  C   UNL d   1      14.138  17.437  -4.876  0.00  0.00     0.102 A 
ATOM     14  N   UNL d   1      14.937  17.626  -4.829  0.00  0.00    -0.267 N 
ATOM     15  C   UNL d   1      15.223  18.305  -5.185  0.00  0.00     0.288 C 
ATOM     16  C   UNL d   1      15.451  17.137  -4.426  0.00  0.00     0.102 A 
ATOM     17  O   UNL d   1      16.022  18.498  -5.140  0.00  0.00    -0.264 OA
ATOM     18  C   UNL d   1      15.169  16.451  -4.065  0.00  0.00     0.101 A 
BRANCH  15  19
ATOM     19  C   UNL d   1      14.710  18.797  -5.590  0.00  0.00     0.156 A 
ATOM     20  O   UNL d   1      14.639  19.586  -5.363  0.00  0.00    -0.300 OA
ATOM     21  C   UNL d   1      14.125  20.078  -5.768  0.00  0.00     0.123 A 
ATOM     22  C   UNL d   1      13.687  19.796  -6.389  0.00  0.00     0.029 A 
ATOM     23  C   UNL d   1      14.272  18.515  -6.210  0.00  0.00     0.032 A 
ENDBRANCH  15  19
ENDBRANCH   3  11
BRANCH   9  24
ATOM     24  C   UNL d   1      13.457  13.468  -4.024  0.00  0.00     0.036 C 
ATOM     25  C   UNL d   1      13.087  12.791  -4.419  0.00  0.00     0.006 C 
ATOM     26  C   UNL d   1      12.828  13.020  -3.622  0.00  0.00     0.006 C 
ATOM     27  C   UNL d   1      13.712  13.236  -4.821  0.00  0.00     0.006 C 
ENDBRANCH   9  24
BRANCH   5  28
ATOM     28  C   UNL d   1      14.611  13.955  -1.285  0.00  0.00     0.004 A 
ATOM     29  C   UNL d   1      14.878  13.252  -1.613  0.00  0.00     0.001 A 
ATOM     30  C   UNL d   1      14.782  12.531  -1.196  0.00  0.00     0.011 A 
ATOM     31  C   UNL d   1      14.422  12.526  -0.459  0.00  0.00     0.058 A 
ATOM     32  C   UNL d   1      14.151  13.248  -0.128  0.00  0.00     0.011 A 
ATOM     33 CL   UNL d   1      14.323  11.779  -0.027  0.00  0.00    -0.082 Cl
ATOM     34  C   UNL d   1      14.245  13.957  -0.538  0.00  0.00     0.001 A 
ENDBRANCH   5  28
TORSDOF 4
ENDMDL
