MODEL 1
REMARK VINA RESULT:      -9.0      0.000      0.000
REMARK  5 active torsions:
REMARK  status: ('A' for Active; 'I' for Inactive)
REMARK    1  A    between atoms: C_12  and  C_4 
REMARK    2  A    between atoms: N_10  and  C_5 
REMARK    3  A    between atoms: C_11  and  C_8 
REMARK    4  A    between atoms: C_14  and  N_10 
REMARK    5  A    between atoms: C_15  and  C_14 
ROOT
ATOM      1  C   UNL d   1      52.630  33.936  53.809  0.00  0.00     0.167 A 
ATOM      2  N   UNL d   1      51.930  34.273  53.493  0.00  0.00    -0.195 N 
ATOM      3  N   UNL d   1      52.797  33.148  53.673  0.00  0.00    -0.231 NA
ATOM      4  C   UNL d   1      53.137  34.389  54.246  0.00  0.00     0.057 A 
ATOM      5  C   UNL d   1      51.439  33.803  53.061  0.00  0.00     0.167 A 
ATOM      6  N   UNL d   1      52.279  35.501  54.067  0.00  0.00    -0.161 NA
ATOM      7  C   UNL d   1      51.597  33.012  52.919  0.00  0.00     0.054 A 
ATOM      8  C   UNL d   1      52.285  32.680  53.229  0.00  0.00     0.063 A 
ATOM      9  C   UNL d   1      52.968  35.169  54.377  0.00  0.00     0.124 A 
ENDROOT
BRANCH   5  10
ATOM     10  N   UNL d   1      50.728  34.146  52.740  0.00  0.00    -0.224 NA
BRANCH  10  11
ATOM     11  C   UNL d   1      50.272  34.189  52.029  0.00  0.00     0.120 C 
BRANCH  11  12
ATOM     12  C   UNL d   1      49.533  34.600  52.010  0.00  0.00     0.101 A 
ATOM     13  N   UNL d   1      49.279  35.051  52.686  0.00  0.00    -0.242 NA
ATOM     14  C   UNL d   1      48.535  35.461  52.659  0.00  0.00     0.099 A 
ATOM     15  C   UNL d   1      48.048  35.421  51.960  0.00  0.00     0.021 A 
ATOM     16  C   UNL d   1      48.315  34.964  51.285  0.00  0.00     0.003 A 
ATOM     17  C   UNL d   1      49.052  34.559  51.314  0.00  0.00     0.021 A 
ENDBRANCH  11  12
ENDBRANCH  10  11
ENDBRANCH   5  10
BRANCH   8  18
ATOM     18  C   UNL d   1      52.464  31.857  53.091  0.00  0.00     0.036 C 
ATOM     19  C   UNL d   1      52.644  31.046  52.950  0.00  0.00     0.006 C 
ATOM     20  C   UNL d   1      52.051  31.257  53.529  0.00  0.00     0.006 C 
ATOM     21  C   UNL d   1      53.056  31.642  52.513  0.00  0.00     0.006 C 
ENDBRANCH   8  18
BRANCH   4  22
ATOM     22  C   UNL d   1      53.826  34.057  54.556  0.00  0.00     0.004 A 
ATOM     23  C   UNL d   1      53.803  33.710  55.280  0.00  0.00     0.000 A 
ATOM     24  C   UNL d   1      54.492  33.378  55.590  0.00  0.00     0.000 A 
ATOM     25  C   UNL d   1      55.181  33.404  55.167  0.00  0.00     0.000 A 
ATOM     26  C   UNL d   1      55.197  33.758  54.432  0.00  0.00     0.000 A 
ATOM     27  C   UNL d   1      54.509  34.090  54.122  0.00  0.00     0.000 A 
ENDBRANCH   4  22
TORSDOF 5
ENDMDL
MODEL 2
REMARK VINA RESULT:      -7.4      1.450      4.224
REMARK  5 active torsions:
REMARK  status: ('A' for Active; 'I' for Inactive)
REMARK    1  A    between atoms: C_12  and  C_4 
REMARK    2  A    between atoms: N_10  and  C_5 
REMARK    3  A    between atoms: C_11  and  C_8 
REMARK    4  A    between atoms: C_14  and  N_10 
REMARK    5  A    between atoms: C_15  and  C_14 
ROOT
ATOM      1  C   UNL d   1      53.127  33.457  53.878  0.00  0.00     0.167 A 
ATOM      2  N   UNL d   1      53.305  32.649  53.742  0.00  0.00    -0.195 N 
ATOM      3  N   UNL d   1      52.470  33.792  53.527  0.00  0.00    -0.231 NA
ATOM      4  C   UNL d   1      53.604  33.903  54.353  0.00  0.00     0.057 A 
ATOM      5  C   UNL d   1      52.816  32.223  53.264  0.00  0.00     0.167 A 
ATOM      6  N   UNL d   1      54.430  32.772  54.565  0.00  0.00    -0.161 NA
ATOM      7  C   UNL d   1      52.154  32.549  52.907  0.00  0.00     0.054 A 
ATOM      8  C   UNL d   1      51.978  33.344  53.040  0.00  0.00     0.063 A 
ATOM      9  C   UNL d   1      54.254  33.567  54.699  0.00  0.00     0.124 A 
ENDROOT
BRANCH   5  10
ATOM     10  N   UNL d   1      52.997  31.402  53.126  0.00  0.00    -0.224 NA
BRANCH  10  11
ATOM     11  C   UNL d   1      52.634  30.639  53.082  0.00  0.00     0.120 C 
BRANCH  11  12
ATOM     12  C   UNL d   1      52.916  29.996  53.553  0.00  0.00     0.101 A 
ATOM     13  N   UNL d   1      52.416  29.655  54.151  0.00  0.00    -0.242 NA
ATOM     14  C   UNL d   1      52.706  29.008  54.620  0.00  0.00     0.099 A 
ATOM     15  C   UNL d   1      53.493  28.704  54.492  0.00  0.00     0.021 A 
ATOM     16  C   UNL d   1      53.988  29.056  53.886  0.00  0.00     0.003 A 
ATOM     17  C   UNL d   1      53.698  29.696  53.423  0.00  0.00     0.021 A 
ENDBRANCH  11  12
ENDBRANCH  10  11
ENDBRANCH   5  10
BRANCH   8  18
ATOM     18  C   UNL d   1      51.293  33.698  52.676  0.00  0.00     0.036 C 
ATOM     19  C   UNL d   1      50.619  34.049  52.313  0.00  0.00     0.006 C 
ATOM     20  C   UNL d   1      50.543  33.673  53.077  0.00  0.00     0.006 C 
ATOM     21  C   UNL d   1      51.364  34.075  51.912  0.00  0.00     0.006 C 
ENDBRANCH   8  18
BRANCH   4  22
ATOM     22  C   UNL d   1      53.429  34.698  54.487  0.00  0.00     0.004 A 
ATOM     23  C   UNL d   1      53.702  35.252  53.974  0.00  0.00     0.000 A 
ATOM     24  C   UNL d   1      53.526  36.047  54.107  0.00  0.00     0.000 A 
ATOM     25  C   UNL d   1      53.084  36.263  54.749  0.00  0.00     0.000 A 
ATOM     26  C   UNL d   1      52.810  35.695  55.267  0.00  0.00     0.000 A 
ATOM     27  C   UNL d   1      52.985  34.900  55.133  0.00  0.00     0.000 A 
ENDBRANCH   4  22
TORSDOF 5
ENDMDL
MODEL 3
REMARK VINA RESULT:      -7.2      1.061      2.420
REMARK  5 active torsions:
REMARK  status: ('A' for Active; 'I' for Inactive)
REMARK    1  A    between atoms: C_12  and  C_4 
REMARK    2  A    between atoms: N_10  and  C_5 
REMARK    3  A    between atoms: C_11  and  C_8 
REMARK    4  A    between atoms: C_14  and  N_10 
REMARK    5  A    between atoms: C_15  and  C_14 
ROOT
ATOM      1  C   UNL d   1      52.309  33.341  53.301  0.00  0.00     0.167 A 
ATOM      2  N   UNL d   1      51.565  33.463  52.934  0.00  0.00    -0.195 N 
ATOM      3  N   UNL d   1      52.679  33.961  53.683  0.00  0.00    -0.231 NA
ATOM      4  C   UNL d   1      52.659  32.613  53.277  0.00  0.00     0.057 A 
ATOM      5  C   UNL d   1      51.235  34.197  52.970  0.00  0.00     0.167 A 
ATOM      6  N   UNL d   1      51.557  32.121  52.536  0.00  0.00    -0.161 NA
ATOM      7  C   UNL d   1      51.598  34.826  53.350  0.00  0.00     0.054 A 
ATOM      8  C   UNL d   1      52.330  34.706  53.712  0.00  0.00     0.063 A 
ATOM      9  C   UNL d   1      52.288  32.002  52.898  0.00  0.00     0.124 A 
ENDROOT
BRANCH   5  10
ATOM     10  N   UNL d   1      50.479  34.321  52.597  0.00  0.00    -0.224 NA
BRANCH  10  11
ATOM     11  C   UNL d   1      49.765  34.768  52.673  0.00  0.00     0.120 C 
BRANCH  11  12
ATOM     12  C   UNL d   1      49.194  34.783  52.049  0.00  0.00     0.101 A 
ATOM     13  N   UNL d   1      49.378  34.437  51.294  0.00  0.00    -0.242 NA
ATOM     14  C   UNL d   1      48.798  34.457  50.673  0.00  0.00     0.099 A 
ATOM     15  C   UNL d   1      48.039  34.821  50.806  0.00  0.00     0.021 A 
ATOM     16  C   UNL d   1      47.865  35.167  51.572  0.00  0.00     0.003 A 
ATOM     17  C   UNL d   1      48.440  35.146  52.185  0.00  0.00     0.021 A 
ENDBRANCH  11  12
ENDBRANCH  10  11
ENDBRANCH   5  10
BRANCH   8  18
ATOM     18  C   UNL d   1      52.720  35.351  54.112  0.00  0.00     0.036 C 
ATOM     19  C   UNL d   1      53.108  35.988  54.503  0.00  0.00     0.006 C 
ATOM     20  C   UNL d   1      52.518  35.530  54.919  0.00  0.00     0.006 C 
ATOM     21  C   UNL d   1      53.311  35.812  53.700  0.00  0.00     0.006 C 
ENDBRANCH   8  18
BRANCH   4  22
ATOM     22  C   UNL d   1      53.391  32.493  53.639  0.00  0.00     0.004 A 
ATOM     23  C   UNL d   1      54.062  32.613  53.216  0.00  0.00     0.000 A 
ATOM     24  C   UNL d   1      54.794  32.493  53.577  0.00  0.00     0.000 A 
ATOM     25  C   UNL d   1      54.831  32.257  54.350  0.00  0.00     0.000 A 
ATOM     26  C   UNL d   1      54.145  32.136  54.774  0.00  0.00     0.000 A 
ATOM     27  C   UNL d   1      53.413  32.256  54.413  0.00  0.00     0.000 A 
ENDBRANCH   4  22
TORSDOF 5
ENDMDL
MODEL 4
REMARK VINA RESULT:      -7.0      1.387      3.138
REMARK  5 active torsions:
REMARK  status: ('A' for Active; 'I' for Inactive)
REMARK    1  A    between atoms: C_12  and  C_4 
REMARK    2  A    between atoms: N_10  and  C_5 
REMARK    3  A    between atoms: C_11  and  C_8 
REMARK    4  A    between atoms: C_14  and  N_10 
REMARK    5  A    between atoms: C_15  and  C_14 
ROOT
ATOM      1  C   UNL d   1      52.912  31.594  53.412  0.00  0.00     0.167 A 
ATOM      2  N   UNL d   1      52.449  32.162  53.006  0.00  0.00    -0.195 N 
ATOM      3  N   UNL d   1      53.493  31.841  53.931  0.00  0.00    -0.231 NA
ATOM      4  C   UNL d   1      52.786  30.805  53.291  0.00  0.00     0.057 A 
ATOM      5  C   UNL d   1      52.593  32.944  53.141  0.00  0.00     0.167 A 
ATOM      6  N   UNL d   1      51.753  31.124  52.377  0.00  0.00    -0.161 NA
ATOM      7  C   UNL d   1      53.173  33.202  53.659  0.00  0.00     0.054 A 
ATOM      8  C   UNL d   1      53.629  32.643  54.059  0.00  0.00     0.063 A 
ATOM      9  C   UNL d   1      52.209  30.565  52.777  0.00  0.00     0.124 A 
ENDROOT
BRANCH   5  10
ATOM     10  N   UNL d   1      52.121  33.521  52.728  0.00  0.00    -0.224 NA
BRANCH  10  11
ATOM     11  C   UNL d   1      51.707  34.248  52.846  0.00  0.00     0.120 C 
BRANCH  11  12
ATOM     12  C   UNL d   1      50.939  34.370  52.511  0.00  0.00     0.101 A 
ATOM     13  N   UNL d   1      50.821  34.278  51.674  0.00  0.00    -0.242 NA
ATOM     14  C   UNL d   1      50.047  34.403  51.345  0.00  0.00     0.099 A 
ATOM     15  C   UNL d   1      49.395  34.618  51.851  0.00  0.00     0.021 A 
ATOM     16  C   UNL d   1      49.527  34.708  52.694  0.00  0.00     0.003 A 
ATOM     17  C   UNL d   1      50.294  34.584  53.017  0.00  0.00     0.021 A 
ENDBRANCH  11  12
ENDBRANCH  10  11
ENDBRANCH   5  10
BRANCH   8  18
ATOM     18  C   UNL d   1      54.237  32.896  54.602  0.00  0.00     0.036 C 
ATOM     19  C   UNL d   1      54.834  33.145  55.142  0.00  0.00     0.006 C 
ATOM     20  C   UNL d   1      55.001  33.120  54.304  0.00  0.00     0.006 C 
ATOM     21  C   UNL d   1      54.074  32.923  55.441  0.00  0.00     0.006 C 
ENDBRANCH   8  18
BRANCH   4  22
ATOM     22  C   UNL d   1      53.242  30.246  53.691  0.00  0.00     0.004 A 
ATOM     23  C   UNL d   1      53.949  30.022  53.383  0.00  0.00     0.000 A 
ATOM     24  C   UNL d   1      54.405  29.464  53.783  0.00  0.00     0.000 A 
ATOM     25  C   UNL d   1      54.140  29.146  54.479  0.00  0.00     0.000 A 
ATOM     26  C   UNL d   1      53.421  29.378  54.787  0.00  0.00     0.000 A 
ATOM     27  C   UNL d   1      52.965  29.937  54.387  0.00  0.00     0.000 A 
ENDBRANCH   4  22
TORSDOF 5
ENDMDL
