MODEL 1
REMARK VINA RESULT:      -9.0      0.000      0.000
REMARK  6 active torsions:
REMARK  status: ('A' for Active; 'I' for Inactive)
REMARK       I    between atoms: N_2  and  C_1 
REMARK    1  A    between atoms: C_5  and  C_1 
REMARK    2  A    between atoms: C_4  and  N_2 
REMARK    3  A    between atoms: C_3  and  C_4 
REMARK    4  A    between atoms: N_7  and  C_4 
REMARK    5  A    between atoms: C_15  and  N_7 
REMARK    6  A    between atoms: C_14  and  C_15 
ROOT
ATOM      1  C   UNL d   1      52.853  33.472  53.759  0.00  0.00     0.280 C 
ATOM      2  N   UNL d   1      53.555  33.082  53.613  0.00  0.00    -0.189 NA
ATOM      3  O   UNL d   1      52.491  33.410  54.489  0.00  0.00    -0.265 OA
ENDROOT
BRANCH   2   4
ATOM      4  C   UNL d   1      53.914  32.617  54.201  0.00  0.00     0.185 C 
BRANCH   4   5
ATOM      5  C   UNL d   1      54.524  32.948  54.664  0.00  0.00     0.250 C 
ATOM      6 CL   UNL d   1      54.053  32.825  55.329  0.00  0.00    -0.075 Cl
ATOM      7 CL   UNL d   1      54.963  33.054  53.971  0.00  0.00    -0.075 Cl
ATOM      8 CL   UNL d   1      55.150  33.287  55.131  0.00  0.00    -0.075 Cl
ENDBRANCH   4   5
BRANCH   4   9
ATOM      9  N   UNL d   1      53.663  31.853  54.309  0.00  0.00    -0.226 NA
BRANCH   9  10
ATOM     10  C   UNL d   1      53.906  31.244  53.792  0.00  0.00     0.102 C 
BRANCH  10  11
ATOM     11  C   UNL d   1      53.526  30.535  53.757  0.00  0.00     0.038 A 
ATOM     12  C   UNL d   1      53.588  30.002  54.398  0.00  0.00     0.101 A 
ATOM     13  N   UNL d   1      53.195  29.273  54.359  0.00  0.00    -0.242 NA
ATOM     14  C   UNL d   1      52.760  29.073  53.719  0.00  0.00     0.099 A 
ATOM     15  C   UNL d   1      52.705  29.610  53.087  0.00  0.00     0.021 A 
ATOM     16  C   UNL d   1      53.084  30.333  53.106  0.00  0.00     0.005 A 
ENDBRANCH  10  11
ENDBRANCH   9  10
ENDBRANCH   4   9
ENDBRANCH   2   4
BRANCH   1  17
ATOM     17  C   UNL d   1      52.493  33.930  53.193  0.00  0.00     0.058 A 
ATOM     18  C   UNL d   1      51.709  33.865  53.036  0.00  0.00     0.005 A 
ATOM     19  C   UNL d   1      51.334  34.326  52.463  0.00  0.00     0.000 A 
ATOM     20  C   UNL d   1      51.276  33.313  53.474  0.00  0.00     0.000 A 
ATOM     21  C   UNL d   1      50.531  34.235  52.328  0.00  0.00     0.000 A 
ATOM     22  C   UNL d   1      51.775  34.865  52.040  0.00  0.00     0.000 A 
ATOM     23  C   UNL d   1      50.091  33.684  52.762  0.00  0.00     0.000 A 
ATOM     24  C   UNL d   1      50.465  33.210  53.350  0.00  0.00     0.000 A 
ATOM     25  C   UNL d   1      52.591  34.943  52.192  0.00  0.00     0.000 A 
ATOM     26  C   UNL d   1      52.935  34.475  52.764  0.00  0.00     0.005 A 
ENDBRANCH   1  17
TORSDOF 6
ENDMDL
MODEL 2
REMARK VINA RESULT:      -8.4      1.783      2.510
REMARK  6 active torsions:
REMARK  status: ('A' for Active; 'I' for Inactive)
REMARK       I    between atoms: N_2  and  C_1 
REMARK    1  A    between atoms: C_5  and  C_1 
REMARK    2  A    between atoms: C_4  and  N_2 
REMARK    3  A    between atoms: C_3  and  C_4 
REMARK    4  A    between atoms: N_7  and  C_4 
REMARK    5  A    between atoms: C_15  and  N_7 
REMARK    6  A    between atoms: C_14  and  C_15 
ROOT
ATOM      1  C   UNL d   1      50.701  34.141  52.826  0.00  0.00     0.280 C 
ATOM      2  N   UNL d   1      51.486  34.299  52.668  0.00  0.00    -0.189 NA
ATOM      3  O   UNL d   1      50.486  33.779  53.526  0.00  0.00    -0.265 OA
ENDROOT
BRANCH   2   4
ATOM      4  C   UNL d   1      52.080  34.096  53.213  0.00  0.00     0.185 C 
BRANCH   4   5
ATOM      5  C   UNL d   1      52.520  34.703  53.579  0.00  0.00     0.250 C 
ATOM      6 CL   UNL d   1      52.262  34.419  54.308  0.00  0.00    -0.075 Cl
ATOM      7 CL   UNL d   1      52.755  34.956  52.827  0.00  0.00    -0.075 Cl
ATOM      8 CL   UNL d   1      52.971  35.325  53.945  0.00  0.00    -0.075 Cl
ENDBRANCH   4   5
BRANCH   4   9
ATOM      9  N   UNL d   1      52.216  33.313  53.377  0.00  0.00    -0.226 NA
BRANCH   9  10
ATOM     10  C   UNL d   1      52.816  32.889  52.977  0.00  0.00     0.102 C 
BRANCH  10  11
ATOM     11  C   UNL d   1      52.966  32.113  53.130  0.00  0.00     0.038 A 
ATOM     12  C   UNL d   1      53.560  31.909  53.681  0.00  0.00     0.101 A 
ATOM     13  N   UNL d   1      53.712  31.108  53.836  0.00  0.00    -0.242 NA
ATOM     14  C   UNL d   1      53.299  30.532  53.468  0.00  0.00     0.099 A 
ATOM     15  C   UNL d   1      52.709  30.747  52.922  0.00  0.00     0.021 A 
ATOM     16  C   UNL d   1      52.544  31.528  52.755  0.00  0.00     0.005 A 
ENDBRANCH  10  11
ENDBRANCH   9  10
ENDBRANCH   4   9
ENDBRANCH   2   4
BRANCH   1  17
ATOM     17  C   UNL d   1      50.112  34.335  52.301  0.00  0.00     0.058 A 
ATOM     18  C   UNL d   1      49.498  34.804  52.513  0.00  0.00     0.005 A 
ATOM     19  C   UNL d   1      48.895  35.007  51.987  0.00  0.00     0.000 A 
ATOM     20  C   UNL d   1      49.484  35.087  53.290  0.00  0.00     0.000 A 
ATOM     21  C   UNL d   1      48.282  35.489  52.236  0.00  0.00     0.000 A 
ATOM     22  C   UNL d   1      48.924  34.720  51.225  0.00  0.00     0.000 A 
ATOM     23  C   UNL d   1      48.260  35.776  53.012  0.00  0.00     0.000 A 
ATOM     24  C   UNL d   1      48.871  35.575  53.557  0.00  0.00     0.000 A 
ATOM     25  C   UNL d   1      49.557  34.230  50.990  0.00  0.00     0.000 A 
ATOM     26  C   UNL d   1      50.139  34.047  51.531  0.00  0.00     0.005 A 
ENDBRANCH   1  17
TORSDOF 6
ENDMDL
MODEL 3
REMARK VINA RESULT:      -8.3      0.943      3.946
REMARK  6 active torsions:
REMARK  status: ('A' for Active; 'I' for Inactive)
REMARK       I    between atoms: N_2  and  C_1 
REMARK    1  A    between atoms: C_5  and  C_1 
REMARK    2  A    between atoms: C_4  and  N_2 
REMARK    3  A    between atoms: C_3  and  C_4 
REMARK    4  A    between atoms: N_7  and  C_4 
REMARK    5  A    between atoms: C_15  and  N_7 
REMARK    6  A    between atoms: C_14  and  C_15 
ROOT
ATOM      1  C   UNL d   1      53.816  31.550  54.105  0.00  0.00     0.280 C 
ATOM      2  N   UNL d   1      53.605  32.167  54.597  0.00  0.00    -0.189 NA
ATOM      3  O   UNL d   1      54.249  31.693  53.427  0.00  0.00    -0.265 OA
ENDROOT
BRANCH   2   4
ATOM      4  C   UNL d   1      53.826  32.948  54.418  0.00  0.00     0.185 C 
BRANCH   4   5
ATOM      5  C   UNL d   1      54.467  33.292  54.827  0.00  0.00     0.250 C 
ATOM      6 CL   UNL d   1      54.042  33.197  55.526  0.00  0.00    -0.075 Cl
ATOM      7 CL   UNL d   1      54.859  33.369  54.102  0.00  0.00    -0.075 Cl
ATOM      8 CL   UNL d   1      55.124  33.644  55.237  0.00  0.00    -0.075 Cl
ENDBRANCH   4   5
BRANCH   4   9
ATOM      9  N   UNL d   1      53.413  33.356  53.852  0.00  0.00    -0.226 NA
BRANCH   9  10
ATOM     10  C   UNL d   1      52.719  33.780  54.048  0.00  0.00     0.102 C 
BRANCH  10  11
ATOM     11  C   UNL d   1      52.161  33.964  53.498  0.00  0.00     0.038 A 
ATOM     12  C   UNL d   1      52.364  34.453  52.852  0.00  0.00     0.101 A 
ATOM     13  N   UNL d   1      51.786  34.640  52.287  0.00  0.00    -0.242 NA
ATOM     14  C   UNL d   1      51.040  34.361  52.352  0.00  0.00     0.099 A 
ATOM     15  C   UNL d   1      50.849  33.876  53.000  0.00  0.00     0.021 A 
ATOM     16  C   UNL d   1      51.402  33.679  53.566  0.00  0.00     0.005 A 
ENDBRANCH  10  11
ENDBRANCH   9  10
ENDBRANCH   4   9
ENDBRANCH   2   4
BRANCH   1  17
ATOM     17  C   UNL d   1      53.607  30.783  54.269  0.00  0.00     0.058 A 
ATOM     18  C   UNL d   1      53.271  30.311  53.714  0.00  0.00     0.005 A 
ATOM     19  C   UNL d   1      53.055  29.530  53.871  0.00  0.00     0.000 A 
ATOM     20  C   UNL d   1      53.146  30.634  52.963  0.00  0.00     0.000 A 
ATOM     21  C   UNL d   1      52.715  29.075  53.280  0.00  0.00     0.000 A 
ATOM     22  C   UNL d   1      53.186  29.227  54.615  0.00  0.00     0.000 A 
ATOM     23  C   UNL d   1      52.585  29.391  52.527  0.00  0.00     0.000 A 
ATOM     24  C   UNL d   1      52.803  30.187  52.357  0.00  0.00     0.000 A 
ATOM     25  C   UNL d   1      53.534  29.706  55.203  0.00  0.00     0.000 A 
ATOM     26  C   UNL d   1      53.737  30.474  55.020  0.00  0.00     0.005 A 
ENDBRANCH   1  17
TORSDOF 6
ENDMDL
MODEL 4
REMARK VINA RESULT:      -8.2      1.714      4.115
REMARK  6 active torsions:
REMARK  status: ('A' for Active; 'I' for Inactive)
REMARK       I    between atoms: N_2  and  C_1 
REMARK    1  A    between atoms: C_5  and  C_1 
REMARK    2  A    between atoms: C_4  and  N_2 
REMARK    3  A    between atoms: C_3  and  C_4 
REMARK    4  A    between atoms: N_7  and  C_4 
REMARK    5  A    between atoms: C_15  and  N_7 
REMARK    6  A    between atoms: C_14  and  C_15 
ROOT
ATOM      1  C   UNL d   1      53.194  33.207  53.670  0.00  0.00     0.280 C 
ATOM      2  N   UNL d   1      52.683  33.725  54.041  0.00  0.00    -0.189 NA
ATOM      3  O   UNL d   1      53.499  33.386  52.933  0.00  0.00    -0.265 OA
ENDROOT
BRANCH   2   4
ATOM      4  C   UNL d   1      52.463  34.439  53.678  0.00  0.00     0.185 C 
BRANCH   4   5
ATOM      5  C   UNL d   1      52.851  35.144  53.900  0.00  0.00     0.250 C 
ATOM      6 CL   UNL d   1      53.109  35.220  53.121  0.00  0.00    -0.075 Cl
ATOM      7 CL   UNL d   1      52.570  35.029  54.670  0.00  0.00    -0.075 Cl
ATOM      8 CL   UNL d   1      53.244  35.862  54.134  0.00  0.00    -0.075 Cl
ENDBRANCH   4   5
BRANCH   4   9
ATOM      9  N   UNL d   1      51.877  34.434  53.116  0.00  0.00    -0.226 NA
BRANCH   9  10
ATOM     10  C   UNL d   1      51.071  34.426  53.337  0.00  0.00     0.102 C 
BRANCH  10  11
ATOM     11  C   UNL d   1      50.479  34.471  52.793  0.00  0.00     0.038 A 
ATOM     12  C   UNL d   1      49.756  34.835  53.002  0.00  0.00     0.101 A 
ATOM     13  N   UNL d   1      49.147  34.880  52.440  0.00  0.00    -0.242 NA
ATOM     14  C   UNL d   1      49.242  34.582  51.705  0.00  0.00     0.099 A 
ATOM     15  C   UNL d   1      49.966  34.222  51.508  0.00  0.00     0.021 A 
ATOM     16  C   UNL d   1      50.577  34.168  52.046  0.00  0.00     0.005 A 
ENDBRANCH  10  11
ENDBRANCH   9  10
ENDBRANCH   4   9
ENDBRANCH   2   4
BRANCH   1  17
ATOM     17  C   UNL d   1      53.416  32.507  54.015  0.00  0.00     0.058 A 
ATOM     18  C   UNL d   1      53.269  31.800  53.665  0.00  0.00     0.005 A 
ATOM     19  C   UNL d   1      53.491  31.083  54.008  0.00  0.00     0.000 A 
ATOM     20  C   UNL d   1      52.880  31.810  52.936  0.00  0.00     0.000 A 
ATOM     21  C   UNL d   1      53.325  30.379  53.623  0.00  0.00     0.000 A 
ATOM     22  C   UNL d   1      53.873  31.091  54.727  0.00  0.00     0.000 A 
ATOM     23  C   UNL d   1      52.936  30.379  52.893  0.00  0.00     0.000 A 
ATOM     24  C   UNL d   1      52.705  31.107  52.535  0.00  0.00     0.000 A 
ATOM     25  C   UNL d   1      54.034  31.818  55.103  0.00  0.00     0.000 A 
ATOM     26  C   UNL d   1      53.803  32.512  54.741  0.00  0.00     0.005 A 
ENDBRANCH   1  17
TORSDOF 6
ENDMDL
MODEL 5
REMARK VINA RESULT:      -7.3      1.902      3.045
REMARK  6 active torsions:
REMARK  status: ('A' for Active; 'I' for Inactive)
REMARK       I    between atoms: N_2  and  C_1 
REMARK    1  A    between atoms: C_5  and  C_1 
REMARK    2  A    between atoms: C_4  and  N_2 
REMARK    3  A    between atoms: C_3  and  C_4 
REMARK    4  A    between atoms: N_7  and  C_4 
REMARK    5  A    between atoms: C_15  and  N_7 
REMARK    6  A    between atoms: C_14  and  C_15 
ROOT
ATOM      1  C   UNL d   1      52.531  33.901  54.070  0.00  0.00     0.280 C 
ATOM      2  N   UNL d   1      52.415  33.688  53.290  0.00  0.00    -0.189 NA
ATOM      3  O   UNL d   1      52.048  33.600  54.656  0.00  0.00    -0.265 OA
ENDROOT
BRANCH   2   4
ATOM      4  C   UNL d   1      51.806  33.163  53.079  0.00  0.00     0.185 C 
BRANCH   4   5
ATOM      5  C   UNL d   1      51.130  33.460  52.689  0.00  0.00     0.250 C 
ATOM      6 CL   UNL d   1      50.674  33.181  53.316  0.00  0.00    -0.075 Cl
ATOM      7 CL   UNL d   1      51.625  33.724  52.081  0.00  0.00    -0.075 Cl
ATOM      8 CL   UNL d   1      50.446  33.766  52.286  0.00  0.00    -0.075 Cl
ENDBRANCH   4   5
BRANCH   4   9
ATOM      9  N   UNL d   1      51.882  32.375  53.258  0.00  0.00    -0.226 NA
BRANCH   9  10
ATOM     10  C   UNL d   1      52.225  31.843  52.712  0.00  0.00     0.102 C 
BRANCH  10  11
ATOM     11  C   UNL d   1      52.476  31.109  52.930  0.00  0.00     0.038 A 
ATOM     12  C   UNL d   1      51.933  30.573  53.271  0.00  0.00     0.101 A 
ATOM     13  N   UNL d   1      52.195  29.818  53.494  0.00  0.00    -0.242 NA
ATOM     14  C   UNL d   1      52.955  29.597  53.388  0.00  0.00     0.099 A 
ATOM     15  C   UNL d   1      53.486  30.139  53.047  0.00  0.00     0.021 A 
ATOM     16  C   UNL d   1      53.250  30.886  52.821  0.00  0.00     0.005 A 
ENDBRANCH  10  11
ENDBRANCH   9  10
ENDBRANCH   4   9
ENDBRANCH   2   4
BRANCH   1  17
ATOM     17  C   UNL d   1      53.122  34.413  54.288  0.00  0.00     0.058 A 
ATOM     18  C   UNL d   1      53.768  34.162  54.692  0.00  0.00     0.005 A 
ATOM     19  C   UNL d   1      54.374  34.675  54.918  0.00  0.00     0.000 A 
ATOM     20  C   UNL d   1      53.812  33.358  54.880  0.00  0.00     0.000 A 
ATOM     21  C   UNL d   1      55.020  34.384  55.330  0.00  0.00     0.000 A 
ATOM     22  C   UNL d   1      54.316  35.463  54.725  0.00  0.00     0.000 A 
ATOM     23  C   UNL d   1      55.072  33.581  55.522  0.00  0.00     0.000 A 
ATOM     24  C   UNL d   1      54.457  33.050  55.296  0.00  0.00     0.000 A 
ATOM     25  C   UNL d   1      53.650  35.739  54.305  0.00  0.00     0.000 A 
ATOM     26  C   UNL d   1      53.066  35.211  54.094  0.00  0.00     0.005 A 
ENDBRANCH   1  17
TORSDOF 6
ENDMDL
MODEL 6
REMARK VINA RESULT:      -6.6      2.128      3.221
REMARK  6 active torsions:
REMARK  status: ('A' for Active; 'I' for Inactive)
REMARK       I    between atoms: N_2  and  C_1 
REMARK    1  A    between atoms: C_5  and  C_1 
REMARK    2  A    between atoms: C_4  and  N_2 
REMARK    3  A    between atoms: C_3  and  C_4 
REMARK    4  A    between atoms: N_7  and  C_4 
REMARK    5  A    between atoms: C_15  and  N_7 
REMARK    6  A    between atoms: C_14  and  C_15 
ROOT
ATOM      1  C   UNL d   1      51.141  34.037  52.826  0.00  0.00     0.280 C 
ATOM      2  N   UNL d   1      51.281  33.380  53.292  0.00  0.00    -0.189 NA
ATOM      3  O   UNL d   1      51.723  34.322  52.330  0.00  0.00    -0.265 OA
ENDROOT
BRANCH   2   4
ATOM      4  C   UNL d   1      52.016  32.993  53.270  0.00  0.00     0.185 C 
BRANCH   4   5
ATOM      5  C   UNL d   1      52.061  32.227  52.941  0.00  0.00     0.250 C 
ATOM      6 CL   UNL d   1      51.472  31.992  53.467  0.00  0.00    -0.075 Cl
ATOM      7 CL   UNL d   1      52.650  32.505  52.431  0.00  0.00    -0.075 Cl
ATOM      8 CL   UNL d   1      52.112  31.448  52.602  0.00  0.00    -0.075 Cl
ENDBRANCH   4   5
BRANCH   4   9
ATOM      9  N   UNL d   1      52.671  33.367  53.569  0.00  0.00    -0.226 NA
BRANCH   9  10
ATOM     10  C   UNL d   1      52.894  33.269  54.368  0.00  0.00     0.102 C 
BRANCH  10  11
ATOM     11  C   UNL d   1      53.594  33.547  54.654  0.00  0.00     0.038 A 
ATOM     12  C   UNL d   1      53.674  34.360  54.829  0.00  0.00     0.101 A 
ATOM     13  N   UNL d   1      54.396  34.643  55.123  0.00  0.00    -0.242 NA
ATOM     14  C   UNL d   1      55.014  34.150  55.241  0.00  0.00     0.099 A 
ATOM     15  C   UNL d   1      54.923  33.343  55.063  0.00  0.00     0.021 A 
ATOM     16  C   UNL d   1      54.222  33.045  54.773  0.00  0.00     0.005 A 
ENDBRANCH  10  11
ENDBRANCH   9  10
ENDBRANCH   4   9
ENDBRANCH   2   4
BRANCH   1  17
ATOM     17  C   UNL d   1      50.427  34.424  52.839  0.00  0.00     0.058 A 
ATOM     18  C   UNL d   1      49.964  34.474  52.186  0.00  0.00     0.005 A 
ATOM     19  C   UNL d   1      49.237  34.866  52.189  0.00  0.00     0.000 A 
ATOM     20  C   UNL d   1      50.240  34.115  51.494  0.00  0.00     0.000 A 
ATOM     21  C   UNL d   1      48.789  34.898  51.504  0.00  0.00     0.000 A 
ATOM     22  C   UNL d   1      48.981  35.214  52.879  0.00  0.00     0.000 A 
ATOM     23  C   UNL d   1      49.058  34.541  50.808  0.00  0.00     0.000 A 
ATOM     24  C   UNL d   1      49.799  34.139  50.795  0.00  0.00     0.000 A 
ATOM     25  C   UNL d   1      49.451  35.170  53.566  0.00  0.00     0.000 A 
ATOM     26  C   UNL d   1      50.165  34.777  53.534  0.00  0.00     0.005 A 
ENDBRANCH   1  17
TORSDOF 6
ENDMDL
MODEL 7
REMARK VINA RESULT:      -6.6      1.796      4.138
REMARK  6 active torsions:
REMARK  status: ('A' for Active; 'I' for Inactive)
REMARK       I    between atoms: N_2  and  C_1 
REMARK    1  A    between atoms: C_5  and  C_1 
REMARK    2  A    between atoms: C_4  and  N_2 
REMARK    3  A    between atoms: C_3  and  C_4 
REMARK    4  A    between atoms: N_7  and  C_4 
REMARK    5  A    between atoms: C_15  and  N_7 
REMARK    6  A    between atoms: C_14  and  C_15 
ROOT
ATOM      1  C   UNL d   1      52.420  31.980  53.057  0.00  0.00     0.280 C 
ATOM      2  N   UNL d   1      52.098  32.577  53.513  0.00  0.00    -0.189 NA
ATOM      3  O   UNL d   1      52.913  32.160  52.432  0.00  0.00    -0.265 OA
ENDROOT
BRANCH   2   4
ATOM      4  C   UNL d   1      52.267  33.374  53.351  0.00  0.00     0.185 C 
BRANCH   4   5
ATOM      5  C   UNL d   1      51.690  33.841  52.969  0.00  0.00     0.250 C 
ATOM      6 CL   UNL d   1      52.238  33.989  52.372  0.00  0.00    -0.075 Cl
ATOM      7 CL   UNL d   1      51.171  33.667  53.589  0.00  0.00    -0.075 Cl
ATOM      8 CL   UNL d   1      51.097  34.316  52.585  0.00  0.00    -0.075 Cl
ENDBRANCH   4   5
BRANCH   4   9
ATOM      9  N   UNL d   1      52.987  33.679  53.567  0.00  0.00    -0.226 NA
BRANCH   9  10
ATOM     10  C   UNL d   1      53.113  33.976  54.337  0.00  0.00     0.102 C 
BRANCH  10  11
ATOM     11  C   UNL d   1      53.842  33.984  54.679  0.00  0.00     0.038 A 
ATOM     12  C   UNL d   1      54.442  34.470  54.359  0.00  0.00     0.101 A 
ATOM     13  N   UNL d   1      55.192  34.475  54.714  0.00  0.00    -0.242 NA
ATOM     14  C   UNL d   1      55.349  34.023  55.354  0.00  0.00     0.099 A 
ATOM     15  C   UNL d   1      54.744  33.543  55.664  0.00  0.00     0.021 A 
ATOM     16  C   UNL d   1      54.000  33.524  55.330  0.00  0.00     0.005 A 
ENDBRANCH  10  11
ENDBRANCH   9  10
ENDBRANCH   4   9
ENDBRANCH   2   4
BRANCH   1  17
ATOM     17  C   UNL d   1      52.262  31.198  53.205  0.00  0.00     0.058 A 
ATOM     18  C   UNL d   1      52.851  30.665  53.320  0.00  0.00     0.005 A 
ATOM     19  C   UNL d   1      52.701  29.867  53.472  0.00  0.00     0.000 A 
ATOM     20  C   UNL d   1      53.629  30.941  53.281  0.00  0.00     0.000 A 
ATOM     21  C   UNL d   1      53.326  29.350  53.584  0.00  0.00     0.000 A 
ATOM     22  C   UNL d   1      51.928  29.611  53.507  0.00  0.00     0.000 A 
ATOM     23  C   UNL d   1      54.108  29.618  53.547  0.00  0.00     0.000 A 
ATOM     24  C   UNL d   1      54.270  30.431  53.392  0.00  0.00     0.000 A 
ATOM     25  C   UNL d   1      51.306  30.154  53.389  0.00  0.00     0.000 A 
ATOM     26  C   UNL d   1      51.483  30.936  53.241  0.00  0.00     0.005 A 
ENDBRANCH   1  17
TORSDOF 6
ENDMDL
MODEL 8
REMARK VINA RESULT:      -6.1      3.378      5.433
REMARK  6 active torsions:
REMARK  status: ('A' for Active; 'I' for Inactive)
REMARK       I    between atoms: N_2  and  C_1 
REMARK    1  A    between atoms: C_5  and  C_1 
REMARK    2  A    between atoms: C_4  and  N_2 
REMARK    3  A    between atoms: C_3  and  C_4 
REMARK    4  A    between atoms: N_7  and  C_4 
REMARK    5  A    between atoms: C_15  and  N_7 
REMARK    6  A    between atoms: C_14  and  C_15 
ROOT
ATOM      1  C   UNL d   1      50.828  34.136  52.973  0.00  0.00     0.280 C 
ATOM      2  N   UNL d   1      50.527  34.629  52.395  0.00  0.00    -0.189 NA
ATOM      3  O   UNL d   1      50.339  33.610  53.362  0.00  0.00    -0.265 OA
ENDROOT
BRANCH   2   4
ATOM      4  C   UNL d   1      49.722  34.604  52.193  0.00  0.00     0.185 C 
BRANCH   4   5
ATOM      5  C   UNL d   1      49.501  34.316  51.441  0.00  0.00     0.250 C 
ATOM      6 CL   UNL d   1      48.993  33.788  51.819  0.00  0.00    -0.075 Cl
ATOM      7 CL   UNL d   1      50.023  34.861  51.103  0.00  0.00    -0.075 Cl
ATOM      8 CL   UNL d   1      49.281  34.027  50.672  0.00  0.00    -0.075 Cl
ENDBRANCH   4   5
BRANCH   4   9
ATOM      9  N   UNL d   1      49.170  34.860  52.730  0.00  0.00    -0.226 NA
BRANCH   9  10
ATOM     10  C   UNL d   1      48.843  35.627  52.676  0.00  0.00     0.102 C 
BRANCH  10  11
ATOM     11  C   UNL d   1      48.262  35.880  53.173  0.00  0.00     0.038 A 
ATOM     12  C   UNL d   1      47.484  35.975  52.883  0.00  0.00     0.101 A 
ATOM     13  N   UNL d   1      46.889  36.236  53.398  0.00  0.00    -0.242 NA
ATOM     14  C   UNL d   1      47.047  36.397  54.165  0.00  0.00     0.099 A 
ATOM     15  C   UNL d   1      47.825  36.299  54.442  0.00  0.00     0.021 A 
ATOM     16  C   UNL d   1      48.426  36.044  53.953  0.00  0.00     0.005 A 
ENDBRANCH  10  11
ENDBRANCH   9  10
ENDBRANCH   4   9
ENDBRANCH   2   4
BRANCH   1  17
ATOM     17  C   UNL d   1      51.613  34.151  53.180  0.00  0.00     0.058 A 
ATOM     18  C   UNL d   1      52.065  33.488  53.166  0.00  0.00     0.005 A 
ATOM     19  C   UNL d   1      52.863  33.494  53.375  0.00  0.00     0.000 A 
ATOM     20  C   UNL d   1      51.701  32.784  52.932  0.00  0.00     0.000 A 
ATOM     21  C   UNL d   1      53.295  32.798  53.349  0.00  0.00     0.000 A 
ATOM     22  C   UNL d   1      53.206  34.196  53.603  0.00  0.00     0.000 A 
ATOM     23  C   UNL d   1      52.939  32.088  53.116  0.00  0.00     0.000 A 
ATOM     24  C   UNL d   1      52.124  32.073  52.902  0.00  0.00     0.000 A 
ATOM     25  C   UNL d   1      52.750  34.894  53.622  0.00  0.00     0.000 A 
ATOM     26  C   UNL d   1      51.963  34.859  53.411  0.00  0.00     0.005 A 
ENDBRANCH   1  17
TORSDOF 6
ENDMDL
