MODEL 1
REMARK VINA RESULT:      87.3      0.000      0.000
REMARK  3 active torsions:
REMARK  status: ('A' for Active; 'I' for Inactive)
REMARK    1  A    between atoms: S_7  and  C_1 
REMARK    2  A    between atoms: C_16  and  N_2 
REMARK    3  A    between atoms: C_4  and  S_7 
ROOT
ATOM      1  S   UNL d   1      61.306  47.288  50.382  0.00  0.00    -0.028 SA
ENDROOT
BRANCH   1   2
ATOM      2  C   UNL d   1      61.042  48.099  50.252  0.00  0.00     0.117 A 
ATOM      3  C   UNL d   1      60.897  48.583  50.897  0.00  0.00     0.048 A 
ATOM      4  C   UNL d   1      60.641  49.367  50.771  0.00  0.00     0.114 A 
ATOM      5  C   UNL d   1      60.945  48.477  51.713  0.00  0.00     0.010 A 
ATOM      6  S   UNL d   1      60.543  49.708  51.515  0.00  0.00    -0.068 SA
ATOM      7  N   UNL d   1      60.540  49.639  50.005  0.00  0.00    -0.217 NA
ATOM      8  C   UNL d   1      60.740  49.130  52.091  0.00  0.00     0.031 A 
ATOM      9  C   UNL d   1      60.721  49.234  52.943  0.00  0.00     0.007 C 
ATOM     10  C   UNL d   1      60.686  49.152  49.340  0.00  0.00     0.200 A 
ATOM     11  N   UNL d   1      60.942  48.368  49.466  0.00  0.00    -0.217 NA
ATOM     12  C   UNL d   1      61.184  47.758  52.114  0.00  0.00     0.001 C 
ENDBRANCH   1   2
BRANCH   1  13
ATOM     13  C   UNL d   1      61.937  46.992  49.919  0.00  0.00     0.220 A 
ATOM     14  N   UNL d   1      62.028  46.164  49.727  0.00  0.00    -0.186 N 
ATOM     15  N   UNL d   1      62.706  46.073  49.265  0.00  0.00    -0.038 NA
ATOM     16  N   UNL d   1      63.039  46.824  49.164  0.00  0.00    -0.022 NA
ATOM     17  N   UNL d   1      62.569  47.387  49.564  0.00  0.00    -0.101 NA
BRANCH  14  18
ATOM     18  C   UNL d   1      61.459  45.629  50.018  0.00  0.00     0.087 A 
ATOM     19  C   UNL d   1      61.076  45.274  49.583  0.00  0.00     0.019 A 
ATOM     20  C   UNL d   1      60.522  44.754  49.861  0.00  0.00     0.002 A 
ATOM     21  C   UNL d   1      60.396  44.629  50.690  0.00  0.00     0.000 A 
ATOM     22  C   UNL d   1      60.770  44.975  51.092  0.00  0.00     0.002 A 
ATOM     23  C   UNL d   1      61.333  45.503  50.847  0.00  0.00     0.019 A 
ENDBRANCH  14  18
ENDBRANCH   1  13
TORSDOF 3
ENDMDL
