MODEL 1
REMARK VINA RESULT:      -2.0      0.000      0.000
REMARK  5 active torsions:
REMARK  status: ('A' for Active; 'I' for Inactive)
REMARK    1  A    between atoms: C_8  and  C_1 
REMARK    2  A    between atoms: N_6  and  C_2 
REMARK    3  A    between atoms: C_12  and  C_4 
REMARK       I    between atoms: C_7  and  N_6 
REMARK    4  A    between atoms: C_9  and  C_7 
REMARK    5  A    between atoms: O_15  and  C_8 
ROOT
ATOM      1  C   UNL d   1      31.704  16.361 -24.135  0.00  0.00     0.110 A 
ATOM      2  C   UNL d   1      31.571  17.121 -24.394  0.00  0.00     0.096 A 
ATOM      3  S   UNL d   1      30.958  16.039 -23.927  0.00  0.00    -0.080 SA
ATOM      4  C   UNL d   1      30.387  16.616 -24.066  0.00  0.00     0.031 A 
ATOM      5  C   UNL d   1      30.770  17.291 -24.357  0.00  0.00     0.026 A 
ENDROOT
BRANCH   2   6
ATOM      6  N   UNL d   1      32.168  17.628 -24.651  0.00  0.00    -0.207 NA
ATOM      7  C   UNL d   1      32.079  18.440 -24.597  0.00  0.00     0.279 C 
ATOM      8  O   UNL d   1      31.368  18.744 -24.276  0.00  0.00    -0.265 OA
BRANCH   7   9
ATOM      9  C   UNL d   1      32.654  18.951 -24.843  0.00  0.00     0.058 A 
ATOM     10  C   UNL d   1      33.241  19.470 -25.097  0.00  0.00     0.005 A 
ATOM     11  C   UNL d   1      32.799  19.648 -24.422  0.00  0.00     0.005 A 
ENDBRANCH   7   9
ENDBRANCH   2   6
BRANCH   1  12
ATOM     12  C   UNL d   1      32.436  15.984 -24.089  0.00  0.00     0.303 C 
ATOM     13  O   UNL d   1      32.704  15.506 -24.724  0.00  0.00    -0.259 OA
BRANCH  12  14
ATOM     14  O   UNL d   1      32.915  16.078 -23.408  0.00  0.00    -0.295 OA
ATOM     15  C   UNL d   1      33.056  15.453 -22.916  0.00  0.00     0.185 C 
ENDBRANCH  12  14
ENDBRANCH   1  12
BRANCH   4  16
ATOM     16  C   UNL d   1      29.567  16.498 -23.923  0.00  0.00     0.006 A 
ATOM     17  C   UNL d   1      29.325  15.902 -23.404  0.00  0.00     0.001 A 
ATOM     18  C   UNL d   1      28.528  15.789 -23.266  0.00  0.00     0.000 A 
ATOM     19  C   UNL d   1      27.970  16.272 -23.648  0.00  0.00     0.000 A 
ATOM     20  C   UNL d   1      28.233  16.869 -24.168  0.00  0.00     0.000 A 
ATOM     21  C   UNL d   1      29.034  16.962 -24.289  0.00  0.00     0.001 A 
ENDBRANCH   4  16
TORSDOF 5
ENDMDL
MODEL 2
REMARK VINA RESULT:      -1.0      4.926      6.769
REMARK  5 active torsions:
REMARK  status: ('A' for Active; 'I' for Inactive)
REMARK    1  A    between atoms: C_8  and  C_1 
REMARK    2  A    between atoms: N_6  and  C_2 
REMARK    3  A    between atoms: C_12  and  C_4 
REMARK       I    between atoms: C_7  and  N_6 
REMARK    4  A    between atoms: C_9  and  C_7 
REMARK    5  A    between atoms: O_15  and  C_8 
ROOT
ATOM      1  C   UNL d   1      32.879  21.543 -21.685  0.00  0.00     0.110 A 
ATOM      2  C   UNL d   1      33.110  22.271 -21.403  0.00  0.00     0.096 A 
ATOM      3  S   UNL d   1      32.863  21.599 -22.521  0.00  0.00    -0.080 SA
ATOM      4  C   UNL d   1      33.087  22.365 -22.727  0.00  0.00     0.031 A 
ATOM      5  C   UNL d   1      33.241  22.783 -22.028  0.00  0.00     0.026 A 
ENDROOT
BRANCH   2   6
ATOM      6  N   UNL d   1      33.194  22.445 -20.601  0.00  0.00    -0.207 NA
ATOM      7  C   UNL d   1      32.925  23.156 -20.298  0.00  0.00     0.279 C 
ATOM      8  O   UNL d   1      32.563  23.702 -20.819  0.00  0.00    -0.265 OA
BRANCH   7   9
ATOM      9  C   UNL d   1      32.999  23.342 -19.515  0.00  0.00     0.058 A 
ATOM     10  C   UNL d   1      33.078  23.533 -18.717  0.00  0.00     0.005 A 
ATOM     11  C   UNL d   1      32.342  23.302 -19.014  0.00  0.00     0.005 A 
ENDBRANCH   7   9
ENDBRANCH   2   6
BRANCH   1  12
ATOM     12  C   UNL d   1      32.697  20.880 -21.229  0.00  0.00     0.303 C 
ATOM     13  O   UNL d   1      31.996  20.867 -20.768  0.00  0.00    -0.259 OA
BRANCH  12  14
ATOM     14  O   UNL d   1      33.210  20.219 -21.224  0.00  0.00    -0.295 OA
ATOM     15  C   UNL d   1      32.912  19.467 -21.203  0.00  0.00     0.185 C 
ENDBRANCH  12  14
ENDBRANCH   1  12
BRANCH   4  16
ATOM     16  C   UNL d   1      33.137  22.632 -23.522  0.00  0.00     0.006 A 
ATOM     17  C   UNL d   1      33.130  23.443 -23.681  0.00  0.00     0.001 A 
ATOM     18  C   UNL d   1      33.179  23.701 -24.455  0.00  0.00     0.000 A 
ATOM     19  C   UNL d   1      33.234  23.148 -25.072  0.00  0.00     0.000 A 
ATOM     20  C   UNL d   1      33.239  22.333 -24.892  0.00  0.00     0.000 A 
ATOM     21  C   UNL d   1      33.190  22.100 -24.112  0.00  0.00     0.001 A 
ENDBRANCH   4  16
TORSDOF 5
ENDMDL
MODEL 3
REMARK VINA RESULT:      -0.3      3.105      4.738
REMARK  5 active torsions:
REMARK  status: ('A' for Active; 'I' for Inactive)
REMARK    1  A    between atoms: C_8  and  C_1 
REMARK    2  A    between atoms: N_6  and  C_2 
REMARK    3  A    between atoms: C_12  and  C_4 
REMARK       I    between atoms: C_7  and  N_6 
REMARK    4  A    between atoms: C_9  and  C_7 
REMARK    5  A    between atoms: O_15  and  C_8 
ROOT
ATOM      1  C   UNL d   1      33.069  20.628 -23.518  0.00  0.00     0.110 A 
ATOM      2  C   UNL d   1      33.114  20.403 -22.737  0.00  0.00     0.096 A 
ATOM      3  S   UNL d   1      32.937  19.930 -23.965  0.00  0.00    -0.080 SA
ATOM      4  C   UNL d   1      32.906  19.296 -23.441  0.00  0.00     0.031 A 
ATOM      5  C   UNL d   1      33.017  19.592 -22.674  0.00  0.00     0.026 A 
ENDROOT
BRANCH   2   6
ATOM      6  N   UNL d   1      33.241  20.931 -22.115  0.00  0.00    -0.207 NA
ATOM      7  C   UNL d   1      32.987  20.752 -21.358  0.00  0.00     0.279 C 
ATOM      8  O   UNL d   1      32.597  20.023 -21.227  0.00  0.00    -0.265 OA
BRANCH   7   9
ATOM      9  C   UNL d   1      33.103  21.258 -20.738  0.00  0.00     0.058 A 
ATOM     10  C   UNL d   1      33.223  21.773 -20.107  0.00  0.00     0.005 A 
ATOM     11  C   UNL d   1      32.482  21.424 -20.216  0.00  0.00     0.005 A 
ENDBRANCH   7   9
ENDBRANCH   2   6
BRANCH   1  12
ATOM     12  C   UNL d   1      33.140  21.397 -23.807  0.00  0.00     0.303 C 
ATOM     13  O   UNL d   1      33.113  22.049 -23.280  0.00  0.00    -0.259 OA
BRANCH  12  14
ATOM     14  O   UNL d   1      33.239  21.530 -24.628  0.00  0.00    -0.295 OA
ATOM     15  C   UNL d   1      33.068  22.251 -24.951  0.00  0.00     0.185 C 
ENDBRANCH  12  14
ENDBRANCH   1  12
BRANCH   4  16
ATOM     16  C   UNL d   1      32.781  18.502 -23.685  0.00  0.00     0.006 A 
ATOM     17  C   UNL d   1      33.082  18.246 -24.411  0.00  0.00     0.001 A 
ATOM     18  C   UNL d   1      32.959  17.473 -24.646  0.00  0.00     0.000 A 
ATOM     19  C   UNL d   1      32.536  16.954 -24.155  0.00  0.00     0.000 A 
ATOM     20  C   UNL d   1      32.239  17.230 -23.425  0.00  0.00     0.000 A 
ATOM     21  C   UNL d   1      32.375  18.006 -23.213  0.00  0.00     0.001 A 
ENDBRANCH   4  16
TORSDOF 5
ENDMDL
