MODEL 1
REMARK VINA RESULT:       3.0      0.000      0.000
REMARK  8 active torsions:
REMARK  status: ('A' for Active; 'I' for Inactive)
REMARK    1  A    between atoms: C_7  and  C_1 
REMARK    2  A    between atoms: C_10  and  N_2 
REMARK    3  A    between atoms: C_13  and  C_5 
REMARK    4  A    between atoms: C_6  and  C_7 
REMARK    5  A    between atoms: C_18  and  C_10 
REMARK    6  A    between atoms: N_19  and  C_18 
REMARK    7  A    between atoms: C_25  and  N_19 
REMARK    8  A    between atoms: C_26  and  N_19 
ROOT
ATOM      1  C   UNL d   1      59.119  -0.318  29.487  0.00  0.00     0.101 A 
ATOM      2  N   UNL d   1      58.305   0.271  30.367  0.00  0.00    -0.269 N 
ATOM      3  C   UNL d   1      58.342  -0.394  29.210  0.00  0.00     0.256 A 
ATOM      4  C   UNL d   1      57.841  -0.031  29.752  0.00  0.00     0.304 A 
ATOM      5  C   UNL d   1      59.089   0.093  30.200  0.00  0.00     0.075 A 
ATOM      6  O   UNL d   1      57.015   0.021  29.689  0.00  0.00    -0.263 OA
ATOM      7  O   UNL d   1      58.107  -0.770  28.507  0.00  0.00    -0.281 OA
ENDROOT
BRANCH   1   8
ATOM      8  C   UNL d   1      59.795  -0.604  29.111  0.00  0.00     0.223 C 
ATOM      9  O   UNL d   1      60.335  -0.076  28.773  0.00  0.00    -0.284 OA
BRANCH   8  10
ATOM     10  C   UNL d   1      59.940  -1.415  29.068  0.00  0.00     0.139 A 
ATOM     11  O   UNL d   1      59.375  -2.016  29.132  0.00  0.00    -0.304 OA
ATOM     12  C   UNL d   1      59.767  -2.735  29.056  0.00  0.00     0.100 A 
ATOM     13  C   UNL d   1      59.490  -3.513  29.074  0.00  0.00     0.025 A 
ATOM     14  C   UNL d   1      60.564  -2.586  28.946  0.00  0.00     0.025 A 
ATOM     15  C   UNL d   1      60.016  -4.135  28.982  0.00  0.00     0.002 A 
ATOM     16  C   UNL d   1      60.817  -3.978  28.871  0.00  0.00     0.000 A 
ATOM     17  C   UNL d   1      61.093  -3.210  28.853  0.00  0.00     0.002 A 
ATOM     18  C   UNL d   1      60.669  -1.766  28.953  0.00  0.00     0.030 A 
ENDBRANCH   8  10
ENDBRANCH   1   8
BRANCH   5  19
ATOM     19  C   UNL d   1      59.753   0.290  30.668  0.00  0.00     0.036 A 
ATOM     20  C   UNL d   1      60.469   0.487  30.302  0.00  0.00     0.100 A 
ATOM     21  N   UNL d   1      61.125   0.682  30.760  0.00  0.00    -0.242 NA
ATOM     22  C   UNL d   1      61.070   0.681  31.597  0.00  0.00     0.099 A 
ATOM     23  C   UNL d   1      60.347   0.482  31.959  0.00  0.00     0.021 A 
ATOM     24  C   UNL d   1      59.693   0.288  31.492  0.00  0.00     0.005 A 
ENDBRANCH   5  19
BRANCH   2  25
ATOM     25  C   UNL d   1      58.021   0.680  31.030  0.00  0.00     0.102 C 
BRANCH  25  26
ATOM     26  C   UNL d   1      57.219   0.665  31.216  0.00  0.00     0.100 C 
BRANCH  26  27
ATOM     27  N   UNL d   1      56.977   0.602  32.008  0.00  0.00    -0.301 N 
BRANCH  27  28
ATOM     28  C   UNL d   1      57.543   0.482  32.598  0.00  0.00     0.080 C 
ATOM     29  C   UNL d   1      57.314   0.392  33.384  0.00  0.00     0.021 C 
ENDBRANCH  27  28
BRANCH  27  30
ATOM     30  C   UNL d   1      56.180   0.660  32.197  0.00  0.00     0.080 C 
ATOM     31  C   UNL d   1      55.821   0.089  32.676  0.00  0.00     0.021 C 
ENDBRANCH  27  30
ENDBRANCH  26  27
ENDBRANCH  25  26
ENDBRANCH   2  25
TORSDOF 8
ENDMDL
MODEL 2
REMARK VINA RESULT:       4.8      0.781      1.032
REMARK  8 active torsions:
REMARK  status: ('A' for Active; 'I' for Inactive)
REMARK    1  A    between atoms: C_7  and  C_1 
REMARK    2  A    between atoms: C_10  and  N_2 
REMARK    3  A    between atoms: C_13  and  C_5 
REMARK    4  A    between atoms: C_6  and  C_7 
REMARK    5  A    between atoms: C_18  and  C_10 
REMARK    6  A    between atoms: N_19  and  C_18 
REMARK    7  A    between atoms: C_25  and  N_19 
REMARK    8  A    between atoms: C_26  and  N_19 
ROOT
ATOM      1  C   UNL d   1      58.415   0.105  30.056  0.00  0.00     0.101 A 
ATOM      2  N   UNL d   1      57.663   0.445  31.105  0.00  0.00    -0.269 N 
ATOM      3  C   UNL d   1      57.621   0.063  29.827  0.00  0.00     0.256 A 
ATOM      4  C   UNL d   1      57.157   0.273  30.473  0.00  0.00     0.304 A 
ATOM      5  C   UNL d   1      58.434   0.341  30.846  0.00  0.00     0.075 A 
ATOM      6  O   UNL d   1      56.328   0.304  30.484  0.00  0.00    -0.263 OA
ATOM      7  O   UNL d   1      57.339  -0.152  29.076  0.00  0.00    -0.281 OA
ENDROOT
BRANCH   1   8
ATOM      8  C   UNL d   1      59.066  -0.062  29.576  0.00  0.00     0.223 C 
ATOM      9  O   UNL d   1      59.551   0.554  29.311  0.00  0.00    -0.284 OA
BRANCH   8  10
ATOM     10  C   UNL d   1      59.238  -0.837  29.357  0.00  0.00     0.139 A 
ATOM     11  O   UNL d   1      58.749  -1.496  29.466  0.00  0.00    -0.304 OA
ATOM     12  C   UNL d   1      59.144  -2.152  29.164  0.00  0.00     0.100 A 
ATOM     13  C   UNL d   1      58.928  -2.948  29.122  0.00  0.00     0.025 A 
ATOM     14  C   UNL d   1      59.868  -1.907  28.872  0.00  0.00     0.025 A 
ATOM     15  C   UNL d   1      59.440  -3.491  28.786  0.00  0.00     0.002 A 
ATOM     16  C   UNL d   1      60.168  -3.239  28.494  0.00  0.00     0.000 A 
ATOM     17  C   UNL d   1      60.384  -2.453  28.535  0.00  0.00     0.002 A 
ATOM     18  C   UNL d   1      59.924  -1.091  28.993  0.00  0.00     0.030 A 
ENDBRANCH   8  10
ENDBRANCH   1   8
BRANCH   5  19
ATOM     19  C   UNL d   1      59.129   0.452  31.297  0.00  0.00     0.036 A 
ATOM     20  C   UNL d   1      59.862   0.501  30.915  0.00  0.00     0.100 A 
ATOM     21  N   UNL d   1      60.548   0.611  31.356  0.00  0.00    -0.242 NA
ATOM     22  C   UNL d   1      60.508   0.673  32.192  0.00  0.00     0.099 A 
ATOM     23  C   UNL d   1      59.767   0.622  32.569  0.00  0.00     0.021 A 
ATOM     24  C   UNL d   1      59.082   0.512  32.119  0.00  0.00     0.005 A 
ENDBRANCH   5  19
BRANCH   2  25
ATOM     25  C   UNL d   1      57.424   0.680  31.864  0.00  0.00     0.102 C 
BRANCH  25  26
ATOM     26  C   UNL d   1      56.637   0.603  32.095  0.00  0.00     0.100 C 
BRANCH  26  27
ATOM     27  N   UNL d   1      56.451   0.266  32.832  0.00  0.00    -0.301 N 
BRANCH  27  28
ATOM     28  C   UNL d   1      56.623   0.682  33.524  0.00  0.00     0.080 C 
ATOM     29  C   UNL d   1      56.280   0.461  34.240  0.00  0.00     0.021 C 
ENDBRANCH  27  28
BRANCH  27  30
ATOM     30  C   UNL d   1      56.100  -0.475  32.863  0.00  0.00     0.080 C 
ATOM     31  C   UNL d   1      56.233  -0.974  33.509  0.00  0.00     0.021 C 
ENDBRANCH  27  30
ENDBRANCH  26  27
ENDBRANCH  25  26
ENDBRANCH   2  25
TORSDOF 8
ENDMDL
MODEL 3
REMARK VINA RESULT:       5.3      8.341      9.678
REMARK  8 active torsions:
REMARK  status: ('A' for Active; 'I' for Inactive)
REMARK    1  A    between atoms: C_7  and  C_1 
REMARK    2  A    between atoms: C_10  and  N_2 
REMARK    3  A    between atoms: C_13  and  C_5 
REMARK    4  A    between atoms: C_6  and  C_7 
REMARK    5  A    between atoms: C_18  and  C_10 
REMARK    6  A    between atoms: N_19  and  C_18 
REMARK    7  A    between atoms: C_25  and  N_19 
REMARK    8  A    between atoms: C_26  and  N_19 
ROOT
ATOM      1  C   UNL d   1      58.895  -9.545  32.712  0.00  0.00     0.101 A 
ATOM      2  N   UNL d   1      58.208  -9.709  31.579  0.00  0.00    -0.269 N 
ATOM      3  C   UNL d   1      58.091  -9.597  32.904  0.00  0.00     0.256 A 
ATOM      4  C   UNL d   1      57.668  -9.698  32.207  0.00  0.00     0.304 A 
ATOM      5  C   UNL d   1      58.960  -9.615  31.894  0.00  0.00     0.075 A 
ATOM      6  O   UNL d   1      56.844  -9.775  32.146  0.00  0.00    -0.263 OA
ATOM      7  O   UNL d   1      57.766  -9.555  33.668  0.00  0.00    -0.281 OA
ENDROOT
BRANCH   1   8
ATOM      8  C   UNL d   1      59.513  -9.442  33.249  0.00  0.00     0.223 C 
ATOM      9  O   UNL d   1      60.240  -9.815  33.117  0.00  0.00    -0.284 OA
BRANCH   8  10
ATOM     10  C   UNL d   1      59.415  -8.970  33.917  0.00  0.00     0.139 A 
ATOM     11  O   UNL d   1      59.431  -8.142  33.937  0.00  0.00    -0.304 OA
ATOM     12  C   UNL d   1      59.310  -7.910  34.717  0.00  0.00     0.100 A 
ATOM     13  C   UNL d   1      59.270  -7.161  35.064  0.00  0.00     0.025 A 
ATOM     14  C   UNL d   1      59.219  -8.580  35.177  0.00  0.00     0.025 A 
ATOM     15  C   UNL d   1      59.141  -7.092  35.869  0.00  0.00     0.002 A 
ATOM     16  C   UNL d   1      59.050  -7.771  36.327  0.00  0.00     0.000 A 
ATOM     17  C   UNL d   1      59.089  -8.512  35.986  0.00  0.00     0.002 A 
ATOM     18  C   UNL d   1      59.285  -9.237  34.678  0.00  0.00     0.030 A 
ENDBRANCH   8  10
ENDBRANCH   1   8
BRANCH   5  19
ATOM     19  C   UNL d   1      59.678  -9.592  31.466  0.00  0.00     0.036 A 
ATOM     20  C   UNL d   1      59.661  -9.566  30.638  0.00  0.00     0.100 A 
ATOM     21  N   UNL d   1      60.366  -9.543  30.214  0.00  0.00    -0.242 NA
ATOM     22  C   UNL d   1      61.102  -9.547  30.617  0.00  0.00     0.099 A 
ATOM     23  C   UNL d   1      61.111  -9.573  31.449  0.00  0.00     0.021 A 
ATOM     24  C   UNL d   1      60.398  -9.596  31.868  0.00  0.00     0.005 A 
ENDBRANCH   5  19
BRANCH   2  25
ATOM     25  C   UNL d   1      58.015  -9.800  30.777  0.00  0.00     0.102 C 
BRANCH  25  26
ATOM     26  C   UNL d   1      57.338  -9.447  30.470  0.00  0.00     0.100 C 
BRANCH  26  27
ATOM     27  N   UNL d   1      57.213  -9.431  29.649  0.00  0.00    -0.301 N 
BRANCH  27  28
ATOM     28  C   UNL d   1      56.555  -9.814  29.329  0.00  0.00     0.080 C 
ATOM     29  C   UNL d   1      55.881  -9.387  29.127  0.00  0.00     0.021 C 
ENDBRANCH  27  28
BRANCH  27  30
ATOM     30  C   UNL d   1      57.745  -9.035  29.164  0.00  0.00     0.080 C 
ATOM     31  C   UNL d   1      57.489  -8.684  28.460  0.00  0.00     0.021 C 
ENDBRANCH  27  30
ENDBRANCH  26  27
ENDBRANCH  25  26
ENDBRANCH   2  25
TORSDOF 8
ENDMDL
