MODEL 1
REMARK VINA RESULT:      46.8      0.000      0.000
REMARK  4 active torsions:
REMARK  status: ('A' for Active; 'I' for Inactive)
REMARK    1  A    between atoms: C_5  and  N_1 
REMARK    2  A    between atoms: C_6  and  C_5 
REMARK       I    between atoms: N_9  and  C_6 
REMARK    3  A    between atoms: C_13  and  N_9 
REMARK    4  A    between atoms: O_19  and  C_14 
ROOT
ATOM      1  C   UNL d   1     -50.251  25.829  33.730  0.00  0.00     0.297 C 
ATOM      2  N   UNL d   1     -49.555  26.190  33.471  0.00  0.00    -0.207 NA
ATOM      3  O   UNL d   1     -50.689  26.170  34.340  0.00  0.00    -0.264 OA
ENDROOT
BRANCH   1   4
ATOM      4  C   UNL d   1     -50.507  25.132  33.381  0.00  0.00     0.148 C 
BRANCH   4   5
ATOM      5  N   UNL d   1     -51.312  24.953  33.358  0.00  0.00    -0.235 N 
ATOM      6  C   UNL d   1     -51.558  24.156  33.344  0.00  0.00     0.273 A 
ATOM      7  C   UNL d   1     -52.363  23.977  33.321  0.00  0.00     0.086 A 
ATOM      8  O   UNL d   1     -50.990  23.550  33.355  0.00  0.00    -0.266 OA
ATOM      9  C   UNL d   1     -52.614  23.188  33.308  0.00  0.00     0.012 C 
ATOM     10  S   UNL d   1     -52.923  24.593  33.311  0.00  0.00    -0.077 SA
ATOM     11  C   UNL d   1     -52.674  25.372  33.324  0.00  0.00     0.097 A 
ATOM     12  C   UNL d   1     -51.869  25.552  33.347  0.00  0.00     0.274 A 
ATOM     13  O   UNL d   1     -51.615  26.350  33.361  0.00  0.00    -0.266 OA
ENDBRANCH   4   5
ENDBRANCH   1   4
BRANCH   2  14
ATOM     14  C   UNL d   1     -49.299  26.891  33.824  0.00  0.00     0.085 A 
ATOM     15  C   UNL d   1     -48.613  26.898  34.265  0.00  0.00     0.021 A 
ATOM     16  C   UNL d   1     -48.354  27.582  34.614  0.00  0.00     0.026 A 
ATOM     17  C   UNL d   1     -48.793  28.284  34.522  0.00  0.00     0.094 A 
ATOM     18  C   UNL d   1     -49.479  28.277  34.081  0.00  0.00     0.026 A 
ATOM     19  C   UNL d   1     -49.734  27.567  33.727  0.00  0.00     0.021 A 
BRANCH  17  20
ATOM     20  O   UNL d   1     -48.525  28.990  34.884  0.00  0.00    -0.328 OA
ATOM     21  C   UNL d   1     -48.164  28.973  35.625  0.00  0.00     0.181 C 
ENDBRANCH  17  20
ENDBRANCH   2  14
TORSDOF 4
ENDMDL
MODEL 2
REMARK VINA RESULT:      47.2      1.343      1.893
REMARK  4 active torsions:
REMARK  status: ('A' for Active; 'I' for Inactive)
REMARK    1  A    between atoms: C_5  and  N_1 
REMARK    2  A    between atoms: C_6  and  C_5 
REMARK       I    between atoms: N_9  and  C_6 
REMARK    3  A    between atoms: C_13  and  N_9 
REMARK    4  A    between atoms: O_19  and  C_14 
ROOT
ATOM      1  C   UNL d   1     -52.159  25.911  33.648  0.00  0.00     0.297 C 
ATOM      2  N   UNL d   1     -51.786  26.562  33.306  0.00  0.00    -0.207 NA
ATOM      3  O   UNL d   1     -51.847  25.568  34.330  0.00  0.00    -0.264 OA
ENDROOT
BRANCH   1   4
ATOM      4  C   UNL d   1     -52.841  25.603  33.310  0.00  0.00     0.148 C 
BRANCH   4   5
ATOM      5  N   UNL d   1     -53.010  24.799  33.379  0.00  0.00    -0.235 N 
ATOM      6  C   UNL d   1     -53.802  24.547  33.447  0.00  0.00     0.273 A 
ATOM      7  C   UNL d   1     -53.971  23.743  33.516  0.00  0.00     0.086 A 
ATOM      8  O   UNL d   1     -54.414  25.109  33.446  0.00  0.00    -0.266 OA
ATOM      9  C   UNL d   1     -54.755  23.486  33.584  0.00  0.00     0.012 C 
ATOM     10  S   UNL d   1     -53.349  23.189  33.516  0.00  0.00    -0.077 SA
ATOM     11  C   UNL d   1     -52.575  23.443  33.448  0.00  0.00     0.097 A 
ATOM     12  C   UNL d   1     -52.406  24.248  33.380  0.00  0.00     0.274 A 
ATOM     13  O   UNL d   1     -51.612  24.508  33.311  0.00  0.00    -0.266 OA
ENDBRANCH   4   5
ENDBRANCH   1   4
BRANCH   2  14
ATOM     14  C   UNL d   1     -51.100  26.870  33.648  0.00  0.00     0.085 A 
ATOM     15  C   UNL d   1     -50.587  26.377  34.047  0.00  0.00     0.021 A 
ATOM     16  C   UNL d   1     -49.912  26.670  34.385  0.00  0.00     0.026 A 
ATOM     17  C   UNL d   1     -49.740  27.484  34.325  0.00  0.00     0.094 A 
ATOM     18  C   UNL d   1     -50.253  27.977  33.926  0.00  0.00     0.026 A 
ATOM     19  C   UNL d   1     -50.944  27.662  33.583  0.00  0.00     0.021 A 
BRANCH  17  20
ATOM     20  O   UNL d   1     -49.042  27.786  34.675  0.00  0.00    -0.328 OA
ATOM     21  C   UNL d   1     -49.029  27.997  35.472  0.00  0.00     0.181 C 
ENDBRANCH  17  20
ENDBRANCH   2  14
TORSDOF 4
ENDMDL
