MODEL 1
REMARK VINA RESULT:      30.9      0.000      0.000
REMARK  6 active torsions:
REMARK  status: ('A' for Active; 'I' for Inactive)
REMARK    1  A    between atoms: C_3  and  C_1 
REMARK    2  A    between atoms: C_2  and  C_4 
REMARK    3  A    between atoms: C_9  and  C_3 
REMARK    4  A    between atoms: C_4  and  C_10 
REMARK    5  A    between atoms: C_17  and  C_9 
REMARK    6  A    between atoms: C_10  and  C_17 
ROOT
ATOM      1  C   UNL d   1      58.942  49.201  50.612  0.00  0.00     0.006 C 
ATOM      2  C   UNL d   1      58.944  48.358  50.698  0.00  0.00     0.000 C 
ENDROOT
BRANCH   1   3
ATOM      3  C   UNL d   1      58.320  49.543  50.194  0.00  0.00     0.043 C 
BRANCH   3   4
ATOM      4  C   UNL d   1      57.542  49.472  50.441  0.00  0.00     0.202 C 
ATOM      5  O   UNL d   1      57.312  49.649  51.227  0.00  0.00    -0.286 OA
BRANCH   4   6
ATOM      6  C   UNL d   1      56.958  49.222  49.914  0.00  0.00     0.068 A 
ATOM      7  S   UNL d   1      56.652  49.708  49.318  0.00  0.00    -0.083 SA
ATOM      8  C   UNL d   1      56.085  49.297  48.894  0.00  0.00     0.035 A 
ATOM      9  C   UNL d   1      56.033  48.536  49.228  0.00  0.00     0.008 A 
ATOM     10  C   UNL d   1      56.569  48.502  49.848  0.00  0.00     0.010 A 
ENDBRANCH   4   6
ENDBRANCH   3   4
ENDBRANCH   1   3
BRANCH   1  11
ATOM     11  C   UNL d   1      59.538  49.666  50.931  0.00  0.00     0.043 C 
BRANCH  11  12
ATOM     12  C   UNL d   1      60.355  49.454  50.810  0.00  0.00     0.202 C 
ATOM     13  O   UNL d   1      60.650  49.384  50.051  0.00  0.00    -0.286 OA
BRANCH  12  14
ATOM     14  C   UNL d   1      60.847  49.319  51.476  0.00  0.00     0.068 A 
ATOM     15  S   UNL d   1      60.784  49.708  52.229  0.00  0.00    -0.083 SA
ATOM     16  C   UNL d   1      61.372  49.409  52.716  0.00  0.00     0.035 A 
ATOM     17  C   UNL d   1      61.803  48.842  52.286  0.00  0.00     0.008 A 
ATOM     18  C   UNL d   1      61.485  48.790  51.541  0.00  0.00     0.010 A 
ENDBRANCH  12  14
ENDBRANCH  11  12
ENDBRANCH   1  11
TORSDOF 6
ENDMDL
