MODEL 1
REMARK VINA RESULT:      -7.6      0.000      0.000
REMARK  6 active torsions:
REMARK  status: ('A' for Active; 'I' for Inactive)
REMARK    1  A    between atoms: C_2  and  C_4 
REMARK    2  A    between atoms: C_3  and  C_2 
REMARK       I    between atoms: N_8  and  C_3 
REMARK    3  A    between atoms: C_5  and  C_9 
REMARK    4  A    between atoms: O_16  and  C_5 
REMARK    5  A    between atoms: C_15  and  N_8 
REMARK    6  A    between atoms: C_21  and  O_16 
ROOT
ATOM      1  C   UNL d   1     -46.341  11.783  23.433  0.00  0.00     0.064 A 
ATOM      2  C   UNL d   1     -47.125  11.831  23.697  0.00  0.00     0.007 A 
ATOM      3  C   UNL d   1     -46.001  12.427  23.036  0.00  0.00     0.007 A 
ATOM      4  C   UNL d   1     -47.213  13.156  23.167  0.00  0.00     0.085 A 
ATOM      5  C   UNL d   1     -46.437  13.109  22.905  0.00  0.00     0.019 A 
ATOM      6  C   UNL d   1     -47.561  12.516  23.565  0.00  0.00     0.019 A 
ENDROOT
BRANCH   4   7
ATOM      7  N   UNL d   1     -47.650  13.841  23.035  0.00  0.00    -0.208 NA
ATOM      8  C   UNL d   1     -48.107  13.918  22.351  0.00  0.00     0.281 C 
ATOM      9  O   UNL d   1     -48.120  13.301  21.804  0.00  0.00    -0.265 OA
BRANCH   8  10
ATOM     10  C   UNL d   1     -48.541  14.601  22.222  0.00  0.00     0.086 C 
BRANCH  10  11
ATOM     11  C   UNL d   1     -49.368  14.565  22.163  0.00  0.00     0.144 A 
ATOM     12  C   UNL d   1     -49.824  15.204  22.417  0.00  0.00     0.297 A 
ATOM     13  N   UNL d   1     -50.645  15.180  22.364  0.00  0.00    -0.204 NA
ATOM     14  O   UNL d   1     -49.450  15.876  22.728  0.00  0.00    -0.264 OA
ATOM     15  C   UNL d   1     -51.004  14.508  22.054  0.00  0.00     0.123 A 
ATOM     16  C   UNL d   1     -50.549  13.868  21.800  0.00  0.00     0.120 A 
ATOM     17  N   UNL d   1     -49.732  13.898  21.855  0.00  0.00    -0.237 NA
ENDBRANCH  10  11
ENDBRANCH   8  10
ENDBRANCH   4   7
BRANCH   1  18
ATOM     18  C   UNL d   1     -45.904  11.093  23.566  0.00  0.00     0.300 C 
ATOM     19  O   UNL d   1     -46.292  10.375  23.687  0.00  0.00    -0.259 OA
BRANCH  18  20
ATOM     20  O   UNL d   1     -45.082  11.120  23.579  0.00  0.00    -0.271 OA
BRANCH  20  21
ATOM     21  C   UNL d   1     -44.648  10.431  23.477  0.00  0.00     0.126 C 
ATOM     22  C   UNL d   1     -43.845  10.424  23.633  0.00  0.00     0.029 C 
ENDBRANCH  20  21
ENDBRANCH  18  20
ENDBRANCH   1  18
TORSDOF 6
ENDMDL
MODEL 2
REMARK VINA RESULT:      -7.1      1.240      1.487
REMARK  6 active torsions:
REMARK  status: ('A' for Active; 'I' for Inactive)
REMARK    1  A    between atoms: C_2  and  C_4 
REMARK    2  A    between atoms: C_3  and  C_2 
REMARK       I    between atoms: N_8  and  C_3 
REMARK    3  A    between atoms: C_5  and  C_9 
REMARK    4  A    between atoms: O_16  and  C_5 
REMARK    5  A    between atoms: C_15  and  N_8 
REMARK    6  A    between atoms: C_21  and  O_16 
ROOT
ATOM      1  C   UNL d   1     -45.644  12.884  22.722  0.00  0.00     0.064 A 
ATOM      2  C   UNL d   1     -46.263  12.393  22.974  0.00  0.00     0.007 A 
ATOM      3  C   UNL d   1     -45.766  13.703  22.668  0.00  0.00     0.007 A 
ATOM      4  C   UNL d   1     -47.105  13.540  23.112  0.00  0.00     0.085 A 
ATOM      5  C   UNL d   1     -46.494  14.026  22.862  0.00  0.00     0.019 A 
ATOM      6  C   UNL d   1     -46.992  12.719  23.169  0.00  0.00     0.019 A 
ENDROOT
BRANCH   4   7
ATOM      7  N   UNL d   1     -47.836  13.866  23.307  0.00  0.00    -0.208 NA
ATOM      8  C   UNL d   1     -48.370  14.075  22.712  0.00  0.00     0.281 C 
ATOM      9  O   UNL d   1     -48.162  13.954  21.923  0.00  0.00    -0.265 OA
BRANCH   8  10
ATOM     10  C   UNL d   1     -49.096  14.400  22.908  0.00  0.00     0.086 C 
BRANCH  10  11
ATOM     11  C   UNL d   1     -49.756  14.272  22.421  0.00  0.00     0.144 A 
ATOM     12  C   UNL d   1     -50.326  14.863  22.341  0.00  0.00     0.297 A 
ATOM     13  N   UNL d   1     -50.984  14.747  21.861  0.00  0.00    -0.204 NA
ATOM     14  O   UNL d   1     -50.233  15.579  22.749  0.00  0.00    -0.264 OA
ATOM     15  C   UNL d   1     -51.064  14.033  21.461  0.00  0.00     0.123 A 
ATOM     16  C   UNL d   1     -50.495  13.441  21.540  0.00  0.00     0.120 A 
ATOM     17  N   UNL d   1     -49.841  13.562  22.020  0.00  0.00    -0.237 NA
ENDBRANCH  10  11
ENDBRANCH   8  10
ENDBRANCH   4   7
BRANCH   1  18
ATOM     18  C   UNL d   1     -44.911  12.554  22.527  0.00  0.00     0.300 C 
ATOM     19  O   UNL d   1     -44.672  11.844  22.872  0.00  0.00    -0.259 OA
BRANCH  18  20
ATOM     20  O   UNL d   1     -44.417  12.931  21.988  0.00  0.00    -0.271 OA
BRANCH  20  21
ATOM     21  C   UNL d   1     -43.751  12.546  21.704  0.00  0.00     0.126 C 
ATOM     22  C   UNL d   1     -43.264  12.916  21.159  0.00  0.00     0.029 C 
ENDBRANCH  20  21
ENDBRANCH  18  20
ENDBRANCH   1  18
TORSDOF 6
ENDMDL
MODEL 3
REMARK VINA RESULT:      -6.2      1.925      5.324
REMARK  6 active torsions:
REMARK  status: ('A' for Active; 'I' for Inactive)
REMARK    1  A    between atoms: C_2  and  C_4 
REMARK    2  A    between atoms: C_3  and  C_2 
REMARK       I    between atoms: N_8  and  C_3 
REMARK    3  A    between atoms: C_5  and  C_9 
REMARK    4  A    between atoms: O_16  and  C_5 
REMARK    5  A    between atoms: C_15  and  N_8 
REMARK    6  A    between atoms: C_21  and  O_16 
ROOT
ATOM      1  C   UNL d   1     -48.289  14.398  22.832  0.00  0.00     0.064 A 
ATOM      2  C   UNL d   1     -47.531  14.734  22.842  0.00  0.00     0.007 A 
ATOM      3  C   UNL d   1     -48.378  13.582  22.958  0.00  0.00     0.007 A 
ATOM      4  C   UNL d   1     -46.972  13.444  23.102  0.00  0.00     0.085 A 
ATOM      5  C   UNL d   1     -47.721  13.111  23.092  0.00  0.00     0.019 A 
ATOM      6  C   UNL d   1     -46.873  14.259  22.977  0.00  0.00     0.019 A 
ENDROOT
BRANCH   4   7
ATOM      7  N   UNL d   1     -46.313  12.969  23.237  0.00  0.00    -0.208 NA
ATOM      8  C   UNL d   1     -45.862  12.694  22.602  0.00  0.00     0.281 C 
ATOM      9  O   UNL d   1     -46.079  12.900  21.833  0.00  0.00    -0.265 OA
BRANCH   8  10
ATOM     10  C   UNL d   1     -45.206  12.221  22.738  0.00  0.00     0.086 C 
BRANCH  10  11
ATOM     11  C   UNL d   1     -44.499  12.358  22.326  0.00  0.00     0.144 A 
ATOM     12  C   UNL d   1     -43.847  11.871  22.460  0.00  0.00     0.297 A 
ATOM     13  N   UNL d   1     -43.141  11.998  22.056  0.00  0.00    -0.204 NA
ATOM     14  O   UNL d   1     -43.905  11.249  23.005  0.00  0.00    -0.264 OA
ATOM     15  C   UNL d   1     -43.096  12.618  21.517  0.00  0.00     0.123 A 
ATOM     16  C   UNL d   1     -43.748  13.105  21.383  0.00  0.00     0.120 A 
ATOM     17  N   UNL d   1     -44.449  12.974  21.788  0.00  0.00    -0.237 NA
ENDBRANCH  10  11
ENDBRANCH   8  10
ENDBRANCH   4   7
BRANCH   1  18
ATOM     18  C   UNL d   1     -48.949  14.877  22.696  0.00  0.00     0.300 C 
ATOM     19  O   UNL d   1     -49.103  15.164  21.938  0.00  0.00    -0.259 OA
BRANCH  18  20
ATOM     20  O   UNL d   1     -49.456  15.070  23.315  0.00  0.00    -0.271 OA
BRANCH  20  21
ATOM     21  C   UNL d   1     -50.026  15.650  23.212  0.00  0.00     0.126 C 
ATOM     22  C   UNL d   1     -50.687  15.667  23.694  0.00  0.00     0.029 C 
ENDBRANCH  20  21
ENDBRANCH  18  20
ENDBRANCH   1  18
TORSDOF 6
ENDMDL
MODEL 4
REMARK VINA RESULT:      -6.0      1.798      5.095
REMARK  6 active torsions:
REMARK  status: ('A' for Active; 'I' for Inactive)
REMARK    1  A    between atoms: C_2  and  C_4 
REMARK    2  A    between atoms: C_3  and  C_2 
REMARK       I    between atoms: N_8  and  C_3 
REMARK    3  A    between atoms: C_5  and  C_9 
REMARK    4  A    between atoms: O_16  and  C_5 
REMARK    5  A    between atoms: C_15  and  N_8 
REMARK    6  A    between atoms: C_21  and  O_16 
ROOT
ATOM      1  C   UNL d   1     -49.487  13.100  22.825  0.00  0.00     0.064 A 
ATOM      2  C   UNL d   1     -49.009  12.984  22.158  0.00  0.00     0.007 A 
ATOM      3  C   UNL d   1     -49.236  12.819  23.564  0.00  0.00     0.007 A 
ATOM      4  C   UNL d   1     -48.046  12.314  22.975  0.00  0.00     0.085 A 
ATOM      5  C   UNL d   1     -48.519  12.428  23.635  0.00  0.00     0.019 A 
ATOM      6  C   UNL d   1     -48.290  12.592  22.232  0.00  0.00     0.019 A 
ENDROOT
BRANCH   4   7
ATOM      7  N   UNL d   1     -47.327  11.922  23.048  0.00  0.00    -0.208 NA
ATOM      8  C   UNL d   1     -46.644  12.340  23.253  0.00  0.00     0.281 C 
ATOM      9  O   UNL d   1     -46.693  13.153  23.384  0.00  0.00    -0.265 OA
BRANCH   8  10
ATOM     10  C   UNL d   1     -45.928  11.947  23.326  0.00  0.00     0.086 C 
BRANCH  10  11
ATOM     11  C   UNL d   1     -45.286  12.158  22.844  0.00  0.00     0.144 A 
ATOM     12  C   UNL d   1     -44.598  11.702  22.857  0.00  0.00     0.297 A 
ATOM     13  N   UNL d   1     -43.955  11.901  22.384  0.00  0.00    -0.204 NA
ATOM     14  O   UNL d   1     -44.556  11.038  23.353  0.00  0.00    -0.264 OA
ATOM     15  C   UNL d   1     -44.009  12.562  21.896  0.00  0.00     0.123 A 
ATOM     16  C   UNL d   1     -44.697  13.018  21.883  0.00  0.00     0.120 A 
ATOM     17  N   UNL d   1     -45.334  12.815  22.356  0.00  0.00    -0.237 NA
ENDBRANCH  10  11
ENDBRANCH   8  10
ENDBRANCH   4   7
BRANCH   1  18
ATOM     18  C   UNL d   1     -50.211  13.495  22.749  0.00  0.00     0.300 C 
ATOM     19  O   UNL d   1     -50.858  13.110  22.413  0.00  0.00    -0.259 OA
BRANCH  18  20
ATOM     20  O   UNL d   1     -50.288  14.272  23.008  0.00  0.00    -0.271 OA
BRANCH  20  21
ATOM     21  C   UNL d   1     -51.005  14.662  22.926  0.00  0.00     0.126 C 
ATOM     22  C   UNL d   1     -51.059  15.462  23.089  0.00  0.00     0.029 C 
ENDBRANCH  20  21
ENDBRANCH  18  20
ENDBRANCH   1  18
TORSDOF 6
ENDMDL
MODEL 5
REMARK VINA RESULT:      -5.1      8.779      9.871
REMARK  6 active torsions:
REMARK  status: ('A' for Active; 'I' for Inactive)
REMARK    1  A    between atoms: C_2  and  C_4 
REMARK    2  A    between atoms: C_3  and  C_2 
REMARK       I    between atoms: N_8  and  C_3 
REMARK    3  A    between atoms: C_5  and  C_9 
REMARK    4  A    between atoms: O_16  and  C_5 
REMARK    5  A    between atoms: C_15  and  N_8 
REMARK    6  A    between atoms: C_21  and  O_16 
ROOT
ATOM      1  C   UNL d   1     -39.901  14.996  17.912  0.00  0.00     0.064 A 
ATOM      2  C   UNL d   1     -40.255  14.400  18.367  0.00  0.00     0.007 A 
ATOM      3  C   UNL d   1     -39.645  15.695  18.278  0.00  0.00     0.007 A 
ATOM      4  C   UNL d   1     -40.094  15.209  19.535  0.00  0.00     0.085 A 
ATOM      5  C   UNL d   1     -39.743  15.798  19.086  0.00  0.00     0.019 A 
ATOM      6  C   UNL d   1     -40.352  14.506  19.177  0.00  0.00     0.019 A 
ENDROOT
BRANCH   4   7
ATOM      7  N   UNL d   1     -40.191  15.314  20.346  0.00  0.00    -0.208 NA
ATOM      8  C   UNL d   1     -39.543  15.246  20.855  0.00  0.00     0.281 C 
ATOM      9  O   UNL d   1     -38.800  15.072  20.541  0.00  0.00    -0.265 OA
BRANCH   8  10
ATOM     10  C   UNL d   1     -39.642  15.350  21.661  0.00  0.00     0.086 C 
BRANCH  10  11
ATOM     11  C   UNL d   1     -39.291  14.823  22.197  0.00  0.00     0.144 A 
ATOM     12  C   UNL d   1     -38.966  15.109  22.899  0.00  0.00     0.297 A 
ATOM     13  N   UNL d   1     -38.616  14.595  23.438  0.00  0.00    -0.204 NA
ATOM     14  O   UNL d   1     -38.995  15.922  23.063  0.00  0.00    -0.264 OA
ATOM     15  C   UNL d   1     -38.593  13.791  23.265  0.00  0.00     0.123 A 
ATOM     16  C   UNL d   1     -38.917  13.504  22.562  0.00  0.00     0.120 A 
ATOM     17  N   UNL d   1     -39.266  14.021  22.030  0.00  0.00    -0.237 NA
ENDBRANCH  10  11
ENDBRANCH   8  10
ENDBRANCH   4   7
BRANCH   1  18
ATOM     18  C   UNL d   1     -39.804  14.888  17.098  0.00  0.00     0.300 C 
ATOM     19  O   UNL d   1     -40.385  15.151  16.574  0.00  0.00    -0.259 OA
BRANCH  18  20
ATOM     20  O   UNL d   1     -39.129  14.519  16.805  0.00  0.00    -0.271 OA
BRANCH  20  21
ATOM     21  C   UNL d   1     -39.015  14.456  15.996  0.00  0.00     0.126 C 
ATOM     22  C   UNL d   1     -38.366  14.053  15.702  0.00  0.00     0.029 C 
ENDBRANCH  20  21
ENDBRANCH  18  20
ENDBRANCH   1  18
TORSDOF 6
ENDMDL
