MODEL 1
REMARK VINA RESULT:      20.8      0.000      0.000
REMARK  6 active torsions:
REMARK  status: ('A' for Active; 'I' for Inactive)
REMARK    1  A    between atoms: N_2  and  C_1 
REMARK    2  A    between atoms: N_3  and  C_1 
REMARK    3  A    between atoms: C_8  and  N_3 
REMARK    4  A    between atoms: C_5  and  O_7 
REMARK    5  A    between atoms: C_17  and  C_6 
REMARK    6  A    between atoms: O_7  and  C_9 
ROOT
ATOM      1  N   UNL d   1      14.519  12.030  -1.786  0.00  0.00    -0.219 NA
ENDROOT
BRANCH   1   2
ATOM      2  C   UNL d   1      14.251  12.281  -1.041  0.00  0.00     0.206 C 
ATOM      3  S   UNL d   1      13.682  11.836  -0.645  0.00  0.00    -0.038 SA
BRANCH   2   4
ATOM      4  N   UNL d   1      14.559  12.975  -0.702  0.00  0.00    -0.282 N 
ATOM      5  C   UNL d   1      15.355  13.019  -0.513  0.00  0.00     0.066 A 
ATOM      6  C   UNL d   1      15.678  13.699  -0.176  0.00  0.00     0.018 A 
ATOM      7  C   UNL d   1      15.183  14.356  -0.026  0.00  0.00     0.003 A 
ATOM      8  C   UNL d   1      14.391  14.297  -0.220  0.00  0.00     0.019 A 
ATOM      9  C   UNL d   1      14.078  13.613  -0.556  0.00  0.00     0.082 A 
BRANCH   5  10
ATOM     10  C   UNL d   1      15.856  12.356  -0.665  0.00  0.00     0.018 C 
ATOM     11  C   UNL d   1      16.102  11.893  -0.050  0.00  0.00     0.002 C 
ENDBRANCH   5  10
ENDBRANCH   2   4
ENDBRANCH   1   2
BRANCH   1  12
ATOM     12  C   UNL d   1      14.080  12.183  -2.465  0.00  0.00     0.084 A 
ATOM     13  C   UNL d   1      14.351  12.752  -3.014  0.00  0.00     0.021 A 
ATOM     14  C   UNL d   1      13.931  12.911  -3.684  0.00  0.00     0.026 A 
ATOM     15  C   UNL d   1      13.206  12.502  -3.840  0.00  0.00     0.105 A 
ATOM     16  C   UNL d   1      12.935  11.933  -3.291  0.00  0.00     0.026 A 
ATOM     17  C   UNL d   1      13.374  11.780  -2.611  0.00  0.00     0.021 A 
BRANCH  15  18
ATOM     18  O   UNL d   1      12.769  12.657  -4.521  0.00  0.00    -0.260 OA
BRANCH  18  19
ATOM     19  C   UNL d   1      13.074  12.460  -5.270  0.00  0.00     0.391 C 
ATOM     20  F   UNL d   1      12.809  11.784  -5.664  0.00  0.00    -0.145 F 
ATOM     21  F   UNL d   1      13.652  12.949  -5.624  0.00  0.00    -0.145 F 
ENDBRANCH  18  19
ENDBRANCH  15  18
ENDBRANCH   1  12
TORSDOF 6
ENDMDL
