MODEL 1
REMARK VINA RESULT:      53.4      0.000      0.000
REMARK  6 active torsions:
REMARK  status: ('A' for Active; 'I' for Inactive)
REMARK    1  A    between atoms: C_5  and  N_1 
REMARK    2  A    between atoms: C_7  and  C_5 
REMARK    3  A    between atoms: O_14  and  C_10 
REMARK    4  A    between atoms: C_18  and  O_14 
REMARK    5  A    between atoms: C_19  and  C_18 
REMARK    6  A    between atoms: C_20  and  C_19 
ROOT
ATOM      1  C   UNL d   1     -51.574  25.630  33.478  0.00  0.00     0.087 C 
ENDROOT
BRANCH   1   2
ATOM      2  N   UNL d   1     -51.712  24.817  33.432  0.00  0.00    -0.251 N 
ATOM      3  C   UNL d   1     -51.159  24.201  33.415  0.00  0.00     0.378 A 
ATOM      4  O   UNL d   1     -51.577  23.489  33.367  0.00  0.00    -0.258 OA
ATOM      5  O   UNL d   1     -50.341  24.279  33.442  0.00  0.00    -0.237 OA
ATOM      6  C   UNL d   1     -52.385  23.665  33.353  0.00  0.00     0.121 A 
ATOM      7  C   UNL d   1     -52.468  24.487  33.394  0.00  0.00     0.092 A 
ATOM      8  C   UNL d   1     -53.063  23.192  33.310  0.00  0.00     0.026 A 
ATOM      9  C   UNL d   1     -53.214  24.832  33.391  0.00  0.00     0.020 A 
ATOM     10  C   UNL d   1     -53.883  24.359  33.348  0.00  0.00     0.002 A 
ATOM     11  C   UNL d   1     -53.807  23.537  33.307  0.00  0.00     0.002 A 
ATOM     12  C   UNL d   1     -54.631  24.704  33.345  0.00  0.00     0.000 C 
ENDBRANCH   1   2
BRANCH   1  13
ATOM     13  C   UNL d   1     -51.471  25.995  34.213  0.00  0.00     0.041 A 
ATOM     14  C   UNL d   1     -51.017  26.665  34.277  0.00  0.00     0.102 A 
ATOM     15  C   UNL d   1     -50.917  27.025  35.005  0.00  0.00     0.025 A 
ATOM     16  C   UNL d   1     -51.275  26.708  35.675  0.00  0.00     0.002 A 
ATOM     17  C   UNL d   1     -51.736  26.027  35.609  0.00  0.00     0.000 A 
ATOM     18  C   UNL d   1     -51.834  25.669  34.873  0.00  0.00     0.004 A 
BRANCH  14  19
ATOM     19  O   UNL d   1     -50.655  26.988  33.607  0.00  0.00    -0.305 OA
BRANCH  19  20
ATOM     20  C   UNL d   1     -50.900  27.719  33.315  0.00  0.00     0.123 C 
BRANCH  20  21
ATOM     21  C   UNL d   1     -50.423  28.378  33.404  0.00  0.00     0.027 C 
BRANCH  21  22
ATOM     22  C   UNL d   1     -49.618  28.289  33.559  0.00  0.00     0.002 C 
ATOM     23  C   UNL d   1     -49.118  28.948  33.561  0.00  0.00     0.000 C 
ENDBRANCH  21  22
ENDBRANCH  20  21
ENDBRANCH  19  20
ENDBRANCH  14  19
ENDBRANCH   1  13
TORSDOF 6
ENDMDL
