MODEL 1
REMARK VINA RESULT:      30.1      0.000      0.000
REMARK  5 active torsions:
REMARK  status: ('A' for Active; 'I' for Inactive)
REMARK    1  A    between atoms: C_8  and  C_1 
REMARK    2  A    between atoms: C_10  and  C_2 
REMARK    3  A    between atoms: N_6  and  C_9 
REMARK    4  A    between atoms: O_19  and  C_8 
REMARK    5  A    between atoms: C_21  and  O_19 
ROOT
ATOM      1  C   UNL d   1      13.356  13.567  -3.910  0.00  0.00     0.099 A 
ATOM      2  C   UNL d   1      13.447  12.777  -3.687  0.00  0.00     0.093 A 
ATOM      3  C   UNL d   1      13.088  13.764  -4.670  0.00  0.00     0.093 A 
ATOM      4  N   UNL d   1      13.266  12.178  -4.238  0.00  0.00    -0.191 NA
ATOM      5  C   UNL d   1      12.998  12.375  -4.998  0.00  0.00     0.369 A 
ATOM      6  N   UNL d   1      12.910  13.172  -5.211  0.00  0.00    -0.191 NA
ATOM      7  O   UNL d   1      12.820  11.779  -5.540  0.00  0.00    -0.242 OA
ATOM      8  C   UNL d   1      13.001  14.555  -4.880  0.00  0.00     0.021 C 
ENDROOT
BRANCH   2   9
ATOM      9  C   UNL d   1      13.714  12.577  -2.933  0.00  0.00     0.018 A 
ATOM     10  C   UNL d   1      13.325  11.986  -2.515  0.00  0.00     0.003 A 
ATOM     11  C   UNL d   1      13.582  11.779  -1.765  0.00  0.00     0.024 A 
ATOM     12  C   UNL d   1      14.235  12.165  -1.422  0.00  0.00     0.127 A 
ATOM     13  C   UNL d   1      14.625  12.761  -1.847  0.00  0.00     0.024 A 
ATOM     14  C   UNL d   1      14.363  12.965  -2.602  0.00  0.00     0.003 A 
BRANCH  12  15
ATOM     15  N   UNL d   1      14.498  11.961  -0.667  0.00  0.00    -0.114 N 
ATOM     16  O   UNL d   1      15.307  11.912  -0.511  0.00  0.00    -0.532 OA
ATOM     17  O   UNL d   1      13.952  11.806  -0.068  0.00  0.00    -0.532 OA
ENDBRANCH  12  15
ENDBRANCH   2   9
BRANCH   1  18
ATOM     18  C   UNL d   1      13.533  14.165  -3.372  0.00  0.00     0.303 C 
ATOM     19  O   UNL d   1      13.007  14.339  -2.760  0.00  0.00    -0.259 OA
BRANCH  18  20
ATOM     20  O   UNL d   1      14.235  14.593  -3.441  0.00  0.00    -0.271 OA
BRANCH  20  21
ATOM     21  C   UNL d   1      14.297  15.343  -3.102  0.00  0.00     0.126 C 
ATOM     22  C   UNL d   1      14.528  15.978  -3.563  0.00  0.00     0.029 C 
ENDBRANCH  20  21
ENDBRANCH  18  20
ENDBRANCH   1  18
TORSDOF 5
ENDMDL
