MODEL 1
REMARK VINA RESULT:      65.7      0.000      0.000
REMARK  5 active torsions:
REMARK  status: ('A' for Active; 'I' for Inactive)
REMARK    1  A    between atoms: C_5  and  N_1 
REMARK    2  A    between atoms: C_8  and  C_3 
REMARK    3  A    between atoms: C_7  and  C_4 
REMARK    4  A    between atoms: N_12  and  C_5 
REMARK    5  A    between atoms: N_11  and  C_10 
ROOT
ATOM      1  N   UNL d   1     -50.854  24.731  33.689  0.00  0.00    -0.203 N 
ATOM      2  N   UNL d   1     -51.496  24.242  33.586  0.00  0.00    -0.163 NA
ATOM      3  C   UNL d   1     -52.171  24.672  33.629  0.00  0.00     0.103 A 
ATOM      4  C   UNL d   1     -51.131  25.509  33.804  0.00  0.00     0.087 A 
ATOM      5  C   UNL d   1     -51.962  25.468  33.765  0.00  0.00     0.040 A 
ENDROOT
BRANCH   4   6
ATOM      6  C   UNL d   1     -50.694  26.198  33.931  0.00  0.00     0.018 A 
ATOM      7  C   UNL d   1     -50.688  26.547  34.651  0.00  0.00     0.003 A 
ATOM      8  C   UNL d   1     -50.250  27.239  34.782  0.00  0.00     0.018 A 
ATOM      9  C   UNL d   1     -49.819  27.562  34.157  0.00  0.00     0.064 A 
ATOM     10  C   UNL d   1     -49.820  27.212  33.421  0.00  0.00     0.018 A 
ATOM     11  C   UNL d   1     -50.263  26.522  33.308  0.00  0.00     0.003 A 
BRANCH   9  12
ATOM     12  N   UNL d   1     -49.390  28.236  34.277  0.00  0.00    -0.301 N 
ATOM     13  C   UNL d   1     -48.906  28.285  34.917  0.00  0.00     0.100 C 
ATOM     14  C   UNL d   1     -49.452  28.852  33.750  0.00  0.00     0.100 C 
ENDBRANCH   9  12
ENDBRANCH   4   6
BRANCH   1  15
ATOM     15  C   UNL d   1     -50.051  24.491  33.681  0.00  0.00     0.222 C 
ATOM     16  S   UNL d   1     -49.486  24.980  33.308  0.00  0.00    -0.037 SA
BRANCH  15  17
ATOM     17  N   UNL d   1     -49.823  23.771  34.044  0.00  0.00    -0.214 NA
ATOM     18  C   UNL d   1     -49.154  23.349  33.772  0.00  0.00     0.122 C 
ENDBRANCH  15  17
ENDBRANCH   1  15
BRANCH   3  19
ATOM     19  C   UNL d   1     -52.921  24.357  33.550  0.00  0.00     0.019 A 
ATOM     20  C   UNL d   1     -53.013  23.536  33.590  0.00  0.00     0.002 A 
ATOM     21  C   UNL d   1     -53.754  23.208  33.512  0.00  0.00     0.000 A 
ATOM     22  C   UNL d   1     -54.411  23.693  33.394  0.00  0.00     0.000 A 
ATOM     23  C   UNL d   1     -54.316  24.525  33.354  0.00  0.00     0.000 A 
ATOM     24  C   UNL d   1     -55.160  23.358  33.316  0.00  0.00     0.000 C 
ATOM     25  C   UNL d   1     -53.559  24.838  33.435  0.00  0.00     0.002 A 
ENDBRANCH   3  19
TORSDOF 5
ENDMDL
