MODEL 1
REMARK VINA RESULT:      59.3      0.000      0.000
REMARK  5 active torsions:
REMARK  status: ('A' for Active; 'I' for Inactive)
REMARK    1  A    between atoms: N_11  and  C_4 
REMARK    2  A    between atoms: C_18  and  N_15 
REMARK    3  A    between atoms: C_21  and  C_18 
REMARK    4  A    between atoms: O_28  and  C_23 
REMARK    5  A    between atoms: C_31  and  O_28 
ROOT
ATOM      1  N   UNL d   1      44.417 -14.223  38.020  0.00  0.00    -0.195 N 
ATOM      2  C   UNL d   1      44.522 -14.791  37.454  0.00  0.00     0.168 A 
ATOM      3  C   UNL d   1      43.901 -15.204  37.172  0.00  0.00     0.073 A 
ATOM      4  C   UNL d   1      45.048 -13.820  38.290  0.00  0.00     0.153 A 
ATOM      5  N   UNL d   1      43.069 -14.480  38.026  0.00  0.00    -0.143 NA
ATOM      6  C   UNL d   1      43.174 -15.047  37.460  0.00  0.00     0.185 A 
ATOM      7  N   UNL d   1      45.256 -14.940  37.173  0.00  0.00    -0.227 NA
ATOM      8  C   UNL d   1      44.006 -15.766  36.612  0.00  0.00     0.007 A 
ATOM      9  N   UNL d   1      42.537 -15.457  37.184  0.00  0.00    -0.225 NA
ATOM     10  C   UNL d   1      45.776 -13.965  38.014  0.00  0.00     0.057 A 
ATOM     11  C   UNL d   1      43.385 -16.179  36.330  0.00  0.00     0.019 A 
ATOM     12  C   UNL d   1      45.882 -14.532  37.448  0.00  0.00     0.086 A 
ATOM     13  C   UNL d   1      42.642 -16.025  36.618  0.00  0.00     0.083 A 
ATOM     14  C   UNL d   1      44.743 -15.915  36.330  0.00  0.00     0.000 C 
ATOM     15  C   UNL d   1      46.647 -14.685  37.158  0.00  0.00     0.021 C 
ATOM     16  C   UNL d   1      42.020 -16.433  36.342  0.00  0.00     0.021 C 
ENDROOT
BRANCH   4  17
ATOM     17  N   UNL d   1      44.931 -13.236  38.874  0.00  0.00    -0.286 N 
ATOM     18  C   UNL d   1      45.550 -13.514  39.347  0.00  0.00     0.101 A 
ATOM     19  C   UNL d   1      45.721 -13.132  40.056  0.00  0.00     0.100 A 
ATOM     20  N   UNL d   1      45.272 -12.471  40.296  0.00  0.00    -0.300 N 
ATOM     21  C   UNL d   1      44.648 -12.199  39.810  0.00  0.00     0.100 A 
ATOM     22  C   UNL d   1      44.479 -12.587  39.095  0.00  0.00     0.101 A 
BRANCH  20  23
ATOM     23  C   UNL d   1      45.440 -12.081  41.014  0.00  0.00     0.080 C 
BRANCH  23  24
ATOM     24  C   UNL d   1      45.242 -12.441  41.734  0.00  0.00     0.018 A 
ATOM     25  C   UNL d   1      44.478 -12.745  41.859  0.00  0.00     0.004 A 
ATOM     26  C   UNL d   1      44.277 -13.109  42.586  0.00  0.00     0.025 A 
ATOM     27  C   UNL d   1      44.849 -13.167  43.192  0.00  0.00     0.100 A 
ATOM     28  C   UNL d   1      45.626 -12.859  43.069  0.00  0.00     0.025 A 
ATOM     29  C   UNL d   1      45.810 -12.500  42.340  0.00  0.00     0.004 A 
BRANCH  27  30
ATOM     30  O   UNL d   1      44.659 -13.525  43.914  0.00  0.00    -0.305 OA
BRANCH  30  31
ATOM     31  C   UNL d   1      45.150 -13.410  44.580  0.00  0.00     0.123 C 
ATOM     32  C   UNL d   1      45.543 -14.063  44.927  0.00  0.00     0.029 C 
ENDBRANCH  30  31
ENDBRANCH  27  30
ENDBRANCH  23  24
ENDBRANCH  20  23
ENDBRANCH   4  17
TORSDOF 5
ENDMDL
