MODEL 1
REMARK VINA RESULT:      -5.4      0.000      0.000
REMARK  2 active torsions:
REMARK  status: ('A' for Active; 'I' for Inactive)
REMARK       I    between atoms: N_3  and  C_1 
REMARK    1  A    between atoms: O_4  and  C_1 
REMARK    2  A    between atoms: C_6  and  O_4 
ROOT
ATOM      1  C   UNL d   1      58.465  -1.015  29.797  0.00  0.00     0.105 A 
ATOM      2  C   UNL d   1      59.093  -0.795  29.312  0.00  0.00     0.030 A 
ATOM      3  C   UNL d   1      58.120  -0.455  30.317  0.00  0.00     0.122 A 
ATOM      4  N   UNL d   1      58.170  -1.791  29.772  0.00  0.00    -0.242 NA
ATOM      5  C   UNL d   1      59.385  -0.022  29.338  0.00  0.00     0.059 A 
ATOM      6  C   UNL d   1      58.411   0.312  30.342  0.00  0.00     0.027 A 
ATOM      7  C   UNL d   1      59.040   0.538  29.858  0.00  0.00     0.013 A 
ATOM      8 CL   UNL d   1      60.019   0.204  28.851  0.00  0.00    -0.082 Cl
ATOM      9  C   UNL d   1      59.432  -1.346  28.800  0.00  0.00     0.004 A 
ATOM     10  C   UNL d   1      58.510  -2.341  29.260  0.00  0.00     0.099 A 
ATOM     11  C   UNL d   1      59.144  -2.116  28.772  0.00  0.00     0.021 A 
ENDROOT
BRANCH   3  12
ATOM     12  O   UNL d   1      57.484  -0.676  30.809  0.00  0.00    -0.257 OA
BRANCH  12  13
ATOM     13  C   UNL d   1      57.023  -0.094  31.192  0.00  0.00     0.378 C 
ATOM     14  N   UNL d   1      56.596  -0.276  31.865  0.00  0.00    -0.252 N 
ATOM     15  C   UNL d   1      56.142   0.302  32.240  0.00  0.00     0.085 A 
ATOM     16  C   UNL d   1      56.617  -1.042  32.173  0.00  0.00     0.085 A 
ATOM     17  C   UNL d   1      55.712   0.122  32.917  0.00  0.00     0.019 A 
ATOM     18  C   UNL d   1      55.734  -0.644  33.225  0.00  0.00     0.003 A 
ATOM     19  C   UNL d   1      56.185  -1.217  32.851  0.00  0.00     0.019 A 
ATOM     20  O   UNL d   1      57.001   0.682  30.880  0.00  0.00    -0.237 OA
ENDBRANCH  12  13
ENDBRANCH   3  12
TORSDOF 2
ENDMDL
MODEL 2
REMARK VINA RESULT:      -4.4      1.306      1.825
REMARK  2 active torsions:
REMARK  status: ('A' for Active; 'I' for Inactive)
REMARK       I    between atoms: N_3  and  C_1 
REMARK    1  A    between atoms: O_4  and  C_1 
REMARK    2  A    between atoms: C_6  and  O_4 
ROOT
ATOM      1  C   UNL d   1      59.079   0.472  30.595  0.00  0.00     0.105 A 
ATOM      2  C   UNL d   1      59.501   0.475  29.890  0.00  0.00     0.030 A 
ATOM      3  C   UNL d   1      58.247   0.365  30.586  0.00  0.00     0.122 A 
ATOM      4  N   UNL d   1      59.473   0.573  31.319  0.00  0.00    -0.242 NA
ATOM      5  C   UNL d   1      59.106   0.374  29.170  0.00  0.00     0.059 A 
ATOM      6  C   UNL d   1      57.857   0.265  29.872  0.00  0.00     0.027 A 
ATOM      7  C   UNL d   1      58.275   0.268  29.161  0.00  0.00     0.013 A 
ATOM      8 CL   UNL d   1      59.529   0.378  28.455  0.00  0.00    -0.082 Cl
ATOM      9  C   UNL d   1      60.319   0.580  29.898  0.00  0.00     0.004 A 
ATOM     10  C   UNL d   1      60.291   0.678  31.328  0.00  0.00     0.099 A 
ATOM     11  C   UNL d   1      60.715   0.681  30.613  0.00  0.00     0.021 A 
ENDROOT
BRANCH   3  12
ATOM     12  O   UNL d   1      57.817   0.361  31.301  0.00  0.00    -0.257 OA
BRANCH  12  13
ATOM     13  C   UNL d   1      57.292  -0.265  31.477  0.00  0.00     0.378 C 
ATOM     14  N   UNL d   1      56.768  -0.209  32.102  0.00  0.00    -0.252 N 
ATOM     15  C   UNL d   1      56.252  -0.830  32.271  0.00  0.00     0.085 A 
ATOM     16  C   UNL d   1      56.754   0.472  32.568  0.00  0.00     0.085 A 
ATOM     17  C   UNL d   1      55.725  -0.777  32.898  0.00  0.00     0.019 A 
ATOM     18  C   UNL d   1      55.711  -0.095  33.365  0.00  0.00     0.003 A 
ATOM     19  C   UNL d   1      56.224   0.521  33.196  0.00  0.00     0.019 A 
ATOM     20  O   UNL d   1      57.306  -0.956  31.004  0.00  0.00    -0.237 OA
ENDBRANCH  12  13
ENDBRANCH   3  12
TORSDOF 2
ENDMDL
MODEL 3
REMARK VINA RESULT:      -4.1      1.009      1.738
REMARK  2 active torsions:
REMARK  status: ('A' for Active; 'I' for Inactive)
REMARK       I    between atoms: N_3  and  C_1 
REMARK    1  A    between atoms: O_4  and  C_1 
REMARK    2  A    between atoms: C_6  and  O_4 
ROOT
ATOM      1  C   UNL d   1      58.824  -0.509  29.603  0.00  0.00     0.105 A 
ATOM      2  C   UNL d   1      59.266  -0.948  29.066  0.00  0.00     0.030 A 
ATOM      3  C   UNL d   1      58.251  -0.887  30.084  0.00  0.00     0.122 A 
ATOM      4  N   UNL d   1      58.944   0.310  29.672  0.00  0.00    -0.242 NA
ATOM      5  C   UNL d   1      59.146  -1.764  28.999  0.00  0.00     0.059 A 
ATOM      6  C   UNL d   1      58.132  -1.696  30.017  0.00  0.00     0.027 A 
ATOM      7  C   UNL d   1      58.572  -2.142  29.480  0.00  0.00     0.013 A 
ATOM      8 CL   UNL d   1      59.589  -2.211  28.458  0.00  0.00    -0.082 Cl
ATOM      9  C   UNL d   1      59.830  -0.576  28.593  0.00  0.00     0.004 A 
ATOM     10  C   UNL d   1      59.508   0.682  29.199  0.00  0.00     0.099 A 
ATOM     11  C   UNL d   1      59.953   0.235  28.657  0.00  0.00     0.021 A 
ENDROOT
BRANCH   3  12
ATOM     12  O   UNL d   1      57.802  -0.444  30.629  0.00  0.00    -0.257 OA
BRANCH  12  13
ATOM     13  C   UNL d   1      57.272  -0.824  31.151  0.00  0.00     0.378 C 
ATOM     14  N   UNL d   1      57.014  -0.451  31.831  0.00  0.00    -0.252 N 
ATOM     15  C   UNL d   1      56.491  -0.831  32.343  0.00  0.00     0.085 A 
ATOM     16  C   UNL d   1      57.277   0.312  32.008  0.00  0.00     0.085 A 
ATOM     17  C   UNL d   1      56.230  -0.458  33.027  0.00  0.00     0.019 A 
ATOM     18  C   UNL d   1      56.493   0.305  33.204  0.00  0.00     0.003 A 
ATOM     19  C   UNL d   1      57.012   0.682  32.694  0.00  0.00     0.019 A 
ATOM     20  O   UNL d   1      57.005  -1.597  30.972  0.00  0.00    -0.237 OA
ENDBRANCH  12  13
ENDBRANCH   3  12
TORSDOF 2
ENDMDL
MODEL 4
REMARK VINA RESULT:      -3.0      9.364      9.497
REMARK  2 active torsions:
REMARK  status: ('A' for Active; 'I' for Inactive)
REMARK       I    between atoms: N_3  and  C_1 
REMARK    1  A    between atoms: O_4  and  C_1 
REMARK    2  A    between atoms: C_6  and  O_4 
ROOT
ATOM      1  C   UNL d   1      58.594  -9.818  30.232  0.00  0.00     0.105 A 
ATOM      2  C   UNL d   1      57.996  -9.818  29.668  0.00  0.00     0.030 A 
ATOM      3  C   UNL d   1      58.401  -9.818  31.048  0.00  0.00     0.122 A 
ATOM      4  N   UNL d   1      59.390  -9.818  29.997  0.00  0.00    -0.242 NA
ATOM      5  C   UNL d   1      57.203  -9.818  29.904  0.00  0.00     0.059 A 
ATOM      6  C   UNL d   1      57.615  -9.818  31.281  0.00  0.00     0.027 A 
ATOM      7  C   UNL d   1      57.011  -9.818  30.720  0.00  0.00     0.013 A 
ATOM      8 CL   UNL d   1      56.596  -9.818  29.337  0.00  0.00    -0.082 Cl
ATOM      9  C   UNL d   1      58.185  -9.818  28.865  0.00  0.00     0.004 A 
ATOM     10  C   UNL d   1      59.580  -9.818  29.194  0.00  0.00     0.099 A 
ATOM     11  C   UNL d   1      58.973  -9.818  28.627  0.00  0.00     0.021 A 
ENDROOT
BRANCH   3  12
ATOM     12  O   UNL d   1      59.006  -9.818  31.622  0.00  0.00    -0.257 OA
BRANCH  12  13
ATOM     13  C   UNL d   1      58.833  -9.651  32.422  0.00  0.00     0.378 C 
ATOM     14  N   UNL d   1      59.431  -9.504  32.959  0.00  0.00    -0.252 N 
ATOM     15  C   UNL d   1      59.254  -9.340  33.748  0.00  0.00     0.085 A 
ATOM     16  C   UNL d   1      60.219  -9.520  32.712  0.00  0.00     0.085 A 
ATOM     17  C   UNL d   1      59.854  -9.192  34.289  0.00  0.00     0.019 A 
ATOM     18  C   UNL d   1      60.642  -9.208  34.042  0.00  0.00     0.003 A 
ATOM     19  C   UNL d   1      60.816  -9.371  33.259  0.00  0.00     0.019 A 
ATOM     20  O   UNL d   1      58.034  -9.635  32.672  0.00  0.00    -0.237 OA
ENDBRANCH  12  13
ENDBRANCH   3  12
TORSDOF 2
ENDMDL
MODEL 5
REMARK VINA RESULT:      -2.8      9.357      9.619
REMARK  2 active torsions:
REMARK  status: ('A' for Active; 'I' for Inactive)
REMARK       I    between atoms: N_3  and  C_1 
REMARK    1  A    between atoms: O_4  and  C_1 
REMARK    2  A    between atoms: C_6  and  O_4 
ROOT
ATOM      1  C   UNL d   1      58.523  -9.811  31.589  0.00  0.00     0.105 A 
ATOM      2  C   UNL d   1      58.536  -9.814  30.766  0.00  0.00     0.030 A 
ATOM      3  C   UNL d   1      59.241  -9.808  32.020  0.00  0.00     0.122 A 
ATOM      4  N   UNL d   1      57.798  -9.812  31.995  0.00  0.00    -0.242 NA
ATOM      5  C   UNL d   1      59.258  -9.813  30.363  0.00  0.00     0.059 A 
ATOM      6  C   UNL d   1      59.957  -9.807  31.619  0.00  0.00     0.027 A 
ATOM      7  C   UNL d   1      59.976  -9.810  30.794  0.00  0.00     0.013 A 
ATOM      8 CL   UNL d   1      59.275  -9.816  29.533  0.00  0.00    -0.082 Cl
ATOM      9  C   UNL d   1      57.828  -9.817  30.342  0.00  0.00     0.004 A 
ATOM     10  C   UNL d   1      57.091  -9.815  31.570  0.00  0.00     0.099 A 
ATOM     11  C   UNL d   1      57.108  -9.818  30.740  0.00  0.00     0.021 A 
ENDROOT
BRANCH   3  12
ATOM     12  O   UNL d   1      59.230  -9.806  32.854  0.00  0.00    -0.257 OA
BRANCH  12  13
ATOM     13  C   UNL d   1      59.848  -9.445  33.286  0.00  0.00     0.378 C 
ATOM     14  N   UNL d   1      59.841  -9.441  34.103  0.00  0.00    -0.252 N 
ATOM     15  C   UNL d   1      60.454  -9.084  34.524  0.00  0.00     0.085 A 
ATOM     16  C   UNL d   1      59.217  -9.796  34.511  0.00  0.00     0.085 A 
ATOM     17  C   UNL d   1      60.449  -9.078  35.345  0.00  0.00     0.019 A 
ATOM     18  C   UNL d   1      59.825  -9.433  35.754  0.00  0.00     0.003 A 
ATOM     19  C   UNL d   1      59.217  -9.787  35.334  0.00  0.00     0.019 A 
ATOM     20  O   UNL d   1      60.481  -9.086  32.871  0.00  0.00    -0.237 OA
ENDBRANCH  12  13
ENDBRANCH   3  12
TORSDOF 2
ENDMDL
MODEL 6
REMARK VINA RESULT:      -2.5      8.944      9.894
REMARK  2 active torsions:
REMARK  status: ('A' for Active; 'I' for Inactive)
REMARK       I    between atoms: N_3  and  C_1 
REMARK    1  A    between atoms: O_4  and  C_1 
REMARK    2  A    between atoms: C_6  and  O_4 
ROOT
ATOM      1  C   UNL d   1      59.370  -8.606  35.066  0.00  0.00     0.105 A 
ATOM      2  C   UNL d   1      59.921  -8.504  35.668  0.00  0.00     0.030 A 
ATOM      3  C   UNL d   1      59.468  -9.221  34.506  0.00  0.00     0.122 A 
ATOM      4  N   UNL d   1      58.714  -8.099  35.011  0.00  0.00    -0.242 NA
ATOM      5  C   UNL d   1      60.574  -9.010  35.721  0.00  0.00     0.059 A 
ATOM      6  C   UNL d   1      60.115  -9.723  34.560  0.00  0.00     0.027 A 
ATOM      7  C   UNL d   1      60.671  -9.626  35.161  0.00  0.00     0.013 A 
ATOM      8 CL   UNL d   1      61.133  -8.912  36.327  0.00  0.00    -0.082 Cl
ATOM      9  C   UNL d   1      59.825  -7.898  36.219  0.00  0.00     0.004 A 
ATOM     10  C   UNL d   1      58.618  -7.493  35.562  0.00  0.00     0.099 A 
ATOM     11  C   UNL d   1      59.177  -7.393  36.169  0.00  0.00     0.021 A 
ENDROOT
BRANCH   3  12
ATOM     12  O   UNL d   1      58.909  -9.326  33.895  0.00  0.00    -0.257 OA
BRANCH  12  13
ATOM     13  C   UNL d   1      59.160  -9.437  33.106  0.00  0.00     0.378 C 
ATOM     14  N   UNL d   1      58.616  -9.557  32.507  0.00  0.00    -0.252 N 
ATOM     15  C   UNL d   1      58.869  -9.666  31.729  0.00  0.00     0.085 A 
ATOM     16  C   UNL d   1      57.809  -9.569  32.680  0.00  0.00     0.085 A 
ATOM     17  C   UNL d   1      58.325  -9.786  31.126  0.00  0.00     0.019 A 
ATOM     18  C   UNL d   1      57.517  -9.799  31.299  0.00  0.00     0.003 A 
ATOM     19  C   UNL d   1      57.267  -9.690  32.072  0.00  0.00     0.019 A 
ATOM     20  O   UNL d   1      59.978  -9.424  32.931  0.00  0.00    -0.237 OA
ENDBRANCH  12  13
ENDBRANCH   3  12
TORSDOF 2
ENDMDL
