MODEL 1
REMARK VINA RESULT:      62.5      0.000      0.000
REMARK  6 active torsions:
REMARK  status: ('A' for Active; 'I' for Inactive)
REMARK    1  A    between atoms: C_21  and  C_3 
REMARK    2  A    between atoms: S_17  and  C_5 
REMARK    3  A    between atoms: C_11  and  C_16 
REMARK       I    between atoms: N_14  and  C_11 
REMARK    4  A    between atoms: C_19  and  N_14 
REMARK    5  A    between atoms: C_16  and  C_20 
REMARK    6  A    between atoms: C_20  and  S_17 
ROOT
ATOM      1  C   UNL d   1      14.607  14.073  -1.847  0.00  0.00     0.092 A 
ATOM      2  C   UNL d   1      13.913  13.054  -2.572  0.00  0.00     0.057 A 
ATOM      3  C   UNL d   1      14.298  13.305  -1.891  0.00  0.00     0.016 A 
ATOM      4  N   UNL d   1      14.138  14.326  -3.172  0.00  0.00    -0.239 NA
ATOM      5  C   UNL d   1      14.526  14.583  -2.488  0.00  0.00     0.120 A 
ATOM      6  C   UNL d   1      13.833  13.564  -3.212  0.00  0.00     0.081 A 
ATOM      7  C   UNL d   1      13.608  12.292  -2.611  0.00  0.00     0.193 A 
ATOM      8  C   UNL d   1      14.995  14.319  -1.154  0.00  0.00     0.103 C 
ATOM      9  N   UNL d   1      15.384  14.572  -0.463  0.00  0.00    -0.191 NA
ATOM     10  C   UNL d   1      13.141  12.548  -3.935  0.00  0.00     0.042 A 
ATOM     11  C   UNL d   1      13.221  12.038  -3.294  0.00  0.00     0.019 A 
ATOM     12  C   UNL d   1      13.448  13.312  -3.893  0.00  0.00    -0.003 A 
ATOM     13  O   UNL d   1      13.689  11.782  -1.970  0.00  0.00    -0.287 OA
ATOM     14  C   UNL d   1      12.929  12.826  -4.680  0.00  0.00     0.009 C 
ATOM     15  C   UNL d   1      12.833  11.780  -3.979  0.00  0.00     0.009 C 
ENDROOT
BRANCH   3  16
ATOM     16  C   UNL d   1      14.378  12.795  -1.250  0.00  0.00     0.001 C 
ATOM     17  C   UNL d   1      15.126  12.591  -0.976  0.00  0.00     0.000 C 
ENDBRANCH   3  16
BRANCH   5  18
ATOM     18  S   UNL d   1      14.833  15.348  -2.445  0.00  0.00    -0.067 SA
BRANCH  18  19
ATOM     19  C   UNL d   1      14.522  15.939  -2.931  0.00  0.00     0.042 C 
BRANCH  19  20
ATOM     20  C   UNL d   1      14.982  16.253  -3.542  0.00  0.00     0.070 C 
BRANCH  20  21
ATOM     21  C   UNL d   1      14.793  16.993  -3.864  0.00  0.00     0.280 C 
ATOM     22  N   UNL d   1      15.089  17.210  -4.604  0.00  0.00    -0.208 NA
ATOM     23  O   UNL d   1      14.308  17.517  -3.446  0.00  0.00    -0.265 OA
BRANCH  22  24
ATOM     24  C   UNL d   1      14.900  17.951  -4.927  0.00  0.00     0.085 A 
ATOM     25  C   UNL d   1      15.480  18.537  -4.991  0.00  0.00     0.019 A 
ATOM     26  C   UNL d   1      15.288  19.268  -5.310  0.00  0.00     0.002 A 
ATOM     27  C   UNL d   1      14.518  19.428  -5.570  0.00  0.00     0.000 A 
ATOM     28  C   UNL d   1      13.941  18.845  -5.507  0.00  0.00     0.002 A 
ATOM     29  C   UNL d   1      14.327  20.176  -5.896  0.00  0.00     0.000 C 
ATOM     30  C   UNL d   1      14.130  18.105  -5.185  0.00  0.00     0.019 A 
ENDBRANCH  22  24
ENDBRANCH  20  21
ENDBRANCH  19  20
ENDBRANCH  18  19
ENDBRANCH   5  18
TORSDOF 6
ENDMDL
MODEL 2
REMARK VINA RESULT:      62.6      1.176      1.705
REMARK  6 active torsions:
REMARK  status: ('A' for Active; 'I' for Inactive)
REMARK    1  A    between atoms: C_21  and  C_3 
REMARK    2  A    between atoms: S_17  and  C_5 
REMARK    3  A    between atoms: C_11  and  C_16 
REMARK       I    between atoms: N_14  and  C_11 
REMARK    4  A    between atoms: C_19  and  N_14 
REMARK    5  A    between atoms: C_16  and  C_20 
REMARK    6  A    between atoms: C_20  and  S_17 
ROOT
ATOM      1  C   UNL d   1      14.910  15.353  -1.407  0.00  0.00     0.092 A 
ATOM      2  C   UNL d   1      14.798  13.938  -1.237  0.00  0.00     0.057 A 
ATOM      3  C   UNL d   1      15.009  14.675  -0.941  0.00  0.00     0.016 A 
ATOM      4  N   UNL d   1      14.387  14.542  -2.460  0.00  0.00    -0.239 NA
ATOM      5  C   UNL d   1      14.599  15.287  -2.166  0.00  0.00     0.120 A 
ATOM      6  C   UNL d   1      14.487  13.871  -1.996  0.00  0.00     0.081 A 
ATOM      7  C   UNL d   1      14.898  13.267  -0.773  0.00  0.00     0.193 A 
ATOM      8  C   UNL d   1      15.126  16.095  -1.099  0.00  0.00     0.103 C 
ATOM      9  N   UNL d   1      15.341  16.841  -0.798  0.00  0.00    -0.191 NA
ATOM     10  C   UNL d   1      14.375  12.460  -1.828  0.00  0.00     0.042 A 
ATOM     11  C   UNL d   1      14.686  12.526  -1.068  0.00  0.00     0.019 A 
ATOM     12  C   UNL d   1      14.276  13.134  -2.291  0.00  0.00    -0.003 A 
ATOM     13  O   UNL d   1      15.209  13.333  -0.014  0.00  0.00    -0.287 OA
ATOM     14  C   UNL d   1      14.061  12.118  -2.507  0.00  0.00     0.009 C 
ATOM     15  C   UNL d   1      14.475  11.781  -1.362  0.00  0.00     0.009 C 
ENDROOT
BRANCH   3  16
ATOM     16  C   UNL d   1      15.320  14.741  -0.182  0.00  0.00     0.001 C 
ATOM     17  C   UNL d   1      16.125  14.868  -0.077  0.00  0.00     0.000 C 
ENDBRANCH   3  16
BRANCH   5  18
ATOM     18  S   UNL d   1      14.499  15.962  -2.629  0.00  0.00    -0.067 SA
BRANCH  18  19
ATOM     19  C   UNL d   1      15.060  16.145  -3.207  0.00  0.00     0.042 C 
BRANCH  19  20
ATOM     20  C   UNL d   1      14.828  16.220  -3.997  0.00  0.00     0.070 C 
BRANCH  20  21
ATOM     21  C   UNL d   1      14.868  16.959  -4.372  0.00  0.00     0.280 C 
ATOM     22  N   UNL d   1      14.256  17.204  -4.870  0.00  0.00    -0.208 NA
ATOM     23  O   UNL d   1      15.520  17.452  -4.249  0.00  0.00    -0.265 OA
BRANCH  22  24
ATOM     24  C   UNL d   1      14.297  17.942  -5.245  0.00  0.00     0.085 A 
ATOM     25  C   UNL d   1      14.837  18.512  -4.984  0.00  0.00     0.019 A 
ATOM     26  C   UNL d   1      14.872  19.241  -5.360  0.00  0.00     0.002 A 
ATOM     27  C   UNL d   1      14.374  19.416  -5.997  0.00  0.00     0.000 A 
ATOM     28  C   UNL d   1      13.837  18.849  -6.257  0.00  0.00     0.002 A 
ATOM     29  C   UNL d   1      14.415  20.162  -6.377  0.00  0.00     0.000 C 
ATOM     30  C   UNL d   1      13.797  18.110  -5.882  0.00  0.00     0.019 A 
ENDBRANCH  22  24
ENDBRANCH  20  21
ENDBRANCH  19  20
ENDBRANCH  18  19
ENDBRANCH   5  18
TORSDOF 6
ENDMDL
MODEL 3
REMARK VINA RESULT:      64.0      1.412      1.968
REMARK  6 active torsions:
REMARK  status: ('A' for Active; 'I' for Inactive)
REMARK    1  A    between atoms: C_21  and  C_3 
REMARK    2  A    between atoms: S_17  and  C_5 
REMARK    3  A    between atoms: C_11  and  C_16 
REMARK       I    between atoms: N_14  and  C_11 
REMARK    4  A    between atoms: C_19  and  N_14 
REMARK    5  A    between atoms: C_16  and  C_20 
REMARK    6  A    between atoms: C_20  and  S_17 
ROOT
ATOM      1  C   UNL d   1      14.071  15.177  -3.833  0.00  0.00     0.092 A 
ATOM      2  C   UNL d   1      13.631  13.823  -3.694  0.00  0.00     0.057 A 
ATOM      3  C   UNL d   1      13.936  14.510  -3.360  0.00  0.00     0.016 A 
ATOM      4  N   UNL d   1      13.593  14.456  -4.969  0.00  0.00    -0.239 NA
ATOM      5  C   UNL d   1      13.900  15.150  -4.637  0.00  0.00     0.120 A 
ATOM      6  C   UNL d   1      13.460  13.797  -4.498  0.00  0.00     0.081 A 
ATOM      7  C   UNL d   1      13.498  13.164  -3.222  0.00  0.00     0.193 A 
ATOM      8  C   UNL d   1      14.380  15.868  -3.487  0.00  0.00     0.103 C 
ATOM      9  N   UNL d   1      14.688  16.562  -3.147  0.00  0.00    -0.191 NA
ATOM     10  C   UNL d   1      13.021  12.447  -4.360  0.00  0.00     0.042 A 
ATOM     11  C   UNL d   1      13.193  12.474  -3.555  0.00  0.00     0.019 A 
ATOM     12  C   UNL d   1      13.155  13.110  -4.831  0.00  0.00    -0.003 A 
ATOM     13  O   UNL d   1      13.670  13.191  -2.418  0.00  0.00    -0.287 OA
ATOM     14  C   UNL d   1      12.773  12.155  -5.088  0.00  0.00     0.009 C 
ATOM     15  C   UNL d   1      12.886  11.780  -3.887  0.00  0.00     0.009 C 
ENDROOT
BRANCH   3  16
ATOM     16  C   UNL d   1      14.107  14.537  -2.556  0.00  0.00     0.001 C 
ATOM     17  C   UNL d   1      14.676  14.035  -2.239  0.00  0.00     0.000 C 
ENDBRANCH   3  16
BRANCH   5  18
ATOM     18  S   UNL d   1      14.034  15.813  -5.109  0.00  0.00    -0.067 SA
BRANCH  18  19
ATOM     19  C   UNL d   1      13.423  16.110  -5.578  0.00  0.00     0.042 C 
BRANCH  19  20
ATOM     20  C   UNL d   1      13.600  16.546  -6.257  0.00  0.00     0.070 C 
BRANCH  20  21
ATOM     21  C   UNL d   1      13.527  17.372  -6.251  0.00  0.00     0.280 C 
ATOM     22  N   UNL d   1      14.192  17.846  -6.130  0.00  0.00    -0.208 NA
ATOM     23  O   UNL d   1      12.787  17.724  -6.365  0.00  0.00    -0.265 OA
BRANCH  22  24
ATOM     24  C   UNL d   1      14.119  18.672  -6.123  0.00  0.00     0.085 A 
ATOM     25  C   UNL d   1      14.742  19.142  -5.851  0.00  0.00     0.019 A 
ATOM     26  C   UNL d   1      14.664  19.960  -5.846  0.00  0.00     0.002 A 
ATOM     27  C   UNL d   1      13.968  20.321  -6.111  0.00  0.00     0.000 A 
ATOM     28  C   UNL d   1      13.347  19.853  -6.382  0.00  0.00     0.002 A 
ATOM     29  C   UNL d   1      13.893  21.156  -6.104  0.00  0.00     0.000 C 
ATOM     30  C   UNL d   1      13.421  19.027  -6.389  0.00  0.00     0.019 A 
ENDBRANCH  22  24
ENDBRANCH  20  21
ENDBRANCH  19  20
ENDBRANCH  18  19
ENDBRANCH   5  18
TORSDOF 6
ENDMDL
