MODEL 1
REMARK VINA RESULT:      52.2      0.000      0.000
REMARK  3 active torsions:
REMARK  status: ('A' for Active; 'I' for Inactive)
REMARK    1  A    between atoms: C_15  and  C_4 
REMARK    2  A    between atoms: C_8  and  S_16 
REMARK    3  A    between atoms: S_16  and  C_15 
ROOT
ATOM      1  N   UNL d   1     -55.020-100.759 -43.389  0.00  0.00    -0.133 N 
ATOM      2  C   UNL d   1     -54.906-101.569 -43.454  0.00  0.00     0.736 A 
ATOM      3  C   UNL d   1     -54.964-100.556 -42.592  0.00  0.00     0.135 A 
ATOM      4  C   UNL d   1     -54.814-101.242 -42.160  0.00  0.00     0.129 A 
ATOM      5  N   UNL d   1     -54.778-101.871 -42.698  0.00  0.00    -0.058 NA
ATOM      6  C   UNL d   1     -55.161-100.309 -44.055  0.00  0.00     0.084 A 
ATOM      7  N   UNL d   1     -54.931-101.935 -44.185  0.00  0.00    -0.060 NA
ATOM      8  C   UNL d   1     -55.188-100.670 -44.802  0.00  0.00     0.038 A 
ATOM      9  C   UNL d   1     -55.074-101.479 -44.867  0.00  0.00     0.101 A 
ATOM     10 BR   UNL d   1     -55.043 -99.781 -42.258  0.00  0.00    -0.028 Br
ATOM     11  C   UNL d   1     -55.277 -99.484 -43.988  0.00  0.00     0.020 C 
ATOM     12  C   UNL d   1     -55.107-101.818 -45.637  0.00  0.00     0.021 C 
ENDROOT
BRANCH   4  13
ATOM     13  C   UNL d   1     -54.719-101.279 -41.343  0.00  0.00     0.059 C 
BRANCH  13  14
ATOM     14  S   UNL d   1     -54.923-101.946 -40.904  0.00  0.00    -0.059 SA
BRANCH  14  15
ATOM     15  C   UNL d   1     -54.911-101.936 -40.084  0.00  0.00     0.141 A 
ATOM     16  N   UNL d   1     -54.743-101.347 -39.524  0.00  0.00    -0.232 NA
ATOM     17  C   UNL d   1     -54.819-101.657 -38.793  0.00  0.00     0.088 A 
ATOM     18  C   UNL d   1     -54.714-101.306 -38.058  0.00  0.00     0.020 A 
ATOM     19  C   UNL d   1     -55.031-102.428 -38.841  0.00  0.00     0.049 A 
ATOM     20  C   UNL d   1     -54.828-101.750 -37.365  0.00  0.00     0.002 A 
ATOM     21  C   UNL d   1     -55.041-102.525 -37.410  0.00  0.00     0.001 A 
ATOM     22  C   UNL d   1     -55.145-102.876 -38.150  0.00  0.00     0.008 A 
ATOM     23  S   UNL d   1     -55.091-102.611 -39.659  0.00  0.00    -0.060 SA
ENDBRANCH  14  15
ENDBRANCH  13  14
ENDBRANCH   4  13
TORSDOF 3
ENDMDL
MODEL 2
REMARK VINA RESULT:      52.9      3.042      4.410
REMARK  3 active torsions:
REMARK  status: ('A' for Active; 'I' for Inactive)
REMARK    1  A    between atoms: C_15  and  C_4 
REMARK    2  A    between atoms: C_8  and  S_16 
REMARK    3  A    between atoms: S_16  and  C_15 
ROOT
ATOM      1  N   UNL d   1     -57.299 -98.766 -44.536  0.00  0.00    -0.133 N 
ATOM      2  C   UNL d   1     -57.244 -98.771 -43.718  0.00  0.00     0.736 A 
ATOM      3  C   UNL d   1     -56.534 -98.761 -44.843  0.00  0.00     0.135 A 
ATOM      4  C   UNL d   1     -56.002 -98.763 -44.214  0.00  0.00     0.129 A 
ATOM      5  N   UNL d   1     -56.445 -98.769 -43.514  0.00  0.00    -0.058 NA
ATOM      6  C   UNL d   1     -58.029 -98.767 -44.899  0.00  0.00     0.084 A 
ATOM      7  N   UNL d   1     -57.919 -98.776 -43.255  0.00  0.00    -0.060 NA
ATOM      8  C   UNL d   1     -58.721 -98.773 -44.440  0.00  0.00     0.038 A 
ATOM      9  C   UNL d   1     -58.667 -98.777 -43.622  0.00  0.00     0.101 A 
ATOM     10 BR   UNL d   1     -56.316 -98.756 -45.663  0.00  0.00    -0.028 Br
ATOM     11  C   UNL d   1     -58.085 -98.763 -45.733  0.00  0.00     0.020 C 
ATOM     12  C   UNL d   1     -59.385 -98.783 -43.182  0.00  0.00     0.021 C 
ENDROOT
BRANCH   4  13
ATOM     13  C   UNL d   1     -55.182 -98.759 -44.284  0.00  0.00     0.059 C 
BRANCH  13  14
ATOM     14  S   UNL d   1     -54.758 -99.417 -44.543  0.00  0.00    -0.059 SA
BRANCH  14  15
ATOM     15  C   UNL d   1     -54.756-100.117 -44.116  0.00  0.00     0.141 A 
ATOM     16  N   UNL d   1     -54.763-100.289 -43.303  0.00  0.00    -0.232 NA
ATOM     17  C   UNL d   1     -54.757-101.081 -43.207  0.00  0.00     0.088 A 
ATOM     18  C   UNL d   1     -54.760-101.528 -42.518  0.00  0.00     0.020 A 
ATOM     19  C   UNL d   1     -54.745-101.445 -43.920  0.00  0.00     0.049 A 
ATOM     20  C   UNL d   1     -54.752-102.357 -42.561  0.00  0.00     0.002 A 
ATOM     21  C   UNL d   1     -54.740-102.727 -43.276  0.00  0.00     0.001 A 
ATOM     22  C   UNL d   1     -54.737-102.275 -43.967  0.00  0.00     0.008 A 
ATOM     23  S   UNL d   1     -54.745-100.839 -44.501  0.00  0.00    -0.060 SA
ENDBRANCH  14  15
ENDBRANCH  13  14
ENDBRANCH   4  13
TORSDOF 3
ENDMDL
