MODEL 1
REMARK VINA RESULT:      -3.7      0.000      0.000
REMARK  7 active torsions:
REMARK  status: ('A' for Active; 'I' for Inactive)
REMARK    1  A    between atoms: S_2  and  C_1 
REMARK    2  A    between atoms: N_14  and  S_2 
REMARK    3  A    between atoms: C_9  and  C_18 
REMARK       I    between atoms: N_17  and  C_9 
REMARK    4  A    between atoms: C_13  and  C_23 
REMARK    5  A    between atoms: C_24  and  N_14 
REMARK    6  A    between atoms: C_23  and  N_17 
REMARK    7  A    between atoms: C_18  and  C_24 
ROOT
ATOM      1  S   UNL d   1      32.477  21.276 -21.232  0.00  0.00     0.287 S 
ATOM      2  O   UNL d   1      33.233  21.403 -21.536  0.00  0.00    -0.198 OA
ATOM      3  O   UNL d   1      31.721  21.148 -20.927  0.00  0.00    -0.198 OA
ENDROOT
BRANCH   1   4
ATOM      4  C   UNL d   1      32.396  22.082 -21.095  0.00  0.00     0.127 A 
ATOM      5  C   UNL d   1      32.602  22.401 -20.364  0.00  0.00     0.142 A 
ATOM      6  C   UNL d   1      32.520  23.211 -20.228  0.00  0.00     0.131 A 
ATOM      7  N   UNL d   1      32.898  22.059 -19.679  0.00  0.00    -0.101 NA
ATOM      8  N   UNL d   1      32.766  23.366 -19.458  0.00  0.00    -0.102 NA
ATOM      9  C   UNL d   1      32.233  23.702 -20.821  0.00  0.00     0.023 A 
ATOM     10  O   UNL d   1      33.001  22.652 -19.117  0.00  0.00    -0.106 OA
ATOM     11  C   UNL d   1      32.023  23.387 -21.561  0.00  0.00     0.002 A 
ATOM     12  C   UNL d   1      32.105  22.577 -21.698  0.00  0.00     0.015 A 
ENDBRANCH   1   4
BRANCH   1  13
ATOM     13  N   UNL d   1      32.559  20.463 -21.369  0.00  0.00    -0.157 NA
BRANCH  13  14
ATOM     14  C   UNL d   1      32.734  20.186 -22.126  0.00  0.00     0.117 C 
BRANCH  14  15
ATOM     15  C   UNL d   1      32.950  19.398 -22.240  0.00  0.00     0.084 C 
BRANCH  15  16
ATOM     16  C   UNL d   1      32.882  19.053 -22.989  0.00  0.00     0.281 C 
ATOM     17  N   UNL d   1      32.498  18.321 -23.076  0.00  0.00    -0.206 NA
ATOM     18  O   UNL d   1      33.199  19.439 -23.657  0.00  0.00    -0.265 OA
BRANCH  17  19
ATOM     19  C   UNL d   1      32.433  17.978 -23.837  0.00  0.00     0.109 C 
BRANCH  19  20
ATOM     20  C   UNL d   1      31.999  17.282 -23.949  0.00  0.00     0.049 A 
ATOM     21  S   UNL d   1      32.144  16.541 -23.613  0.00  0.00    -0.085 SA
ATOM     22  C   UNL d   1      31.581  16.010 -23.872  0.00  0.00     0.035 A 
ATOM     23  C   UNL d   1      31.070  16.417 -24.381  0.00  0.00     0.007 A 
ATOM     24  C   UNL d   1      31.322  17.199 -24.432  0.00  0.00     0.009 A 
ENDBRANCH  19  20
ENDBRANCH  17  19
ENDBRANCH  15  16
ENDBRANCH  14  15
ENDBRANCH  13  14
ENDBRANCH   1  13
TORSDOF 7
ENDMDL
MODEL 2
REMARK VINA RESULT:      -2.7      1.087      1.385
REMARK  7 active torsions:
REMARK  status: ('A' for Active; 'I' for Inactive)
REMARK    1  A    between atoms: S_2  and  C_1 
REMARK    2  A    between atoms: N_14  and  S_2 
REMARK    3  A    between atoms: C_9  and  C_18 
REMARK       I    between atoms: N_17  and  C_9 
REMARK    4  A    between atoms: C_13  and  C_23 
REMARK    5  A    between atoms: C_24  and  N_14 
REMARK    6  A    between atoms: C_23  and  N_17 
REMARK    7  A    between atoms: C_18  and  C_24 
ROOT
ATOM      1  S   UNL d   1      32.921  20.572 -21.942  0.00  0.00     0.287 S 
ATOM      2  O   UNL d   1      33.241  20.600 -21.182  0.00  0.00    -0.198 OA
ATOM      3  O   UNL d   1      32.601  20.543 -22.702  0.00  0.00    -0.198 OA
ENDROOT
BRANCH   1   4
ATOM      4  C   UNL d   1      32.829  21.389 -21.934  0.00  0.00     0.127 A 
ATOM      5  C   UNL d   1      32.330  21.743 -21.383  0.00  0.00     0.142 A 
ATOM      6  C   UNL d   1      32.238  22.563 -21.374  0.00  0.00     0.131 A 
ATOM      7  N   UNL d   1      31.862  21.432 -20.784  0.00  0.00    -0.101 NA
ATOM      8  N   UNL d   1      31.712  22.756 -20.771  0.00  0.00    -0.102 NA
ATOM      9  C   UNL d   1      32.644  23.029 -21.917  0.00  0.00     0.023 A 
ATOM     10  O   UNL d   1      31.478  22.054 -20.404  0.00  0.00    -0.106 OA
ATOM     11  C   UNL d   1      33.149  22.677 -22.476  0.00  0.00     0.002 A 
ATOM     12  C   UNL d   1      33.241  21.857 -22.484  0.00  0.00     0.015 A 
ENDBRANCH   1   4
BRANCH   1  13
ATOM     13  N   UNL d   1      33.014  19.748 -21.950  0.00  0.00    -0.157 NA
BRANCH  13  14
ATOM     14  C   UNL d   1      32.957  19.332 -22.660  0.00  0.00     0.117 C 
BRANCH  14  15
ATOM     15  C   UNL d   1      33.071  18.515 -22.671  0.00  0.00     0.084 C 
BRANCH  15  16
ATOM     16  C   UNL d   1      32.840  18.073 -23.331  0.00  0.00     0.281 C 
ATOM     17  N   UNL d   1      32.258  17.484 -23.254  0.00  0.00    -0.206 NA
ATOM     18  O   UNL d   1      33.190  18.217 -24.075  0.00  0.00    -0.265 OA
BRANCH  17  19
ATOM     19  C   UNL d   1      32.029  17.041 -23.926  0.00  0.00     0.109 C 
BRANCH  19  20
ATOM     20  C   UNL d   1      31.396  16.508 -23.883  0.00  0.00     0.049 A 
ATOM     21  S   UNL d   1      30.696  16.526 -24.322  0.00  0.00    -0.085 SA
ATOM     22  C   UNL d   1      30.223  15.897 -24.105  0.00  0.00     0.035 A 
ATOM     23  C   UNL d   1      30.626  15.473 -23.519  0.00  0.00     0.007 A 
ATOM     24  C   UNL d   1      31.348  15.844 -23.379  0.00  0.00     0.009 A 
ENDBRANCH  19  20
ENDBRANCH  17  19
ENDBRANCH  15  16
ENDBRANCH  14  15
ENDBRANCH  13  14
ENDBRANCH   1  13
TORSDOF 7
ENDMDL
MODEL 3
REMARK VINA RESULT:      -1.7      2.876      6.182
REMARK  7 active torsions:
REMARK  status: ('A' for Active; 'I' for Inactive)
REMARK    1  A    between atoms: S_2  and  C_1 
REMARK    2  A    between atoms: N_14  and  S_2 
REMARK    3  A    between atoms: C_9  and  C_18 
REMARK       I    between atoms: N_17  and  C_9 
REMARK    4  A    between atoms: C_13  and  C_23 
REMARK    5  A    between atoms: C_24  and  N_14 
REMARK    6  A    between atoms: C_23  and  N_17 
REMARK    7  A    between atoms: C_18  and  C_24 
ROOT
ATOM      1  S   UNL d   1      30.045  17.164 -24.630  0.00  0.00     0.287 S 
ATOM      2  O   UNL d   1      29.541  17.722 -24.969  0.00  0.00    -0.198 OA
ATOM      3  O   UNL d   1      30.550  16.607 -24.290  0.00  0.00    -0.198 OA
ENDROOT
BRANCH   1   4
ATOM      4  C   UNL d   1      29.420  16.633 -24.575  0.00  0.00     0.127 A 
ATOM      5  C   UNL d   1      28.836  16.739 -24.004  0.00  0.00     0.142 A 
ATOM      6  C   UNL d   1      28.209  16.206 -23.949  0.00  0.00     0.131 A 
ATOM      7  N   UNL d   1      28.730  17.312 -23.426  0.00  0.00    -0.101 NA
ATOM      8  N   UNL d   1      27.717  16.451 -23.336  0.00  0.00    -0.102 NA
ATOM      9  C   UNL d   1      28.166  15.566 -24.464  0.00  0.00     0.023 A 
ATOM     10  O   UNL d   1      28.040  17.138 -23.011  0.00  0.00    -0.106 OA
ATOM     11  C   UNL d   1      28.753  15.453 -25.042  0.00  0.00     0.002 A 
ATOM     12  C   UNL d   1      29.380  15.986 -25.097  0.00  0.00     0.015 A 
ENDBRANCH   1   4
BRANCH   1  13
ATOM     13  N   UNL d   1      30.675  17.700 -24.685  0.00  0.00    -0.157 NA
BRANCH  13  14
ATOM     14  C   UNL d   1      31.282  17.685 -24.127  0.00  0.00     0.117 C 
BRANCH  14  15
ATOM     15  C   UNL d   1      31.989  18.085 -24.273  0.00  0.00     0.084 C 
BRANCH  15  16
ATOM     16  C   UNL d   1      32.527  18.213 -23.657  0.00  0.00     0.281 C 
ATOM     17  N   UNL d   1      32.632  18.978 -23.351  0.00  0.00    -0.206 NA
ATOM     18  O   UNL d   1      32.965  17.575 -23.345  0.00  0.00    -0.265 OA
BRANCH  17  19
ATOM     19  C   UNL d   1      33.179  19.101 -22.728  0.00  0.00     0.109 C 
BRANCH  19  20
ATOM     20  C   UNL d   1      33.178  19.810 -22.301  0.00  0.00     0.049 A 
ATOM     21  S   UNL d   1      33.240  20.577 -22.602  0.00  0.00    -0.085 SA
ATOM     22  C   UNL d   1      33.216  21.114 -21.987  0.00  0.00     0.035 A 
ATOM     23  C   UNL d   1      33.137  20.684 -21.284  0.00  0.00     0.007 A 
ATOM     24  C   UNL d   1      33.113  19.882 -21.470  0.00  0.00     0.009 A 
ENDBRANCH  19  20
ENDBRANCH  17  19
ENDBRANCH  15  16
ENDBRANCH  14  15
ENDBRANCH  13  14
ENDBRANCH   1  13
TORSDOF 7
ENDMDL
MODEL 4
REMARK VINA RESULT:      -1.6      1.509      6.069
REMARK  7 active torsions:
REMARK  status: ('A' for Active; 'I' for Inactive)
REMARK    1  A    between atoms: S_2  and  C_1 
REMARK    2  A    between atoms: N_14  and  S_2 
REMARK    3  A    between atoms: C_9  and  C_18 
REMARK       I    between atoms: N_17  and  C_9 
REMARK    4  A    between atoms: C_13  and  C_23 
REMARK    5  A    between atoms: C_24  and  N_14 
REMARK    6  A    between atoms: C_23  and  N_17 
REMARK    7  A    between atoms: C_18  and  C_24 
ROOT
ATOM      1  S   UNL d   1      32.559  18.022 -23.611  0.00  0.00     0.287 S 
ATOM      2  O   UNL d   1      32.183  17.827 -22.903  0.00  0.00    -0.198 OA
ATOM      3  O   UNL d   1      32.935  18.217 -24.319  0.00  0.00    -0.198 OA
ENDROOT
BRANCH   1   4
ATOM      4  C   UNL d   1      32.550  17.231 -23.834  0.00  0.00     0.127 A 
ATOM      5  C   UNL d   1      31.922  16.933 -24.277  0.00  0.00     0.142 A 
ATOM      6  C   UNL d   1      31.913  16.139 -24.501  0.00  0.00     0.131 A 
ATOM      7  N   UNL d   1      31.242  17.285 -24.572  0.00  0.00    -0.101 NA
ATOM      8  N   UNL d   1      31.226  16.003 -24.934  0.00  0.00    -0.102 NA
ATOM      9  C   UNL d   1      32.531  15.642 -24.282  0.00  0.00     0.023 A 
ATOM     10  O   UNL d   1      30.809  16.714 -24.979  0.00  0.00    -0.106 OA
ATOM     11  C   UNL d   1      33.166  15.936 -23.834  0.00  0.00     0.002 A 
ATOM     12  C   UNL d   1      33.176  16.730 -23.611  0.00  0.00     0.015 A 
ENDBRANCH   1   4
BRANCH   1  13
ATOM     13  N   UNL d   1      32.569  18.820 -23.386  0.00  0.00    -0.157 NA
BRANCH  13  14
ATOM     14  C   UNL d   1      32.869  19.039 -22.650  0.00  0.00     0.117 C 
BRANCH  14  15
ATOM     15  C   UNL d   1      33.091  19.821 -22.509  0.00  0.00     0.084 C 
BRANCH  15  16
ATOM     16  C   UNL d   1      33.053  20.132 -21.743  0.00  0.00     0.281 C 
ATOM     17  N   UNL d   1      32.825  20.923 -21.628  0.00  0.00    -0.206 NA
ATOM     18  O   UNL d   1      33.241  19.653 -21.087  0.00  0.00    -0.265 OA
BRANCH  17  19
ATOM     19  C   UNL d   1      32.788  21.232 -20.850  0.00  0.00     0.109 C 
BRANCH  19  20
ATOM     20  C   UNL d   1      32.651  22.038 -20.724  0.00  0.00     0.049 A 
ATOM     21  S   UNL d   1      33.033  22.533 -20.183  0.00  0.00    -0.085 SA
ATOM     22  C   UNL d   1      32.727  23.287 -20.241  0.00  0.00     0.035 A 
ATOM     23  C   UNL d   1      32.142  23.275 -20.826  0.00  0.00     0.007 A 
ATOM     24  C   UNL d   1      32.090  22.509 -21.127  0.00  0.00     0.009 A 
ENDBRANCH  19  20
ENDBRANCH  17  19
ENDBRANCH  15  16
ENDBRANCH  14  15
ENDBRANCH  13  14
ENDBRANCH   1  13
TORSDOF 7
ENDMDL
