MODEL 1
REMARK VINA RESULT:      47.5      0.000      0.000
REMARK  6 active torsions:
REMARK  status: ('A' for Active; 'I' for Inactive)
REMARK    1  A    between atoms: N_2  and  S_1 
REMARK    2  A    between atoms: C_8  and  S_1 
REMARK    3  A    between atoms: C_4  and  C_3 
REMARK    4  A    between atoms: O_18  and  C_5 
REMARK    5  A    between atoms: O_20  and  C_12 
REMARK    6  A    between atoms: O_21  and  C_13 
ROOT
ATOM      1  N   UNL d   1      14.464  13.168  -1.714  0.00  0.00    -0.127 NA
ATOM      2  C   UNL d   1      13.891  12.918  -2.248  0.00  0.00     0.086 A 
ATOM      3  S   UNL d   1      13.477  12.224  -2.112  0.00  0.00    -0.073 SA
ATOM      4  C   UNL d   1      14.213  12.029  -0.899  0.00  0.00     0.074 A 
ATOM      5  C   UNL d   1      13.641  11.779  -1.433  0.00  0.00     0.050 A 
ENDROOT
BRANCH   2   6
ATOM      6  C   UNL d   1      13.730  13.364  -2.925  0.00  0.00     0.042 A 
ATOM      7  C   UNL d   1      13.554  12.978  -3.629  0.00  0.00     0.098 A 
ATOM      8  C   UNL d   1      13.394  13.427  -4.299  0.00  0.00     0.050 A 
ATOM      9  C   UNL d   1      13.408  14.242  -4.272  0.00  0.00     0.118 A 
ATOM     10  C   UNL d   1      13.585  14.625  -3.563  0.00  0.00     0.117 A 
ATOM     11  C   UNL d   1      13.747  14.187  -2.884  0.00  0.00     0.030 A 
BRANCH   7  12
ATOM     12  O   UNL d   1      13.538  12.157  -3.667  0.00  0.00    -0.328 OA
ATOM     13  C   UNL d   1      13.227  11.783  -4.331  0.00  0.00     0.181 C 
ENDBRANCH   7  12
BRANCH   9  14
ATOM     14  O   UNL d   1      13.248  14.684  -4.941  0.00  0.00    -0.326 OA
ATOM     15  C   UNL d   1      13.489  14.419  -5.683  0.00  0.00     0.181 C 
ENDBRANCH   9  14
BRANCH  10  16
ATOM     16  O   UNL d   1      13.600  15.447  -3.528  0.00  0.00    -0.326 OA
ATOM     17  C   UNL d   1      14.294  15.856  -3.694  0.00  0.00     0.181 C 
ENDBRANCH  10  16
ENDBRANCH   2   6
BRANCH   1  18
ATOM     18  S   UNL d   1      15.039  13.252  -1.008  0.00  0.00     0.255 S 
ATOM     19  O   UNL d   1      15.609  13.087  -0.325  0.00  0.00    -0.205 OA
ATOM     20  O   UNL d   1      15.123  12.349  -0.972  0.00  0.00    -0.205 OA
BRANCH  18  21
ATOM     21  C   UNL d   1      15.140  14.125  -0.820  0.00  0.00     0.099 A 
ATOM     22  C   UNL d   1      14.614  14.525  -0.205  0.00  0.00     0.015 A 
ATOM     23  C   UNL d   1      14.710  15.391  -0.015  0.00  0.00     0.030 A 
ATOM     24  C   UNL d   1      15.338  15.873  -0.440  0.00  0.00     0.140 A 
ATOM     25  C   UNL d   1      15.871  15.482  -1.058  0.00  0.00     0.030 A 
ATOM     26  F   UNL d   1      15.446  16.757  -0.255  0.00  0.00    -0.204 F 
ATOM     27  C   UNL d   1      15.774  14.602  -1.252  0.00  0.00     0.015 A 
ENDBRANCH  18  21
ENDBRANCH   1  18
TORSDOF 6
ENDMDL
MODEL 2
REMARK VINA RESULT:      48.5      1.455      2.679
REMARK  6 active torsions:
REMARK  status: ('A' for Active; 'I' for Inactive)
REMARK    1  A    between atoms: N_2  and  S_1 
REMARK    2  A    between atoms: C_8  and  S_1 
REMARK    3  A    between atoms: C_4  and  C_3 
REMARK    4  A    between atoms: O_18  and  C_5 
REMARK    5  A    between atoms: O_20  and  C_12 
REMARK    6  A    between atoms: O_21  and  C_13 
ROOT
ATOM      1  N   UNL d   1      14.841  14.396  -1.099  0.00  0.00    -0.127 NA
ATOM      2  C   UNL d   1      14.934  13.580  -1.132  0.00  0.00     0.086 A 
ATOM      3  S   UNL d   1      15.479  13.208  -0.644  0.00  0.00    -0.073 SA
ATOM      4  C   UNL d   1      15.840  14.477  -0.088  0.00  0.00     0.074 A 
ATOM      5  C   UNL d   1      15.932  13.661  -0.121  0.00  0.00     0.050 A 
ENDROOT
BRANCH   2   6
ATOM      6  C   UNL d   1      14.480  13.129  -1.655  0.00  0.00     0.042 A 
ATOM      7  C   UNL d   1      14.049  12.491  -1.368  0.00  0.00     0.098 A 
ATOM      8  C   UNL d   1      13.599  12.047  -1.894  0.00  0.00     0.050 A 
ATOM      9  C   UNL d   1      13.577  12.231  -2.689  0.00  0.00     0.118 A 
ATOM     10  C   UNL d   1      14.012  12.873  -2.972  0.00  0.00     0.117 A 
ATOM     11  C   UNL d   1      14.467  13.326  -2.455  0.00  0.00     0.030 A 
BRANCH   7  12
ATOM     12  O   UNL d   1      14.064  12.298  -0.569  0.00  0.00    -0.328 OA
ATOM     13  C   UNL d   1      13.500  11.782  -0.262  0.00  0.00     0.181 C 
ENDBRANCH   7  12
BRANCH   9  14
ATOM     14  O   UNL d   1      13.129  11.786  -3.207  0.00  0.00    -0.326 OA
ATOM     15  C   UNL d   1      13.033  12.027  -3.989  0.00  0.00     0.181 C 
ENDBRANCH   9  14
BRANCH  10  16
ATOM     16  O   UNL d   1      13.995  13.064  -3.772  0.00  0.00    -0.326 OA
ATOM     17  C   UNL d   1      13.440  13.598  -4.059  0.00  0.00     0.181 C 
ENDBRANCH  10  16
ENDBRANCH   2   6
BRANCH   1  18
ATOM     18  S   UNL d   1      14.904  15.286  -0.899  0.00  0.00     0.255 S 
ATOM     19  O   UNL d   1      14.960  16.081  -0.470  0.00  0.00    -0.205 OA
ATOM     20  O   UNL d   1      14.890  15.087  -0.015  0.00  0.00    -0.205 OA
BRANCH  18  21
ATOM     21  C   UNL d   1      14.937  15.752  -1.667  0.00  0.00     0.099 A 
ATOM     22  C   UNL d   1      15.701  16.158  -1.924  0.00  0.00     0.015 A 
ATOM     23  C   UNL d   1      15.739  16.622  -2.685  0.00  0.00     0.030 A 
ATOM     24  C   UNL d   1      15.008  16.687  -3.204  0.00  0.00     0.140 A 
ATOM     25  C   UNL d   1      14.237  16.284  -2.956  0.00  0.00     0.030 A 
ATOM     26  F   UNL d   1      15.033  17.157  -3.982  0.00  0.00    -0.204 F 
ATOM     27  C   UNL d   1      14.197  15.812  -2.183  0.00  0.00     0.015 A 
ENDBRANCH  18  21
ENDBRANCH   1  18
TORSDOF 6
ENDMDL
