MODEL 1
REMARK VINA RESULT:      45.3      0.000      0.000
REMARK  7 active torsions:
REMARK  status: ('A' for Active; 'I' for Inactive)
REMARK    1  A    between atoms: C_11  and  C_3 
REMARK    2  A    between atoms: N_12  and  C_7 
REMARK       I    between atoms: C_9  and  N_15 
REMARK    3  A    between atoms: C_14  and  C_9 
REMARK    4  A    between atoms: C_16  and  C_11 
REMARK    5  A    between atoms: C_17  and  N_12 
REMARK    6  A    between atoms: N_15  and  C_16 
REMARK    7  A    between atoms: C_19  and  C_17 
ROOT
ATOM      1  N   UNL d   1      14.921  15.955  -1.432  0.00  0.00    -0.190 N 
ATOM      2  C   UNL d   1      15.424  16.587  -1.613  0.00  0.00     0.187 A 
ATOM      3  C   UNL d   1      15.018  15.763  -0.626  0.00  0.00     0.188 A 
ATOM      4  N   UNL d   1      14.439  15.636  -2.033  0.00  0.00    -0.143 NA
ATOM      5  N   UNL d   1      15.832  16.785  -0.912  0.00  0.00    -0.127 NA
ATOM      6  N   UNL d   1      15.574  16.274  -0.318  0.00  0.00    -0.127 NA
ATOM      7  C   UNL d   1      14.463  15.947  -2.797  0.00  0.00     0.182 A 
ATOM      8  C   UNL d   1      15.448  16.899  -2.376  0.00  0.00     0.044 A 
ATOM      9  C   UNL d   1      14.970  16.581  -2.967  0.00  0.00     0.044 A 
ENDROOT
BRANCH   3  10
ATOM     10  C   UNL d   1      14.624  15.166  -0.211  0.00  0.00     0.061 C 
BRANCH  10  11
ATOM     11  C   UNL d   1      14.784  14.376  -0.375  0.00  0.00     0.105 C 
BRANCH  11  12
ATOM     12  N   UNL d   1      15.519  14.061  -0.168  0.00  0.00    -0.206 NA
ATOM     13  C   UNL d   1      15.643  13.243  -0.228  0.00  0.00     0.279 C 
ATOM     14  O   UNL d   1      16.382  12.929  -0.020  0.00  0.00    -0.265 OA
BRANCH  13  15
ATOM     15  C   UNL d   1      15.038  12.755  -0.492  0.00  0.00     0.058 A 
ATOM     16  C   UNL d   1      14.373  12.608  -0.014  0.00  0.00     0.005 A 
ATOM     17  C   UNL d   1      13.779  12.122  -0.287  0.00  0.00     0.000 A 
ATOM     18  C   UNL d   1      13.835  11.780  -1.028  0.00  0.00     0.000 A 
ATOM     19  C   UNL d   1      14.479  11.915  -1.506  0.00  0.00     0.000 A 
ATOM     20  C   UNL d   1      15.090  12.407  -1.241  0.00  0.00     0.005 A 
ENDBRANCH  13  15
ENDBRANCH  11  12
ENDBRANCH  10  11
ENDBRANCH   3  10
BRANCH   7  21
ATOM     21  N   UNL d   1      13.985  15.635  -3.399  0.00  0.00    -0.224 NA
BRANCH  21  22
ATOM     22  C   UNL d   1      13.438  15.045  -3.205  0.00  0.00     0.101 C 
BRANCH  22  23
ATOM     23  C   UNL d   1      13.344  14.384  -3.689  0.00  0.00     0.019 A 
ATOM     24  C   UNL d   1      13.365  14.468  -4.517  0.00  0.00     0.002 A 
ATOM     25  C   UNL d   1      13.270  13.799  -4.990  0.00  0.00     0.011 A 
ATOM     26  C   UNL d   1      13.155  13.056  -4.656  0.00  0.00     0.058 A 
ATOM     27  C   UNL d   1      13.134  12.972  -3.828  0.00  0.00     0.011 A 
ATOM     28 CL   UNL d   1      13.060  12.387  -5.130  0.00  0.00    -0.082 Cl
ATOM     29  C   UNL d   1      13.229  13.638  -3.350  0.00  0.00     0.002 A 
ENDBRANCH  22  23
ENDBRANCH  21  22
ENDBRANCH   7  21
TORSDOF 7
ENDMDL
