MODEL 1
REMARK VINA RESULT:      17.6      0.000      0.000
REMARK  2 active torsions:
REMARK  status: ('A' for Active; 'I' for Inactive)
REMARK    1  A    between atoms: N_7  and  C_3 
REMARK    2  A    between atoms: C_11  and  N_8 
ROOT
ATOM      1  N   UNL d   1      46.157 -17.383  44.326  0.00  0.00    -0.286 N 
ATOM      2  N   UNL d   1      45.914 -15.758  44.433  0.00  0.00    -0.301 N 
ATOM      3  C   UNL d   1      45.633 -17.083  44.889  0.00  0.00     0.101 A 
ATOM      4  C   UNL d   1      46.556 -16.878  43.823  0.00  0.00     0.101 A 
ATOM      5  C   UNL d   1      45.514 -16.268  44.939  0.00  0.00     0.100 A 
ATOM      6  C   UNL d   1      46.437 -16.063  43.873  0.00  0.00     0.100 A 
ENDROOT
BRANCH   1   7
ATOM      7  C   UNL d   1      46.276 -18.194  44.275  0.00  0.00     0.154 A 
ATOM      8  C   UNL d   1      46.308 -18.553  43.546  0.00  0.00     0.091 A 
ATOM      9  C   UNL d   1      46.427 -19.364  43.495  0.00  0.00     0.170 A 
ATOM     10  C   UNL d   1      46.240 -18.250  42.780  0.00  0.00     0.127 A 
ATOM     11  N   UNL d   1      46.433 -19.567  42.693  0.00  0.00    -0.209 N 
ATOM     12  N   UNL d   1      46.514 -19.810  44.173  0.00  0.00    -0.205 NA
ATOM     13  C   UNL d   1      46.538 -20.330  42.392  0.00  0.00     0.123 C 
ATOM     14  N   UNL d   1      46.318 -18.881  42.255  0.00  0.00    -0.162 NA
ATOM     15  C   UNL d   1      46.482 -19.446  44.904  0.00  0.00     0.202 A 
ATOM     16  N   UNL d   1      46.362 -18.632  44.955  0.00  0.00    -0.206 NA
ENDBRANCH   1   7
BRANCH   2  17
ATOM     17  C   UNL d   1      45.792 -14.944  44.487  0.00  0.00     0.065 A 
ATOM     18  C   UNL d   1      45.135 -14.608  44.127  0.00  0.00     0.030 A 
ATOM     19  C   UNL d   1      45.003 -13.795  44.175  0.00  0.00     0.070 A 
ATOM     20 CL   UNL d   1      44.340 -13.463  43.811  0.00  0.00    -0.081 Cl
ATOM     21  C   UNL d   1      45.540 -13.317  44.590  0.00  0.00     0.068 A 
ATOM     22  C   UNL d   1      46.203 -13.657  44.953  0.00  0.00     0.014 A 
ATOM     23 CL   UNL d   1      45.414 -12.504  44.641  0.00  0.00    -0.082 Cl
ATOM     24  C   UNL d   1      46.329 -14.471  44.901  0.00  0.00     0.018 A 
ENDBRANCH   2  17
TORSDOF 2
ENDMDL
