MODEL 1
REMARK VINA RESULT:      -9.2      0.000      0.000
REMARK  4 active torsions:
REMARK  status: ('A' for Active; 'I' for Inactive)
REMARK    1  A    between atoms: C_12  and  N_3 
REMARK    2  A    between atoms: C_10  and  C_5 
REMARK       I    between atoms: N_11  and  C_10 
REMARK    3  A    between atoms: C_24  and  C_12 
REMARK    4  A    between atoms: C_25  and  N_14 
ROOT
ATOM      1  C   UNL d   1      53.057  31.722  53.876  0.00  0.00     0.154 A 
ATOM      2  C   UNL d   1      52.847  31.403  53.145  0.00  0.00     0.093 A 
ATOM      3  N   UNL d   1      52.970  32.543  53.830  0.00  0.00    -0.286 N 
ATOM      4  N   UNL d   1      53.298  31.223  54.480  0.00  0.00    -0.210 NA
ATOM      5  C   UNL d   1      52.708  32.731  53.077  0.00  0.00     0.122 A 
ATOM      6  C   UNL d   1      52.880  30.589  53.025  0.00  0.00     0.269 A 
ATOM      7  N   UNL d   1      53.123  30.094  53.636  0.00  0.00    -0.258 N 
ATOM      8  C   UNL d   1      53.333  30.413  54.368  0.00  0.00     0.152 A 
ATOM      9  C   UNL d   1      52.630  32.027  52.645  0.00  0.00     0.030 A 
ATOM     10  C   UNL d   1      53.156  29.280  53.516  0.00  0.00     0.084 A 
ATOM     11  O   UNL d   1      52.670  30.270  52.294  0.00  0.00    -0.266 OA
ATOM     12  C   UNL d   1      53.574  29.915  54.972  0.00  0.00     0.038 A 
ATOM     13  C   UNL d   1      53.399  28.782  54.129  0.00  0.00     0.019 A 
ATOM     14  C   UNL d   1      53.609  29.101  54.861  0.00  0.00     0.005 A 
ENDROOT
BRANCH   5  15
ATOM     15  C   UNL d   1      52.548  33.490  52.792  0.00  0.00     0.281 C 
ATOM     16  N   UNL d   1      51.771  33.760  52.753  0.00  0.00    -0.268 N 
ATOM     17  C   UNL d   1      51.155  33.274  52.998  0.00  0.00     0.102 A 
ATOM     18  C   UNL d   1      51.611  34.522  52.467  0.00  0.00     0.102 A 
ATOM     19  C   UNL d   1      50.374  33.544  52.960  0.00  0.00     0.100 A 
ATOM     20  N   UNL d   1      50.214  34.305  52.674  0.00  0.00    -0.300 N 
ATOM     21  C   UNL d   1      50.835  34.793  52.428  0.00  0.00     0.100 A 
ATOM     22  O   UNL d   1      53.165  33.976  52.547  0.00  0.00    -0.265 OA
BRANCH  20  23
ATOM     23  C   UNL d   1      49.428  34.583  52.633  0.00  0.00     0.080 C 
ATOM     24  C   UNL d   1      49.085  34.763  51.900  0.00  0.00     0.021 C 
ENDBRANCH  20  23
ENDBRANCH   5  15
BRANCH   3  25
ATOM     25  C   UNL d   1      53.122  33.077  54.442  0.00  0.00     0.082 C 
BRANCH  25  26
ATOM     26  C   UNL d   1      53.894  33.244  54.663  0.00  0.00     0.018 A 
ATOM     27  C   UNL d   1      54.089  33.332  55.460  0.00  0.00     0.002 A 
ATOM     28  C   UNL d   1      54.863  33.500  55.685  0.00  0.00     0.000 A 
ATOM     29  C   UNL d   1      55.444  33.580  55.115  0.00  0.00     0.000 A 
ATOM     30  C   UNL d   1      55.253  33.492  54.315  0.00  0.00     0.000 A 
ATOM     31  C   UNL d   1      54.478  33.325  54.090  0.00  0.00     0.002 A 
ENDBRANCH  25  26
ENDBRANCH   3  25
TORSDOF 4
ENDMDL
MODEL 2
REMARK VINA RESULT:      -8.1      1.412      3.161
REMARK  4 active torsions:
REMARK  status: ('A' for Active; 'I' for Inactive)
REMARK    1  A    between atoms: C_12  and  N_3 
REMARK    2  A    between atoms: C_10  and  C_5 
REMARK       I    between atoms: N_11  and  C_10 
REMARK    3  A    between atoms: C_24  and  C_12 
REMARK    4  A    between atoms: C_25  and  N_14 
ROOT
ATOM      1  C   UNL d   1      52.669  33.450  53.830  0.00  0.00     0.154 A 
ATOM      2  C   UNL d   1      52.855  34.240  53.682  0.00  0.00     0.093 A 
ATOM      3  N   UNL d   1      52.028  33.246  53.350  0.00  0.00    -0.286 N 
ATOM      4  N   UNL d   1      53.107  33.029  54.380  0.00  0.00    -0.210 NA
ATOM      5  C   UNL d   1      51.819  33.903  52.907  0.00  0.00     0.122 A 
ATOM      6  C   UNL d   1      53.477  34.601  54.084  0.00  0.00     0.269 A 
ATOM      7  N   UNL d   1      53.912  34.171  54.635  0.00  0.00    -0.258 N 
ATOM      8  C   UNL d   1      53.726  33.381  54.784  0.00  0.00     0.152 A 
ATOM      9  C   UNL d   1      52.330  34.526  53.109  0.00  0.00     0.030 A 
ATOM     10  C   UNL d   1      54.534  34.532  55.038  0.00  0.00     0.084 A 
ATOM     11  O   UNL d   1      53.663  35.390  53.936  0.00  0.00    -0.266 OA
ATOM     12  C   UNL d   1      54.164  32.959  55.333  0.00  0.00     0.038 A 
ATOM     13  C   UNL d   1      54.972  34.101  55.591  0.00  0.00     0.019 A 
ATOM     14  C   UNL d   1      54.786  33.311  55.740  0.00  0.00     0.005 A 
ENDROOT
BRANCH   5  15
ATOM     15  C   UNL d   1      51.207  33.943  52.355  0.00  0.00     0.281 C 
ATOM     16  N   UNL d   1      50.510  34.341  52.540  0.00  0.00    -0.268 N 
ATOM     17  C   UNL d   1      50.425  34.699  53.276  0.00  0.00     0.102 A 
ATOM     18  C   UNL d   1      49.895  34.382  51.986  0.00  0.00     0.102 A 
ATOM     19  C   UNL d   1      49.727  35.099  53.464  0.00  0.00     0.100 A 
ATOM     20  N   UNL d   1      49.112  35.140  52.910  0.00  0.00    -0.300 N 
ATOM     21  C   UNL d   1      49.199  34.780  52.170  0.00  0.00     0.100 A 
ATOM     22  O   UNL d   1      51.292  33.586  51.619  0.00  0.00    -0.265 OA
BRANCH  20  23
ATOM     23  C   UNL d   1      48.404  35.543  53.094  0.00  0.00     0.080 C 
ATOM     24  C   UNL d   1      47.952  35.891  52.493  0.00  0.00     0.021 C 
ENDBRANCH  20  23
ENDBRANCH   5  15
BRANCH   3  25
ATOM     25  C   UNL d   1      51.665  32.503  53.324  0.00  0.00     0.082 C 
BRANCH  25  26
ATOM     26  C   UNL d   1      52.100  31.837  53.125  0.00  0.00     0.018 A 
ATOM     27  C   UNL d   1      52.008  31.137  53.553  0.00  0.00     0.002 A 
ATOM     28  C   UNL d   1      52.444  30.467  53.355  0.00  0.00     0.000 A 
ATOM     29  C   UNL d   1      52.970  30.493  52.729  0.00  0.00     0.000 A 
ATOM     30  C   UNL d   1      53.065  31.193  52.299  0.00  0.00     0.000 A 
ATOM     31  C   UNL d   1      52.630  31.863  52.497  0.00  0.00     0.002 A 
ENDBRANCH  25  26
ENDBRANCH   3  25
TORSDOF 4
ENDMDL
MODEL 3
REMARK VINA RESULT:      -7.6      1.231      4.594
REMARK  4 active torsions:
REMARK  status: ('A' for Active; 'I' for Inactive)
REMARK    1  A    between atoms: C_12  and  N_3 
REMARK    2  A    between atoms: C_10  and  C_5 
REMARK       I    between atoms: N_11  and  C_10 
REMARK    3  A    between atoms: C_24  and  C_12 
REMARK    4  A    between atoms: C_25  and  N_14 
ROOT
ATOM      1  C   UNL d   1      52.846  33.339  53.923  0.00  0.00     0.154 A 
ATOM      2  C   UNL d   1      53.650  33.158  53.952  0.00  0.00     0.093 A 
ATOM      3  N   UNL d   1      52.459  32.716  53.539  0.00  0.00    -0.286 N 
ATOM      4  N   UNL d   1      52.578  34.041  54.249  0.00  0.00    -0.210 NA
ATOM      5  C   UNL d   1      53.020  32.155  53.332  0.00  0.00     0.122 A 
ATOM      6  C   UNL d   1      54.179  33.681  54.307  0.00  0.00     0.269 A 
ATOM      7  N   UNL d   1      53.901  34.385  54.632  0.00  0.00    -0.258 N 
ATOM      8  C   UNL d   1      53.097  34.566  54.602  0.00  0.00     0.152 A 
ATOM      9  C   UNL d   1      53.763  32.424  53.586  0.00  0.00     0.030 A 
ATOM     10  C   UNL d   1      54.430  34.909  54.986  0.00  0.00     0.084 A 
ATOM     11  O   UNL d   1      54.982  33.501  54.336  0.00  0.00    -0.266 OA
ATOM     12  C   UNL d   1      52.829  35.268  54.928  0.00  0.00     0.038 A 
ATOM     13  C   UNL d   1      54.153  35.616  55.313  0.00  0.00     0.019 A 
ATOM     14  C   UNL d   1      53.349  35.796  55.284  0.00  0.00     0.005 A 
ENDROOT
BRANCH   5  15
ATOM     15  C   UNL d   1      52.874  31.444  52.938  0.00  0.00     0.281 C 
ATOM     16  N   UNL d   1      52.997  30.727  53.324  0.00  0.00    -0.268 N 
ATOM     17  C   UNL d   1      53.264  30.720  54.102  0.00  0.00     0.102 A 
ATOM     18  C   UNL d   1      52.851  30.013  52.929  0.00  0.00     0.102 A 
ATOM     19  C   UNL d   1      53.388  30.001  54.491  0.00  0.00     0.100 A 
ATOM     20  N   UNL d   1      53.242  29.287  54.096  0.00  0.00    -0.300 N 
ATOM     21  C   UNL d   1      52.973  29.296  53.313  0.00  0.00     0.100 A 
ATOM     22  O   UNL d   1      52.607  31.451  52.160  0.00  0.00    -0.265 OA
BRANCH  20  23
ATOM     23  C   UNL d   1      53.365  28.558  54.484  0.00  0.00     0.080 C 
ATOM     24  C   UNL d   1      53.355  28.519  55.312  0.00  0.00     0.021 C 
ENDBRANCH  20  23
ENDBRANCH   5  15
BRANCH   3  25
ATOM     25  C   UNL d   1      51.647  32.674  53.392  0.00  0.00     0.082 C 
BRANCH  25  26
ATOM     26  C   UNL d   1      51.278  33.251  52.942  0.00  0.00     0.018 A 
ATOM     27  C   UNL d   1      50.585  33.610  53.214  0.00  0.00     0.002 A 
ATOM     28  C   UNL d   1      50.212  34.191  52.765  0.00  0.00     0.000 A 
ATOM     29  C   UNL d   1      50.528  34.414  52.044  0.00  0.00     0.000 A 
ATOM     30  C   UNL d   1      51.221  34.057  51.769  0.00  0.00     0.000 A 
ATOM     31  C   UNL d   1      51.595  33.476  52.218  0.00  0.00     0.002 A 
ENDBRANCH  25  26
ENDBRANCH   3  25
TORSDOF 4
ENDMDL
MODEL 4
REMARK VINA RESULT:      -6.9      1.034      4.155
REMARK  4 active torsions:
REMARK  status: ('A' for Active; 'I' for Inactive)
REMARK    1  A    between atoms: C_12  and  N_3 
REMARK    2  A    between atoms: C_10  and  C_5 
REMARK       I    between atoms: N_11  and  C_10 
REMARK    3  A    between atoms: C_24  and  C_12 
REMARK    4  A    between atoms: C_25  and  N_14 
ROOT
ATOM      1  C   UNL d   1      52.833  32.857  53.226  0.00  0.00     0.154 A 
ATOM      2  C   UNL d   1      52.189  32.354  53.114  0.00  0.00     0.093 A 
ATOM      3  N   UNL d   1      53.515  32.391  53.265  0.00  0.00    -0.286 N 
ATOM      4  N   UNL d   1      52.710  33.665  53.276  0.00  0.00    -0.210 NA
ATOM      5  C   UNL d   1      53.295  31.606  53.179  0.00  0.00     0.122 A 
ATOM      6  C   UNL d   1      51.428  32.664  53.054  0.00  0.00     0.269 A 
ATOM      7  N   UNL d   1      51.313  33.478  53.106  0.00  0.00    -0.258 N 
ATOM      8  C   UNL d   1      51.957  33.981  53.217  0.00  0.00     0.152 A 
ATOM      9  C   UNL d   1      52.471  31.576  53.084  0.00  0.00     0.030 A 
ATOM     10  C   UNL d   1      50.552  33.788  53.045  0.00  0.00     0.084 A 
ATOM     11  O   UNL d   1      50.784  32.162  52.942  0.00  0.00    -0.266 OA
ATOM     12  C   UNL d   1      51.834  34.789  53.268  0.00  0.00     0.038 A 
ATOM     13  C   UNL d   1      50.434  34.605  53.097  0.00  0.00     0.019 A 
ATOM     14  C   UNL d   1      51.079  35.108  53.208  0.00  0.00     0.005 A 
ENDROOT
BRANCH   5  15
ATOM     15  C   UNL d   1      53.803  30.955  53.184  0.00  0.00     0.281 C 
ATOM     16  N   UNL d   1      53.636  30.306  53.663  0.00  0.00    -0.268 N 
ATOM     17  C   UNL d   1      52.963  30.308  54.136  0.00  0.00     0.102 A 
ATOM     18  C   UNL d   1      54.145  29.652  53.668  0.00  0.00     0.102 A 
ATOM     19  C   UNL d   1      52.793  29.657  54.617  0.00  0.00     0.100 A 
ATOM     20  N   UNL d   1      53.303  29.003  54.622  0.00  0.00    -0.300 N 
ATOM     21  C   UNL d   1      53.979  29.003  54.146  0.00  0.00     0.100 A 
ATOM     22  O   UNL d   1      54.476  30.953  52.711  0.00  0.00    -0.265 OA
BRANCH  20  23
ATOM     23  C   UNL d   1      53.137  28.344  55.107  0.00  0.00     0.080 C 
ATOM     24  C   UNL d   1      53.242  28.391  55.928  0.00  0.00     0.021 C 
ENDBRANCH  20  23
ENDBRANCH   5  15
BRANCH   3  25
ATOM     25  C   UNL d   1      54.284  32.674  53.374  0.00  0.00     0.082 C 
BRANCH  25  26
ATOM     26  C   UNL d   1      54.503  33.014  54.087  0.00  0.00     0.018 A 
ATOM     27  C   UNL d   1      54.196  32.725  54.797  0.00  0.00     0.002 A 
ATOM     28  C   UNL d   1      54.414  33.064  55.515  0.00  0.00     0.000 A 
ATOM     29  C   UNL d   1      54.937  33.693  55.526  0.00  0.00     0.000 A 
ATOM     30  C   UNL d   1      55.245  33.986  54.817  0.00  0.00     0.000 A 
ATOM     31  C   UNL d   1      55.028  33.646  54.099  0.00  0.00     0.002 A 
ENDBRANCH  25  26
ENDBRANCH   3  25
TORSDOF 4
ENDMDL
MODEL 5
REMARK VINA RESULT:      -6.4      1.552      2.206
REMARK  4 active torsions:
REMARK  status: ('A' for Active; 'I' for Inactive)
REMARK    1  A    between atoms: C_12  and  N_3 
REMARK    2  A    between atoms: C_10  and  C_5 
REMARK       I    between atoms: N_11  and  C_10 
REMARK    3  A    between atoms: C_24  and  C_12 
REMARK    4  A    between atoms: C_25  and  N_14 
ROOT
ATOM      1  C   UNL d   1      52.084  33.134  53.128  0.00  0.00     0.154 A 
ATOM      2  C   UNL d   1      51.473  32.588  53.215  0.00  0.00     0.093 A 
ATOM      3  N   UNL d   1      51.749  33.890  53.104  0.00  0.00    -0.286 N 
ATOM      4  N   UNL d   1      52.859  32.870  53.083  0.00  0.00    -0.210 NA
ATOM      5  C   UNL d   1      50.936  33.812  53.176  0.00  0.00     0.122 A 
ATOM      6  C   UNL d   1      51.641  31.782  53.257  0.00  0.00     0.269 A 
ATOM      7  N   UNL d   1      52.421  31.525  53.210  0.00  0.00    -0.258 N 
ATOM      8  C   UNL d   1      53.033  32.071  53.123  0.00  0.00     0.152 A 
ATOM      9  C   UNL d   1      50.757  33.004  53.245  0.00  0.00     0.030 A 
ATOM     10  C   UNL d   1      52.590  30.719  53.251  0.00  0.00     0.084 A 
ATOM     11  O   UNL d   1      51.030  31.236  53.344  0.00  0.00    -0.266 OA
ATOM     12  C   UNL d   1      53.808  31.807  53.078  0.00  0.00     0.038 A 
ATOM     13  C   UNL d   1      53.373  30.458  53.205  0.00  0.00     0.019 A 
ATOM     14  C   UNL d   1      53.985  31.005  53.118  0.00  0.00     0.005 A 
ENDROOT
BRANCH   5  15
ATOM     15  C   UNL d   1      50.386  34.428  53.179  0.00  0.00     0.281 C 
ATOM     16  N   UNL d   1      49.856  34.510  52.554  0.00  0.00    -0.268 N 
ATOM     17  C   UNL d   1      49.874  33.977  51.928  0.00  0.00     0.102 A 
ATOM     18  C   UNL d   1      49.304  35.128  52.557  0.00  0.00     0.102 A 
ATOM     19  C   UNL d   1      49.342  34.057  51.300  0.00  0.00     0.100 A 
ATOM     20  N   UNL d   1      48.790  34.676  51.303  0.00  0.00    -0.300 N 
ATOM     21  C   UNL d   1      48.773  35.211  51.934  0.00  0.00     0.100 A 
ATOM     22  O   UNL d   1      50.368  34.961  53.805  0.00  0.00    -0.265 OA
BRANCH  20  23
ATOM     23  C   UNL d   1      48.251  34.762  50.672  0.00  0.00     0.080 C 
ATOM     24  C   UNL d   1      47.505  35.099  50.802  0.00  0.00     0.021 C 
ENDBRANCH  20  23
ENDBRANCH   5  15
BRANCH   3  25
ATOM     25  C   UNL d   1      52.167  34.598  53.022  0.00  0.00     0.082 C 
BRANCH  25  26
ATOM     26  C   UNL d   1      52.668  34.854  53.618  0.00  0.00     0.018 A 
ATOM     27  C   UNL d   1      52.413  34.854  54.404  0.00  0.00     0.002 A 
ATOM     28  C   UNL d   1      52.914  35.111  55.005  0.00  0.00     0.000 A 
ATOM     29  C   UNL d   1      53.669  35.367  54.824  0.00  0.00     0.000 A 
ATOM     30  C   UNL d   1      53.928  35.369  54.038  0.00  0.00     0.000 A 
ATOM     31  C   UNL d   1      53.427  35.112  53.437  0.00  0.00     0.002 A 
ENDBRANCH  25  26
ENDBRANCH   3  25
TORSDOF 4
ENDMDL
MODEL 6
REMARK VINA RESULT:      -6.4      1.400      4.337
REMARK  4 active torsions:
REMARK  status: ('A' for Active; 'I' for Inactive)
REMARK    1  A    between atoms: C_12  and  N_3 
REMARK    2  A    between atoms: C_10  and  C_5 
REMARK       I    between atoms: N_11  and  C_10 
REMARK    3  A    between atoms: C_24  and  C_12 
REMARK    4  A    between atoms: C_25  and  N_14 
ROOT
ATOM      1  C   UNL d   1      51.329  34.023  53.213  0.00  0.00     0.154 A 
ATOM      2  C   UNL d   1      51.176  33.713  52.464  0.00  0.00     0.093 A 
ATOM      3  N   UNL d   1      52.048  33.709  53.476  0.00  0.00    -0.286 N 
ATOM      4  N   UNL d   1      50.795  34.545  53.551  0.00  0.00    -0.210 NA
ATOM      5  C   UNL d   1      52.337  33.209  52.895  0.00  0.00     0.122 A 
ATOM      6  C   UNL d   1      50.491  33.928  52.060  0.00  0.00     0.269 A 
ATOM      7  N   UNL d   1      49.960  34.453  52.406  0.00  0.00    -0.258 N 
ATOM      8  C   UNL d   1      50.113  34.763  53.155  0.00  0.00     0.152 A 
ATOM      9  C   UNL d   1      51.800  33.207  52.262  0.00  0.00     0.030 A 
ATOM     10  C   UNL d   1      49.275  34.668  52.002  0.00  0.00     0.084 A 
ATOM     11  O   UNL d   1      50.338  33.618  51.312  0.00  0.00    -0.266 OA
ATOM     12  C   UNL d   1      49.579  35.285  53.493  0.00  0.00     0.038 A 
ATOM     13  C   UNL d   1      48.740  35.195  52.348  0.00  0.00     0.019 A 
ATOM     14  C   UNL d   1      48.893  35.505  53.097  0.00  0.00     0.005 A 
ENDROOT
BRANCH   5  15
ATOM     15  C   UNL d   1      53.042  32.780  52.928  0.00  0.00     0.281 C 
ATOM     16  N   UNL d   1      53.024  31.969  53.069  0.00  0.00    -0.268 N 
ATOM     17  C   UNL d   1      52.304  31.587  53.176  0.00  0.00     0.102 A 
ATOM     18  C   UNL d   1      53.732  31.539  53.103  0.00  0.00     0.102 A 
ATOM     19  C   UNL d   1      52.284  30.772  53.318  0.00  0.00     0.100 A 
ATOM     20  N   UNL d   1      52.992  30.342  53.351  0.00  0.00    -0.300 N 
ATOM     21  C   UNL d   1      53.716  30.728  53.244  0.00  0.00     0.100 A 
ATOM     22  O   UNL d   1      53.763  33.163  52.821  0.00  0.00    -0.265 OA
BRANCH  20  23
ATOM     23  C   UNL d   1      52.977  29.519  53.494  0.00  0.00     0.080 C 
ATOM     24  C   UNL d   1      53.269  29.214  54.208  0.00  0.00     0.021 C 
ENDBRANCH  20  23
ENDBRANCH   5  15
BRANCH   3  25
ATOM     25  C   UNL d   1      52.407  33.875  54.202  0.00  0.00     0.082 C 
BRANCH  25  26
ATOM     26  C   UNL d   1      52.734  34.614  54.341  0.00  0.00     0.018 A 
ATOM     27  C   UNL d   1      52.656  34.970  55.083  0.00  0.00     0.002 A 
ATOM     28  C   UNL d   1      52.984  35.712  55.226  0.00  0.00     0.000 A 
ATOM     29  C   UNL d   1      53.388  36.100  54.631  0.00  0.00     0.000 A 
ATOM     30  C   UNL d   1      53.467  35.747  53.887  0.00  0.00     0.000 A 
ATOM     31  C   UNL d   1      53.140  35.005  53.744  0.00  0.00     0.002 A 
ENDBRANCH  25  26
ENDBRANCH   3  25
TORSDOF 4
ENDMDL
