MODEL 1
REMARK VINA RESULT:      58.6      0.000      0.000
REMARK  4 active torsions:
REMARK  status: ('A' for Active; 'I' for Inactive)
REMARK    1  A    between atoms: N_10  and  C_3 
REMARK    2  A    between atoms: C_11  and  C_5 
REMARK    3  A    between atoms: C_13  and  N_10 
REMARK    4  A    between atoms: C_15  and  C_13 
ROOT
ATOM      1  N   UNL d   1     -51.041  26.363  33.341  0.00  0.00    -0.195 N 
ATOM      2  C   UNL d   1     -51.365  25.589  33.333  0.00  0.00     0.167 A 
ATOM      3  C   UNL d   1     -50.220  26.462  33.338  0.00  0.00     0.167 A 
ATOM      4  N   UNL d   1     -52.350  26.910  33.354  0.00  0.00    -0.163 NA
ATOM      5  C   UNL d   1     -52.166  25.490  33.335  0.00  0.00     0.055 A 
ATOM      6  N   UNL d   1     -50.857  24.942  33.323  0.00  0.00    -0.227 NA
ATOM      7  C   UNL d   1     -49.732  25.814  33.328  0.00  0.00     0.054 A 
ATOM      8  C   UNL d   1     -52.669  26.148  33.346  0.00  0.00     0.104 A 
ATOM      9  C   UNL d   1     -50.047  25.037  33.320  0.00  0.00     0.086 A 
ATOM     10  C   UNL d   1     -48.924  25.737  33.324  0.00  0.00     0.005 A 
ATOM     11  C   UNL d   1     -53.480  26.040  33.348  0.00  0.00     0.023 C 
ATOM     12  C   UNL d   1     -49.427  24.502  33.311  0.00  0.00     0.019 A 
ATOM     13  C   UNL d   1     -48.724  24.945  33.313  0.00  0.00     0.002 A 
ENDROOT
BRANCH   3  14
ATOM     14  N   UNL d   1     -49.890  27.242  33.347  0.00  0.00    -0.224 NA
BRANCH  14  15
ATOM     15  C   UNL d   1     -49.994  28.001  33.704  0.00  0.00     0.120 C 
BRANCH  15  16
ATOM     16  C   UNL d   1     -49.389  28.326  34.177  0.00  0.00     0.101 A 
ATOM     17  N   UNL d   1     -48.980  27.835  34.735  0.00  0.00    -0.242 NA
ATOM     18  C   UNL d   1     -48.368  28.159  35.214  0.00  0.00     0.099 A 
ATOM     19  C   UNL d   1     -48.164  28.976  35.138  0.00  0.00     0.021 A 
ATOM     20  C   UNL d   1     -48.573  29.466  34.581  0.00  0.00     0.003 A 
ATOM     21  C   UNL d   1     -49.186  29.134  34.102  0.00  0.00     0.021 A 
ENDBRANCH  15  16
ENDBRANCH  14  15
ENDBRANCH   3  14
BRANCH   5  22
ATOM     22  C   UNL d   1     -52.483  24.733  33.327  0.00  0.00     0.004 A 
ATOM     23  C   UNL d   1     -51.993  24.080  33.314  0.00  0.00     0.000 A 
ATOM     24  C   UNL d   1     -52.314  23.313  33.306  0.00  0.00     0.000 A 
ATOM     25  C   UNL d   1     -53.118  23.217  33.311  0.00  0.00     0.000 A 
ATOM     26  C   UNL d   1     -53.617  23.873  33.324  0.00  0.00     0.000 A 
ATOM     27  C   UNL d   1     -53.298  24.626  33.332  0.00  0.00     0.000 A 
ENDBRANCH   5  22
TORSDOF 4
ENDMDL
