MODEL 1
REMARK VINA RESULT:      -4.4      0.000      0.000
REMARK  3 active torsions:
REMARK  status: ('A' for Active; 'I' for Inactive)
REMARK    1  A    between atoms: C_3  and  C_1 
REMARK       I    between atoms: N_4  and  C_1 
REMARK    2  A    between atoms: N_2  and  C_7 
REMARK    3  A    between atoms: C_16  and  N_4 
ROOT
ATOM      1  C   UNL d   1     -41.285-123.065 -51.783  0.00  0.00     0.064 A 
ATOM      2  C   UNL d   1     -41.195-123.783 -51.378  0.00  0.00     0.019 A 
ATOM      3  C   UNL d   1     -41.321-122.360 -51.343  0.00  0.00     0.019 A 
ATOM      4  C   UNL d   1     -41.178-123.097 -50.125  0.00  0.00     0.085 A 
ATOM      5  C   UNL d   1     -41.142-123.799 -50.554  0.00  0.00     0.021 A 
ATOM      6  C   UNL d   1     -41.268-122.375 -50.519  0.00  0.00     0.021 A 
ENDROOT
BRANCH   4   7
ATOM      7  N   UNL d   1     -41.125-123.113 -49.302  0.00  0.00    -0.208 NA
ATOM      8  C   UNL d   1     -41.801-123.160 -48.847  0.00  0.00     0.285 C 
ATOM      9  O   UNL d   1     -41.748-123.176 -48.022  0.00  0.00    -0.265 OA
BRANCH   8  10
ATOM     10  C   UNL d   1     -42.538-123.193 -49.213  0.00  0.00     0.087 A 
ATOM     11  S   UNL d   1     -42.989-123.816 -49.497  0.00  0.00    -0.082 SA
ATOM     12  C   UNL d   1     -43.681-123.519 -49.808  0.00  0.00     0.036 A 
ATOM     13  C   UNL d   1     -43.671-122.695 -49.721  0.00  0.00     0.008 A 
ATOM     14  C   UNL d   1     -42.961-122.498 -49.352  0.00  0.00     0.012 A 
ENDBRANCH   8  10
ENDBRANCH   4   7
BRANCH   1  15
ATOM     15  N   UNL d   1     -41.338-123.050 -52.607  0.00  0.00    -0.301 N 
ATOM     16  C   UNL d   1     -41.595-122.376 -52.990  0.00  0.00     0.100 A 
ATOM     17  C   UNL d   1     -41.648-122.361 -53.813  0.00  0.00     0.100 A 
ATOM     18  N   UNL d   1     -41.443-123.018 -54.253  0.00  0.00    -0.299 N 
ATOM     19  C   UNL d   1     -41.183-123.699 -53.869  0.00  0.00     0.100 A 
ATOM     20  C   UNL d   1     -41.496-123.003 -55.075  0.00  0.00     0.100 C 
ATOM     21  C   UNL d   1     -41.131-123.715 -53.046  0.00  0.00     0.100 A 
ENDBRANCH   1  15
TORSDOF 3
ENDMDL
MODEL 2
REMARK VINA RESULT:      -3.7      0.576      1.038
REMARK  3 active torsions:
REMARK  status: ('A' for Active; 'I' for Inactive)
REMARK    1  A    between atoms: C_3  and  C_1 
REMARK       I    between atoms: N_4  and  C_1 
REMARK    2  A    between atoms: N_2  and  C_7 
REMARK    3  A    between atoms: C_16  and  N_4 
ROOT
ATOM      1  C   UNL d   1     -41.501-122.692 -52.136  0.00  0.00     0.064 A 
ATOM      2  C   UNL d   1     -41.377-122.063 -51.611  0.00  0.00     0.019 A 
ATOM      3  C   UNL d   1     -41.498-123.469 -51.838  0.00  0.00     0.019 A 
ATOM      4  C   UNL d   1     -41.249-122.975 -50.519  0.00  0.00     0.085 A 
ATOM      5  C   UNL d   1     -41.251-122.203 -50.807  0.00  0.00     0.021 A 
ATOM      6  C   UNL d   1     -41.372-123.610 -51.034  0.00  0.00     0.021 A 
ENDROOT
BRANCH   4   7
ATOM      7  N   UNL d   1     -41.123-123.116 -49.716  0.00  0.00    -0.208 NA
ATOM      8  C   UNL d   1     -41.757-123.211 -49.210  0.00  0.00     0.285 C 
ATOM      9  O   UNL d   1     -41.631-123.352 -48.406  0.00  0.00    -0.265 OA
BRANCH   8  10
ATOM     10  C   UNL d   1     -42.524-123.167 -49.506  0.00  0.00     0.087 A 
ATOM     11  S   UNL d   1     -42.972-123.678 -49.965  0.00  0.00    -0.082 SA
ATOM     12  C   UNL d   1     -43.705-123.344 -50.091  0.00  0.00     0.036 A 
ATOM     13  C   UNL d   1     -43.724-122.610 -49.707  0.00  0.00     0.008 A 
ATOM     14  C   UNL d   1     -42.990-122.505 -49.346  0.00  0.00     0.012 A 
ENDBRANCH   8  10
ENDBRANCH   4   7
BRANCH   1  15
ATOM     15  N   UNL d   1     -41.627-122.551 -52.940  0.00  0.00    -0.301 N 
ATOM     16  C   UNL d   1     -41.140-122.893 -53.500  0.00  0.00     0.100 A 
ATOM     17  C   UNL d   1     -41.266-122.752 -54.303  0.00  0.00     0.100 A 
ATOM     18  N   UNL d   1     -41.879-122.270 -54.547  0.00  0.00    -0.299 N 
ATOM     19  C   UNL d   1     -42.371-121.923 -53.985  0.00  0.00     0.100 A 
ATOM     20  C   UNL d   1     -42.004-122.129 -55.349  0.00  0.00     0.100 C 
ATOM     21  C   UNL d   1     -42.246-122.064 -53.181  0.00  0.00     0.100 A 
ENDBRANCH   1  15
TORSDOF 3
ENDMDL
