MODEL 1
REMARK VINA RESULT:      -7.5      0.000      0.000
REMARK  8 active torsions:
REMARK  status: ('A' for Active; 'I' for Inactive)
REMARK    1  A    between atoms: N_4  and  S_1 
REMARK    2  A    between atoms: C_10  and  S_1 
REMARK    3  A    between atoms: C_7  and  N_2 
REMARK    4  A    between atoms: N_3  and  C_6 
REMARK    5  A    between atoms: C_5  and  N_4 
REMARK    6  A    between atoms: C_6  and  C_5 
REMARK    7  A    between atoms: C_11  and  C_6 
REMARK    8  A    between atoms: O_19  and  C_17 
ROOT
ATOM      1  C   UNL d   1      52.928  32.774  53.328  0.00  0.00     0.086 C 
ENDROOT
BRANCH   1   2
ATOM      2  N   UNL d   1      52.235  33.216  53.235  0.00  0.00    -0.300 N 
ATOM      3  C   UNL d   1      52.246  33.914  52.789  0.00  0.00     0.100 A 
ATOM      4  C   UNL d   1      51.559  34.354  52.695  0.00  0.00     0.100 A 
ATOM      5  N   UNL d   1      50.857  34.103  53.045  0.00  0.00    -0.300 N 
ATOM      6  C   UNL d   1      50.843  33.412  53.488  0.00  0.00     0.100 A 
ATOM      7  C   UNL d   1      51.534  32.965  53.585  0.00  0.00     0.100 A 
BRANCH   5   8
ATOM      8  C   UNL d   1      50.171  34.544  52.951  0.00  0.00     0.086 A 
ATOM      9  C   UNL d   1      49.778  34.543  52.230  0.00  0.00     0.110 A 
ATOM     10  C   UNL d   1      49.089  34.985  52.134  0.00  0.00     0.026 A 
ATOM     11  C   UNL d   1      48.791  35.432  52.769  0.00  0.00     0.002 A 
ATOM     12  C   UNL d   1      49.186  35.432  53.493  0.00  0.00     0.002 A 
ATOM     13  C   UNL d   1      49.873  34.991  53.587  0.00  0.00     0.019 A 
BRANCH   9  14
ATOM     14  O   UNL d   1      50.073  34.101  51.601  0.00  0.00    -0.327 OA
ATOM     15  C   UNL d   1      49.692  34.115  50.873  0.00  0.00     0.181 C 
ENDBRANCH   9  14
ENDBRANCH   5   8
ENDBRANCH   1   2
BRANCH   1  16
ATOM     16  C   UNL d   1      53.064  32.105  52.851  0.00  0.00     0.130 C 
BRANCH  16  17
ATOM     17  N   UNL d   1      52.944  31.350  53.161  0.00  0.00    -0.155 NA
BRANCH  17  18
ATOM     18  S   UNL d   1      52.945  30.694  52.655  0.00  0.00     0.285 S 
ATOM     19  O   UNL d   1      52.947  30.039  52.153  0.00  0.00    -0.198 OA
ATOM     20  O   UNL d   1      52.885  31.206  52.007  0.00  0.00    -0.198 OA
BRANCH  18  21
ATOM     21  C   UNL d   1      53.005  30.185  53.312  0.00  0.00     0.105 A 
ATOM     22  C   UNL d   1      52.321  29.918  53.683  0.00  0.00     0.013 A 
ATOM     23  C   UNL d   1      52.374  29.416  54.330  0.00  0.00     0.001 A 
ATOM     24  C   UNL d   1      53.127  29.172  54.618  0.00  0.00     0.000 A 
ATOM     25  C   UNL d   1      53.813  29.446  54.238  0.00  0.00     0.001 A 
ATOM     26  C   UNL d   1      53.745  29.952  53.585  0.00  0.00     0.013 A 
ENDBRANCH  18  21
ENDBRANCH  17  18
ENDBRANCH  16  17
ENDBRANCH   1  16
BRANCH   1  27
ATOM     27  C   UNL d   1      53.486  32.992  53.893  0.00  0.00     0.037 A 
ATOM     28  C   UNL d   1      53.286  32.995  54.690  0.00  0.00     0.100 A 
ATOM     29  N   UNL d   1      53.849  33.215  55.260  0.00  0.00    -0.242 NA
ATOM     30  C   UNL d   1      54.607  33.431  55.027  0.00  0.00     0.099 A 
ATOM     31  C   UNL d   1      54.807  33.428  54.230  0.00  0.00     0.021 A 
ATOM     32  C   UNL d   1      54.244  33.208  53.661  0.00  0.00     0.005 A 
ENDBRANCH   1  27
TORSDOF 8
ENDMDL
MODEL 2
REMARK VINA RESULT:      -5.6      1.950      3.158
REMARK  8 active torsions:
REMARK  status: ('A' for Active; 'I' for Inactive)
REMARK    1  A    between atoms: N_4  and  S_1 
REMARK    2  A    between atoms: C_10  and  S_1 
REMARK    3  A    between atoms: C_7  and  N_2 
REMARK    4  A    between atoms: N_3  and  C_6 
REMARK    5  A    between atoms: C_5  and  N_4 
REMARK    6  A    between atoms: C_6  and  C_5 
REMARK    7  A    between atoms: C_11  and  C_6 
REMARK    8  A    between atoms: O_19  and  C_17 
ROOT
ATOM      1  C   UNL d   1      52.029  33.619  52.910  0.00  0.00     0.086 C 
ENDROOT
BRANCH   1   2
ATOM      2  N   UNL d   1      51.293  33.899  52.658  0.00  0.00    -0.300 N 
ATOM      3  C   UNL d   1      51.219  34.265  51.918  0.00  0.00     0.100 A 
ATOM      4  C   UNL d   1      50.488  34.543  51.667  0.00  0.00     0.100 A 
ATOM      5  N   UNL d   1      49.827  34.460  52.150  0.00  0.00    -0.300 N 
ATOM      6  C   UNL d   1      49.897  34.097  52.883  0.00  0.00     0.100 A 
ATOM      7  C   UNL d   1      50.631  33.815  53.141  0.00  0.00     0.100 A 
BRANCH   5   8
ATOM      8  C   UNL d   1      49.096  34.738  51.898  0.00  0.00     0.086 A 
ATOM      9  C   UNL d   1      48.670  35.256  52.371  0.00  0.00     0.110 A 
ATOM     10  C   UNL d   1      47.936  35.537  52.120  0.00  0.00     0.026 A 
ATOM     11  C   UNL d   1      47.629  35.295  51.386  0.00  0.00     0.002 A 
ATOM     12  C   UNL d   1      48.059  34.775  50.912  0.00  0.00     0.002 A 
ATOM     13  C   UNL d   1      48.789  34.496  51.164  0.00  0.00     0.019 A 
BRANCH   9  14
ATOM     14  O   UNL d   1      48.974  35.496  53.098  0.00  0.00    -0.327 OA
ATOM     15  C   UNL d   1      48.540  35.999  53.581  0.00  0.00     0.181 C 
ENDBRANCH   9  14
ENDBRANCH   5   8
ENDBRANCH   1   2
BRANCH   1  16
ATOM     16  C   UNL d   1      52.614  34.153  53.164  0.00  0.00     0.130 C 
BRANCH  16  17
ATOM     17  N   UNL d   1      52.869  34.138  53.950  0.00  0.00    -0.155 NA
BRANCH  17  18
ATOM     18  S   UNL d   1      53.235  34.806  54.275  0.00  0.00     0.285 S 
ATOM     19  O   UNL d   1      53.601  35.470  54.601  0.00  0.00    -0.198 OA
ATOM     20  O   UNL d   1      52.704  35.287  53.861  0.00  0.00    -0.198 OA
BRANCH  18  21
ATOM     21  C   UNL d   1      53.766  34.316  54.690  0.00  0.00     0.105 A 
ATOM     22  C   UNL d   1      53.530  33.967  55.397  0.00  0.00     0.013 A 
ATOM     23  C   UNL d   1      54.049  33.483  55.809  0.00  0.00     0.001 A 
ATOM     24  C   UNL d   1      54.824  33.340  55.512  0.00  0.00     0.000 A 
ATOM     25  C   UNL d   1      55.054  33.696  54.798  0.00  0.00     0.001 A 
ATOM     26  C   UNL d   1      54.521  34.182  54.391  0.00  0.00     0.013 A 
ENDBRANCH  18  21
ENDBRANCH  17  18
ENDBRANCH  16  17
ENDBRANCH   1  16
BRANCH   1  27
ATOM     27  C   UNL d   1      52.187  32.811  52.909  0.00  0.00     0.037 A 
ATOM     28  C   UNL d   1      52.766  32.505  52.413  0.00  0.00     0.100 A 
ATOM     29  N   UNL d   1      52.926  31.689  52.413  0.00  0.00    -0.242 NA
ATOM     30  C   UNL d   1      52.505  31.188  52.909  0.00  0.00     0.099 A 
ATOM     31  C   UNL d   1      51.926  31.493  53.405  0.00  0.00     0.021 A 
ATOM     32  C   UNL d   1      51.766  32.309  53.405  0.00  0.00     0.005 A 
ENDBRANCH   1  27
TORSDOF 8
ENDMDL
MODEL 3
REMARK VINA RESULT:      -4.8      1.655      4.677
REMARK  8 active torsions:
REMARK  status: ('A' for Active; 'I' for Inactive)
REMARK    1  A    between atoms: N_4  and  S_1 
REMARK    2  A    between atoms: C_10  and  S_1 
REMARK    3  A    between atoms: C_7  and  N_2 
REMARK    4  A    between atoms: N_3  and  C_6 
REMARK    5  A    between atoms: C_5  and  N_4 
REMARK    6  A    between atoms: C_6  and  C_5 
REMARK    7  A    between atoms: C_11  and  C_6 
REMARK    8  A    between atoms: O_19  and  C_17 
ROOT
ATOM      1  C   UNL d   1      52.022  33.785  52.930  0.00  0.00     0.086 C 
ENDROOT
BRANCH   1   2
ATOM      2  N   UNL d   1      52.202  32.980  52.994  0.00  0.00    -0.300 N 
ATOM      3  C   UNL d   1      52.831  32.661  52.558  0.00  0.00     0.100 A 
ATOM      4  C   UNL d   1      53.011  31.861  52.621  0.00  0.00     0.100 A 
ATOM      5  N   UNL d   1      52.568  31.376  53.117  0.00  0.00    -0.300 N 
ATOM      6  C   UNL d   1      51.945  31.690  53.550  0.00  0.00     0.100 A 
ATOM      7  C   UNL d   1      51.760  32.495  53.490  0.00  0.00     0.100 A 
BRANCH   5   8
ATOM      8  C   UNL d   1      52.749  30.578  53.179  0.00  0.00     0.086 A 
ATOM      9  C   UNL d   1      53.104  30.290  53.861  0.00  0.00     0.110 A 
ATOM     10  C   UNL d   1      53.286  29.488  53.925  0.00  0.00     0.026 A 
ATOM     11  C   UNL d   1      53.110  28.971  53.298  0.00  0.00     0.002 A 
ATOM     12  C   UNL d   1      52.753  29.262  52.614  0.00  0.00     0.002 A 
ATOM     13  C   UNL d   1      52.572  30.061  52.551  0.00  0.00     0.019 A 
BRANCH   9  14
ATOM     14  O   UNL d   1      53.279  30.801  54.482  0.00  0.00    -0.327 OA
ATOM     15  C   UNL d   1      53.567  30.504  55.192  0.00  0.00     0.181 C 
ENDBRANCH   9  14
ENDBRANCH   5   8
ENDBRANCH   1   2
BRANCH   1  16
ATOM     16  C   UNL d   1      52.589  34.358  53.138  0.00  0.00     0.130 C 
BRANCH  16  17
ATOM     17  N   UNL d   1      52.910  34.359  53.899  0.00  0.00    -0.155 NA
BRANCH  17  18
ATOM     18  S   UNL d   1      53.276  35.043  54.189  0.00  0.00     0.285 S 
ATOM     19  O   UNL d   1      53.643  35.723  54.479  0.00  0.00    -0.198 OA
ATOM     20  O   UNL d   1      52.763  35.501  53.729  0.00  0.00    -0.198 OA
BRANCH  18  21
ATOM     21  C   UNL d   1      53.789  34.575  54.649  0.00  0.00     0.105 A 
ATOM     22  C   UNL d   1      53.549  34.319  55.393  0.00  0.00     0.013 A 
ATOM     23  C   UNL d   1      54.050  33.858  55.851  0.00  0.00     0.001 A 
ATOM     24  C   UNL d   1      54.811  33.644  55.564  0.00  0.00     0.000 A 
ATOM     25  C   UNL d   1      55.047  33.906  54.811  0.00  0.00     0.001 A 
ATOM     26  C   UNL d   1      54.531  34.371  54.359  0.00  0.00     0.013 A 
ENDBRANCH  18  21
ENDBRANCH  17  18
ENDBRANCH  16  17
ENDBRANCH   1  16
BRANCH   1  27
ATOM     27  C   UNL d   1      51.282  34.023  52.659  0.00  0.00     0.037 A 
ATOM     28  C   UNL d   1      50.659  34.109  53.187  0.00  0.00     0.100 A 
ATOM     29  N   UNL d   1      49.911  34.349  52.915  0.00  0.00    -0.242 NA
ATOM     30  C   UNL d   1      49.795  34.502  52.116  0.00  0.00     0.099 A 
ATOM     31  C   UNL d   1      50.418  34.416  51.587  0.00  0.00     0.021 A 
ATOM     32  C   UNL d   1      51.165  34.176  51.860  0.00  0.00     0.005 A 
ENDBRANCH   1  27
TORSDOF 8
ENDMDL
