MODEL 1
REMARK VINA RESULT:      -3.3      0.000      0.000
REMARK  3 active torsions:
REMARK  status: ('A' for Active; 'I' for Inactive)
REMARK    1  A    between atoms: C_7  and  C_2 
REMARK       I    between atoms: N_9  and  C_7 
REMARK    2  A    between atoms: C_12  and  N_9 
REMARK    3  A    between atoms: C_11  and  C_12 
ROOT
ATOM      1  C   UNL d   1      31.950  16.281 -24.275  0.00  0.00     0.285 C 
ATOM      2  N   UNL d   1      31.151  16.071 -24.246  0.00  0.00    -0.206 NA
ATOM      3  O   UNL d   1      32.521  15.718 -24.463  0.00  0.00    -0.265 OA
ENDROOT
BRANCH   1   4
ATOM      4  C   UNL d   1      32.178  17.065 -24.112  0.00  0.00     0.133 A 
ATOM      5  C   UNL d   1      32.563  17.254 -23.404  0.00  0.00     0.272 A 
ATOM      6  N   UNL d   1      32.783  18.024 -23.254  0.00  0.00    -0.252 N 
ATOM      7  O   UNL d   1      32.722  16.662 -22.854  0.00  0.00    -0.266 OA
ATOM      8  C   UNL d   1      32.624  18.616 -23.803  0.00  0.00     0.182 A 
ATOM      9  C   UNL d   1      33.165  18.374 -22.614  0.00  0.00     0.092 A 
ATOM     10  N   UNL d   1      32.246  18.438 -24.503  0.00  0.00    -0.220 NA
ATOM     11  S   UNL d   1      32.907  19.334 -23.505  0.00  0.00    -0.048 SA
ATOM     12  C   UNL d   1      32.020  17.657 -24.662  0.00  0.00     0.111 A 
ATOM     13  C   UNL d   1      33.241  19.181 -22.769  0.00  0.00     0.057 A 
ENDBRANCH   1   4
BRANCH   2  14
ATOM     14  C   UNL d   1      30.584  16.637 -24.057  0.00  0.00     0.103 C 
BRANCH  14  15
ATOM     15  C   UNL d   1      29.830  16.396 -23.842  0.00  0.00     0.030 A 
ATOM     16  C   UNL d   1      29.166  16.817 -24.106  0.00  0.00     0.059 A 
ATOM     17 CL   UNL d   1      29.265  17.478 -24.585  0.00  0.00    -0.082 Cl
ATOM     18  C   UNL d   1      28.412  16.581 -23.896  0.00  0.00     0.011 A 
ATOM     19  C   UNL d   1      28.307  15.913 -23.412  0.00  0.00     0.001 A 
ATOM     20  C   UNL d   1      28.966  15.493 -23.148  0.00  0.00     0.000 A 
ATOM     21  C   UNL d   1      29.729  15.733 -23.363  0.00  0.00     0.002 A 
ENDBRANCH  14  15
ENDBRANCH   2  14
TORSDOF 3
ENDMDL
MODEL 2
REMARK VINA RESULT:      -3.2      1.694      3.784
REMARK  3 active torsions:
REMARK  status: ('A' for Active; 'I' for Inactive)
REMARK    1  A    between atoms: C_7  and  C_2 
REMARK       I    between atoms: N_9  and  C_7 
REMARK    2  A    between atoms: C_12  and  N_9 
REMARK    3  A    between atoms: C_11  and  C_12 
ROOT
ATOM      1  C   UNL d   1      32.002  16.294 -24.502  0.00  0.00     0.285 C 
ATOM      2  N   UNL d   1      32.428  16.999 -24.443  0.00  0.00    -0.206 NA
ATOM      3  O   UNL d   1      32.379  15.597 -24.728  0.00  0.00    -0.265 OA
ENDROOT
BRANCH   1   4
ATOM      4  C   UNL d   1      31.187  16.288 -24.330  0.00  0.00     0.133 A 
ATOM      5  C   UNL d   1      30.898  15.886 -23.666  0.00  0.00     0.272 A 
ATOM      6  N   UNL d   1      30.100  15.886 -23.507  0.00  0.00    -0.252 N 
ATOM      7  O   UNL d   1      31.422  15.489 -23.169  0.00  0.00    -0.266 OA
ATOM      8  C   UNL d   1      29.577  16.283 -24.003  0.00  0.00     0.182 A 
ATOM      9  C   UNL d   1      29.658  15.544 -22.902  0.00  0.00     0.092 A 
ATOM     10  N   UNL d   1      29.853  16.680 -24.659  0.00  0.00    -0.220 NA
ATOM     11  S   UNL d   1      28.810  16.187 -23.707  0.00  0.00    -0.048 SA
ATOM     12  C   UNL d   1      30.664  16.684 -24.827  0.00  0.00     0.111 A 
ATOM     13  C   UNL d   1      28.863  15.730 -23.026  0.00  0.00     0.057 A 
ENDBRANCH   1   4
BRANCH   2  14
ATOM     14  C   UNL d   1      32.048  17.692 -24.216  0.00  0.00     0.103 C 
BRANCH  14  15
ATOM     15  C   UNL d   1      32.443  18.409 -24.280  0.00  0.00     0.030 A 
ATOM     16  C   UNL d   1      32.641  18.838 -23.599  0.00  0.00     0.059 A 
ATOM     17 CL   UNL d   1      32.438  18.544 -22.857  0.00  0.00    -0.082 Cl
ATOM     18  C   UNL d   1      33.035  19.552 -23.655  0.00  0.00     0.011 A 
ATOM     19  C   UNL d   1      33.241  19.853 -24.402  0.00  0.00     0.001 A 
ATOM     20  C   UNL d   1      33.046  19.428 -25.081  0.00  0.00     0.000 A 
ATOM     21  C   UNL d   1      32.646  18.704 -25.022  0.00  0.00     0.002 A 
ENDBRANCH  14  15
ENDBRANCH   2  14
TORSDOF 3
ENDMDL
MODEL 3
REMARK VINA RESULT:      -2.9      1.276      1.778
REMARK  3 active torsions:
REMARK  status: ('A' for Active; 'I' for Inactive)
REMARK    1  A    between atoms: C_7  and  C_2 
REMARK       I    between atoms: N_9  and  C_7 
REMARK    2  A    between atoms: C_12  and  N_9 
REMARK    3  A    between atoms: C_11  and  C_12 
ROOT
ATOM      1  C   UNL d   1      32.634  17.554 -24.559  0.00  0.00     0.285 C 
ATOM      2  N   UNL d   1      31.885  17.224 -24.668  0.00  0.00    -0.206 NA
ATOM      3  O   UNL d   1      33.239  17.399 -25.096  0.00  0.00    -0.265 OA
ENDROOT
BRANCH   1   4
ATOM      4  C   UNL d   1      32.778  18.045 -23.902  0.00  0.00     0.133 A 
ATOM      5  C   UNL d   1      32.867  18.863 -23.998  0.00  0.00     0.272 A 
ATOM      6  N   UNL d   1      33.007  19.335 -23.349  0.00  0.00    -0.252 N 
ATOM      7  O   UNL d   1      32.812  19.195 -24.750  0.00  0.00    -0.266 OA
ATOM      8  C   UNL d   1      33.062  19.003 -22.598  0.00  0.00     0.182 A 
ATOM      9  C   UNL d   1      33.117  20.147 -23.271  0.00  0.00     0.092 A 
ATOM     10  N   UNL d   1      32.977  18.199 -22.495  0.00  0.00    -0.220 NA
ATOM     11  S   UNL d   1      33.207  19.609 -22.054  0.00  0.00    -0.048 SA
ATOM     12  C   UNL d   1      32.833  17.713 -23.151  0.00  0.00     0.111 A 
ATOM     13  C   UNL d   1      33.240  20.315 -22.473  0.00  0.00     0.057 A 
ENDBRANCH   1   4
BRANCH   2  14
ATOM     14  C   UNL d   1      31.284  17.381 -24.129  0.00  0.00     0.103 C 
BRANCH  14  15
ATOM     15  C   UNL d   1      30.510  17.181 -24.318  0.00  0.00     0.030 A 
ATOM     16  C   UNL d   1      30.127  16.565 -23.917  0.00  0.00     0.059 A 
ATOM     17 CL   UNL d   1      30.526  16.153 -23.327  0.00  0.00    -0.082 Cl
ATOM     18  C   UNL d   1      29.357  16.362 -24.100  0.00  0.00     0.011 A 
ATOM     19  C   UNL d   1      28.951  16.776 -24.696  0.00  0.00     0.001 A 
ATOM     20  C   UNL d   1      29.329  17.390 -25.097  0.00  0.00     0.000 A 
ATOM     21  C   UNL d   1      30.110  17.594 -24.909  0.00  0.00     0.002 A 
ENDBRANCH  14  15
ENDBRANCH   2  14
TORSDOF 3
ENDMDL
MODEL 4
REMARK VINA RESULT:      -2.4      1.998      4.229
REMARK  3 active torsions:
REMARK  status: ('A' for Active; 'I' for Inactive)
REMARK    1  A    between atoms: C_7  and  C_2 
REMARK       I    between atoms: N_9  and  C_7 
REMARK    2  A    between atoms: C_12  and  N_9 
REMARK    3  A    between atoms: C_11  and  C_12 
ROOT
ATOM      1  C   UNL d   1      33.022  18.581 -24.301  0.00  0.00     0.285 C 
ATOM      2  N   UNL d   1      33.241  19.165 -23.760  0.00  0.00    -0.206 NA
ATOM      3  O   UNL d   1      33.224  18.655 -25.096  0.00  0.00    -0.265 OA
ENDROOT
BRANCH   1   4
ATOM      4  C   UNL d   1      32.596  17.914 -24.042  0.00  0.00     0.133 A 
ATOM      5  C   UNL d   1      31.804  17.809 -24.258  0.00  0.00     0.272 A 
ATOM      6  N   UNL d   1      31.395  17.154 -24.000  0.00  0.00    -0.252 N 
ATOM      7  O   UNL d   1      31.432  18.369 -24.735  0.00  0.00    -0.266 OA
ATOM      8  C   UNL d   1      31.766  16.594 -23.524  0.00  0.00     0.182 A 
ATOM      9  C   UNL d   1      30.620  16.903 -24.120  0.00  0.00     0.092 A 
ATOM     10  N   UNL d   1      32.546  16.690 -23.306  0.00  0.00    -0.220 NA
ATOM     11  S   UNL d   1      31.221  15.996 -23.349  0.00  0.00    -0.048 SA
ATOM     12  C   UNL d   1      32.967  17.355 -23.566  0.00  0.00     0.111 A 
ATOM     13  C   UNL d   1      30.514  16.190 -23.719  0.00  0.00     0.057 A 
ENDBRANCH   1   4
BRANCH   2  14
ATOM     14  C   UNL d   1      33.037  19.086 -22.966  0.00  0.00     0.103 C 
BRANCH  14  15
ATOM     15  C   UNL d   1      33.089  19.739 -22.470  0.00  0.00     0.030 A 
ATOM     16  C   UNL d   1      33.185  19.636 -21.653  0.00  0.00     0.059 A 
ATOM     17 CL   UNL d   1      33.229  18.876 -21.340  0.00  0.00    -0.082 Cl
ATOM     18  C   UNL d   1      33.238  20.281 -21.154  0.00  0.00     0.011 A 
ATOM     19  C   UNL d   1      33.194  21.051 -21.467  0.00  0.00     0.001 A 
ATOM     20  C   UNL d   1      33.099  21.156 -22.279  0.00  0.00     0.000 A 
ATOM     21  C   UNL d   1      33.046  20.500 -22.784  0.00  0.00     0.002 A 
ENDBRANCH  14  15
ENDBRANCH   2  14
TORSDOF 3
ENDMDL
MODEL 5
REMARK VINA RESULT:      -1.4      3.480      4.870
REMARK  3 active torsions:
REMARK  status: ('A' for Active; 'I' for Inactive)
REMARK    1  A    between atoms: C_7  and  C_2 
REMARK       I    between atoms: N_9  and  C_7 
REMARK    2  A    between atoms: C_12  and  N_9 
REMARK    3  A    between atoms: C_11  and  C_12 
ROOT
ATOM      1  C   UNL d   1      33.014  20.421 -21.275  0.00  0.00     0.285 C 
ATOM      2  N   UNL d   1      33.056  19.828 -21.848  0.00  0.00    -0.206 NA
ATOM      3  O   UNL d   1      33.124  20.239 -20.479  0.00  0.00    -0.265 OA
ENDROOT
BRANCH   1   4
ATOM      4  C   UNL d   1      32.858  21.207 -21.503  0.00  0.00     0.133 A 
ATOM      5  C   UNL d   1      32.324  21.673 -21.075  0.00  0.00     0.272 A 
ATOM      6  N   UNL d   1      32.178  22.440 -21.305  0.00  0.00    -0.252 N 
ATOM      7  O   UNL d   1      31.941  21.356 -20.417  0.00  0.00    -0.266 OA
ATOM      8  C   UNL d   1      32.561  22.756 -21.962  0.00  0.00     0.182 A 
ATOM      9  C   UNL d   1      31.687  23.025 -20.997  0.00  0.00     0.092 A 
ATOM     10  N   UNL d   1      33.088  22.305 -22.388  0.00  0.00    -0.220 NA
ATOM     11  S   UNL d   1      32.307  23.538 -22.062  0.00  0.00    -0.048 SA
ATOM     12  C   UNL d   1      33.241  21.523 -22.159  0.00  0.00     0.111 A 
ATOM     13  C   UNL d   1      31.767  23.701 -21.464  0.00  0.00     0.057 A 
ENDBRANCH   1   4
BRANCH   2  14
ATOM     14  C   UNL d   1      32.945  20.015 -22.642  0.00  0.00     0.103 C 
BRANCH  14  15
ATOM     15  C   UNL d   1      32.888  19.411 -23.195  0.00  0.00     0.030 A 
ATOM     16  C   UNL d   1      33.036  19.562 -23.996  0.00  0.00     0.059 A 
ATOM     17 CL   UNL d   1      33.240  20.322 -24.237  0.00  0.00    -0.082 Cl
ATOM     18  C   UNL d   1      32.981  18.965 -24.551  0.00  0.00     0.011 A 
ATOM     19  C   UNL d   1      32.775  18.195 -24.312  0.00  0.00     0.001 A 
ATOM     20  C   UNL d   1      32.627  18.042 -23.515  0.00  0.00     0.000 A 
ATOM     21  C   UNL d   1      32.684  18.650 -22.954  0.00  0.00     0.002 A 
ENDBRANCH  14  15
ENDBRANCH   2  14
TORSDOF 3
ENDMDL
