MODEL 1
REMARK VINA RESULT:      79.5      0.000      0.000
REMARK  4 active torsions:
REMARK  status: ('A' for Active; 'I' for Inactive)
REMARK    1  A    between atoms: N_5  and  C_1 
REMARK    2  A    between atoms: S_2  and  N_5 
REMARK    3  A    between atoms: C_7  and  S_2 
REMARK    4  A    between atoms: N_10  and  C_3 
ROOT
ATOM      1  C   UNL d   1     -50.952  26.471  33.471  0.00  0.00     0.146 A 
ATOM      2  C   UNL d   1     -50.157  26.686  33.416  0.00  0.00     0.105 A 
ATOM      3  C   UNL d   1     -49.958  27.483  33.366  0.00  0.00     0.208 A 
ATOM      4  C   UNL d   1     -51.546  27.047  33.476  0.00  0.00     0.215 A 
ATOM      5  C   UNL d   1     -50.539  28.058  33.370  0.00  0.00     0.043 A 
ATOM      6  C   UNL d   1     -51.334  27.844  33.425  0.00  0.00     0.044 A 
ATOM      7  O   UNL d   1     -49.163  27.697  33.311  0.00  0.00    -0.285 OA
ATOM      8  O   UNL d   1     -52.336  26.817  33.531  0.00  0.00    -0.285 OA
ATOM      9  C   UNL d   1     -50.340  28.855  33.320  0.00  0.00     0.003 A 
ATOM     10  C   UNL d   1     -51.914  28.419  33.429  0.00  0.00     0.003 A 
ATOM     11  C   UNL d   1     -50.930  29.432  33.324  0.00  0.00     0.000 A 
ATOM     12  C   UNL d   1     -51.716  29.216  33.379  0.00  0.00     0.000 A 
ENDROOT
BRANCH   1  13
ATOM     13  N   UNL d   1     -51.163  25.671  33.522  0.00  0.00    -0.154 NA
BRANCH  13  14
ATOM     14  S   UNL d   1     -51.947  25.436  33.415  0.00  0.00     0.291 S 
ATOM     15  O   UNL d   1     -52.179  26.227  33.378  0.00  0.00    -0.198 OA
ATOM     16  O   UNL d   1     -52.732  25.205  33.308  0.00  0.00    -0.198 OA
BRANCH  14  17
ATOM     17  C   UNL d   1     -51.711  24.647  33.453  0.00  0.00     0.135 A 
ATOM     18  S   UNL d   1     -51.009  24.244  33.309  0.00  0.00    -0.073 SA
ATOM     19  C   UNL d   1     -51.143  23.440  33.452  0.00  0.00     0.036 A 
ATOM     20  C   UNL d   1     -51.926  23.348  33.683  0.00  0.00     0.008 A 
ATOM     21  C   UNL d   1     -52.283  24.095  33.685  0.00  0.00     0.020 A 
ENDBRANCH  14  17
ENDBRANCH  13  14
ENDBRANCH   1  13
BRANCH   2  22
ATOM     22  N   UNL d   1     -49.574  26.103  33.412  0.00  0.00    -0.201 NA
ATOM     23  C   UNL d   1     -49.144  25.921  33.874  0.00  0.00     0.082 A 
ATOM     24  C   UNL d   1     -48.413  25.200  33.888  0.00  0.00     0.136 A 
ATOM     25  O   UNL d   1     -48.148  25.382  34.719  0.00  0.00    -0.301 OA
ATOM     26  C   UNL d   1     -48.569  25.533  34.218  0.00  0.00     0.136 A 
ATOM     27  C   UNL d   1     -49.360  26.298  34.174  0.00  0.00     0.082 A 
ENDBRANCH   2  22
TORSDOF 4
ENDMDL
MODEL 2
REMARK VINA RESULT:      82.0      2.085      2.958
REMARK  4 active torsions:
REMARK  status: ('A' for Active; 'I' for Inactive)
REMARK    1  A    between atoms: N_5  and  C_1 
REMARK    2  A    between atoms: S_2  and  N_5 
REMARK    3  A    between atoms: C_7  and  S_2 
REMARK    4  A    between atoms: N_10  and  C_3 
ROOT
ATOM      1  C   UNL d   1     -51.708  25.227  34.443  0.00  0.00     0.146 A 
ATOM      2  C   UNL d   1     -51.836  25.808  35.014  0.00  0.00     0.105 A 
ATOM      3  C   UNL d   1     -51.369  26.486  35.010  0.00  0.00     0.208 A 
ATOM      4  C   UNL d   1     -51.118  25.319  33.871  0.00  0.00     0.215 A 
ATOM      5  C   UNL d   1     -50.784  26.585  34.448  0.00  0.00     0.043 A 
ATOM      6  C   UNL d   1     -50.656  26.003  33.876  0.00  0.00     0.044 A 
ATOM      7  O   UNL d   1     -51.497  27.068  35.581  0.00  0.00    -0.285 OA
ATOM      8  O   UNL d   1     -51.002  24.729  33.306  0.00  0.00    -0.285 OA
ATOM      9  C   UNL d   1     -50.316  27.262  34.443  0.00  0.00     0.003 A 
ATOM     10  C   UNL d   1     -50.071  26.102  33.314  0.00  0.00     0.003 A 
ATOM     11  C   UNL d   1     -49.727  27.357  33.874  0.00  0.00     0.000 A 
ATOM     12  C   UNL d   1     -49.603  26.779  33.310  0.00  0.00     0.000 A 
ENDROOT
BRANCH   1  13
ATOM     13  N   UNL d   1     -52.174  24.541  34.438  0.00  0.00    -0.154 NA
BRANCH  13  14
ATOM     14  S   UNL d   1     -51.981  23.906  33.948  0.00  0.00     0.291 S 
ATOM     15  O   UNL d   1     -51.181  24.095  34.019  0.00  0.00    -0.198 OA
ATOM     16  O   UNL d   1     -51.784  23.272  33.458  0.00  0.00    -0.198 OA
BRANCH  14  17
ATOM     17  C   UNL d   1     -52.781  23.720  33.880  0.00  0.00     0.135 A 
ATOM     18  S   UNL d   1     -53.358  23.843  33.307  0.00  0.00    -0.073 SA
ATOM     19  C   UNL d   1     -54.065  23.514  33.584  0.00  0.00     0.036 A 
ATOM     20  C   UNL d   1     -53.924  23.189  34.325  0.00  0.00     0.008 A 
ATOM     21  C   UNL d   1     -53.128  23.315  34.514  0.00  0.00     0.020 A 
ENDBRANCH  14  17
ENDBRANCH  13  14
ENDBRANCH   1  13
BRANCH   2  22
ATOM     22  N   UNL d   1     -52.427  25.705  35.579  0.00  0.00    -0.201 NA
ATOM     23  C   UNL d   1     -52.421  25.795  36.230  0.00  0.00     0.082 A 
ATOM     24  C   UNL d   1     -53.143  25.673  36.949  0.00  0.00     0.136 A 
ATOM     25  O   UNL d   1     -52.618  25.923  37.624  0.00  0.00    -0.301 OA
ATOM     26  C   UNL d   1     -52.672  25.817  36.963  0.00  0.00     0.136 A 
ATOM     27  C   UNL d   1     -51.916  25.940  36.170  0.00  0.00     0.082 A 
ENDBRANCH   2  22
TORSDOF 4
ENDMDL
