MODEL 1
REMARK VINA RESULT:      42.3      0.000      0.000
REMARK  3 active torsions:
REMARK  status: ('A' for Active; 'I' for Inactive)
REMARK    1  A    between atoms: C_8  and  C_2 
REMARK    2  A    between atoms: O_6  and  C_8 
REMARK    3  A    between atoms: C_7  and  O_6 
ROOT
ATOM      1  N   UNL d   1     -50.925  27.035  33.718  0.00  0.00    -0.224 NA
ATOM      2  C   UNL d   1     -51.022  26.227  33.602  0.00  0.00     0.188 A 
ATOM      3  N   UNL d   1     -50.302  25.875  33.793  0.00  0.00    -0.224 NA
ATOM      4  C   UNL d   1     -50.172  27.177  33.973  0.00  0.00     0.101 A 
ATOM      5  C   UNL d   1     -49.782  26.451  34.020  0.00  0.00     0.101 A 
ATOM      6  C   UNL d   1     -49.761  27.844  34.175  0.00  0.00     0.021 A 
ATOM      7  C   UNL d   1     -48.996  26.420  34.266  0.00  0.00     0.021 A 
ATOM      8  C   UNL d   1     -48.599  27.116  34.467  0.00  0.00     0.002 A 
ATOM      9  C   UNL d   1     -48.988  27.841  34.420  0.00  0.00     0.002 A 
ENDROOT
BRANCH   2  10
ATOM     10  C   UNL d   1     -51.399  25.543  33.409  0.00  0.00     0.161 C 
BRANCH  10  11
ATOM     11  O   UNL d   1     -52.114  25.437  33.651  0.00  0.00    -0.302 OA
BRANCH  11  12
ATOM     12  C   UNL d   1     -52.497  24.683  33.557  0.00  0.00     0.100 A 
ATOM     13  C   UNL d   1     -53.292  24.645  33.486  0.00  0.00     0.023 A 
ATOM     14  C   UNL d   1     -53.751  25.326  33.503  0.00  0.00     0.002 C 
ATOM     15  C   UNL d   1     -53.655  23.905  33.394  0.00  0.00     0.002 A 
ATOM     16  C   UNL d   1     -53.193  23.222  33.376  0.00  0.00     0.000 A 
ATOM     17  C   UNL d   1     -52.352  23.254  33.450  0.00  0.00     0.002 A 
ATOM     18  C   UNL d   1     -52.011  24.016  33.542  0.00  0.00     0.025 A 
ENDBRANCH  11  12
ENDBRANCH  10  11
ENDBRANCH   2  10
TORSDOF 3
ENDMDL
