MODEL 1
REMARK VINA RESULT:      57.2      0.000      0.000
REMARK  4 active torsions:
REMARK  status: ('A' for Active; 'I' for Inactive)
REMARK    1  A    between atoms: O_8  and  C_1 
REMARK    2  A    between atoms: C_9  and  C_5 
REMARK    3  A    between atoms: C_11  and  O_8 
REMARK    4  A    between atoms: N_12  and  C_9 
ROOT
ATOM      1  C   UNL d   1      13.733  13.040  -2.219  0.00  0.00     0.161 A 
ATOM      2  C   UNL d   1      13.423  13.654  -3.735  0.00  0.00     0.108 A 
ATOM      3  C   UNL d   1      13.831  14.119  -3.168  0.00  0.00     0.064 A 
ATOM      4  C   UNL d   1      13.985  13.810  -2.413  0.00  0.00     0.222 A 
ATOM      5  C   UNL d   1      13.270  13.955  -4.479  0.00  0.00     0.079 A 
ATOM      6  O   UNL d   1      13.173  12.886  -3.537  0.00  0.00    -0.305 OA
ATOM      7  C   UNL d   1      13.328  12.579  -2.779  0.00  0.00     0.126 A 
ATOM      8  C   UNL d   1      14.073  14.877  -3.378  0.00  0.00     0.009 A 
ATOM      9  C   UNL d   1      13.514  14.712  -4.682  0.00  0.00     0.199 A 
ATOM     10  O   UNL d   1      14.388  14.269  -1.856  0.00  0.00    -0.284 OA
ATOM     11  C   UNL d   1      13.917  15.174  -4.127  0.00  0.00     0.042 A 
ATOM     12  O   UNL d   1      13.358  15.012  -5.434  0.00  0.00    -0.286 OA
ATOM     13  C   UNL d   1      13.077  11.813  -2.587  0.00  0.00     0.029 C 
ENDROOT
BRANCH   1  14
ATOM     14  O   UNL d   1      13.889  12.740  -1.466  0.00  0.00    -0.301 OA
BRANCH  14  15
ATOM     15  C   UNL d   1      14.636  12.443  -1.278  0.00  0.00     0.106 A 
ATOM     16  C   UNL d   1      14.759  12.076  -0.556  0.00  0.00     0.057 A 
ATOM     17 BR   UNL d   1      14.139  12.000  -0.014  0.00  0.00    -0.047 Br
ATOM     18  C   UNL d   1      15.509  11.780  -0.370  0.00  0.00     0.009 A 
ATOM     19  C   UNL d   1      16.133  11.854  -0.911  0.00  0.00     0.001 A 
ATOM     20  C   UNL d   1      16.000  12.227  -1.639  0.00  0.00     0.002 A 
ATOM     21  C   UNL d   1      15.253  12.520  -1.819  0.00  0.00     0.025 A 
ENDBRANCH  14  15
ENDBRANCH   1  14
BRANCH   5  22
ATOM     22  C   UNL d   1      12.873  13.500  -5.025  0.00  0.00     0.085 C 
BRANCH  22  23
ATOM     23  N   UNL d   1      13.195  12.916  -5.495  0.00  0.00    -0.302 N 
ATOM     24  C   UNL d   1      13.870  12.980  -5.945  0.00  0.00     0.080 A 
ATOM     25  C   UNL d   1      13.986  12.277  -6.318  0.00  0.00     0.021 A 
ATOM     26  C   UNL d   1      13.398  11.781  -6.109  0.00  0.00     0.021 A 
ATOM     27  C   UNL d   1      12.898  12.177  -5.592  0.00  0.00     0.080 A 
ENDBRANCH  22  23
ENDBRANCH   5  22
TORSDOF 4
ENDMDL
MODEL 2
REMARK VINA RESULT:      60.1      1.053      2.047
REMARK  4 active torsions:
REMARK  status: ('A' for Active; 'I' for Inactive)
REMARK    1  A    between atoms: O_8  and  C_1 
REMARK    2  A    between atoms: C_9  and  C_5 
REMARK    3  A    between atoms: C_11  and  O_8 
REMARK    4  A    between atoms: N_12  and  C_9 
ROOT
ATOM      1  C   UNL d   1      13.659  13.014  -2.364  0.00  0.00     0.161 A 
ATOM      2  C   UNL d   1      13.637  13.185  -4.019  0.00  0.00     0.108 A 
ATOM      3  C   UNL d   1      13.273  12.519  -3.660  0.00  0.00     0.064 A 
ATOM      4  C   UNL d   1      13.286  12.437  -2.834  0.00  0.00     0.222 A 
ATOM      5  C   UNL d   1      13.626  13.269  -4.832  0.00  0.00     0.079 A 
ATOM      6  O   UNL d   1      14.008  13.759  -3.546  0.00  0.00    -0.305 OA
ATOM      7  C   UNL d   1      14.019  13.674  -2.719  0.00  0.00     0.126 A 
ATOM      8  C   UNL d   1      12.910  11.958  -4.140  0.00  0.00     0.009 A 
ATOM      9  C   UNL d   1      13.261  12.706  -5.306  0.00  0.00     0.199 A 
ATOM     10  O   UNL d   1      12.928  11.781  -2.481  0.00  0.00    -0.284 OA
ATOM     11  C   UNL d   1      12.903  12.049  -4.956  0.00  0.00     0.042 A 
ATOM     12  O   UNL d   1      13.253  12.794  -6.126  0.00  0.00    -0.286 OA
ATOM     13  C   UNL d   1      14.390  14.249  -2.251  0.00  0.00     0.029 C 
ENDROOT
BRANCH   1  14
ATOM     14  O   UNL d   1      13.667  12.926  -1.543  0.00  0.00    -0.301 OA
BRANCH  14  15
ATOM     15  C   UNL d   1      14.334  12.628  -1.158  0.00  0.00     0.106 A 
ATOM     16  C   UNL d   1      14.514  12.878  -0.400  0.00  0.00     0.057 A 
ATOM     17 BR   UNL d   1      14.030  13.428  -0.016  0.00  0.00    -0.047 Br
ATOM     18  C   UNL d   1      15.183  12.579  -0.017  0.00  0.00     0.009 A 
ATOM     19  C   UNL d   1      15.670  12.027  -0.399  0.00  0.00     0.001 A 
ATOM     20  C   UNL d   1      15.481  11.779  -1.167  0.00  0.00     0.002 A 
ATOM     21  C   UNL d   1      14.815  12.080  -1.543  0.00  0.00     0.025 A 
ENDBRANCH  14  15
ENDBRANCH   1  14
BRANCH   5  22
ATOM     22  C   UNL d   1      13.980  13.916  -5.176  0.00  0.00     0.085 C 
BRANCH  22  23
ATOM     23  N   UNL d   1      13.627  14.635  -5.331  0.00  0.00    -0.302 N 
ATOM     24  C   UNL d   1      13.072  14.782  -5.908  0.00  0.00     0.080 A 
ATOM     25  C   UNL d   1      12.875  15.561  -5.868  0.00  0.00     0.021 A 
ATOM     26  C   UNL d   1      13.295  15.898  -5.281  0.00  0.00     0.021 A 
ATOM     27  C   UNL d   1      13.770  15.321  -4.940  0.00  0.00     0.080 A 
ENDBRANCH  22  23
ENDBRANCH   5  22
TORSDOF 4
ENDMDL
