MODEL 1
REMARK VINA RESULT:      -6.9      0.000      0.000
REMARK  6 active torsions:
REMARK  status: ('A' for Active; 'I' for Inactive)
REMARK    1  A    between atoms: N_8  and  S_1 
REMARK    2  A    between atoms: C_12  and  S_1 
REMARK    3  A    between atoms: N_5  and  C_2 
REMARK    4  A    between atoms: C_4  and  O_9 
REMARK    5  A    between atoms: O_9  and  C_10 
REMARK    6  A    between atoms: C_10  and  C_16 
ROOT
ATOM      1  C   UNL d   1     -48.133  14.144  22.509  0.00  0.00     0.104 A 
ATOM      2  C   UNL d   1     -46.893  13.108  22.789  0.00  0.00     0.064 A 
ATOM      3  C   UNL d   1     -47.991  13.524  21.996  0.00  0.00     0.013 A 
ATOM      4  C   UNL d   1     -47.649  14.245  23.169  0.00  0.00     0.013 A 
ATOM      5  C   UNL d   1     -47.363  12.997  22.135  0.00  0.00     0.006 A 
ATOM      6  C   UNL d   1     -47.026  13.727  23.311  0.00  0.00     0.006 A 
ENDROOT
BRANCH   2   7
ATOM      7  C   UNL d   1     -46.263  12.586  22.935  0.00  0.00     0.300 C 
ATOM      8  O   UNL d   1     -46.274  12.113  23.602  0.00  0.00    -0.259 OA
BRANCH   7   9
ATOM      9  O   UNL d   1     -45.630  12.550  22.404  0.00  0.00    -0.271 OA
BRANCH   9  10
ATOM     10  C   UNL d   1     -44.984  12.059  22.553  0.00  0.00     0.132 A 
ATOM     11  C   UNL d   1     -44.251  12.218  22.208  0.00  0.00     0.207 A 
ATOM     12  C   UNL d   1     -43.605  11.728  22.357  0.00  0.00     0.303 A 
ATOM     13  O   UNL d   1     -42.872  11.892  22.009  0.00  0.00    -0.263 OA
ATOM     14  N   UNL d   1     -43.691  11.077  22.852  0.00  0.00    -0.206 NA
ATOM     15  C   UNL d   1     -44.415  10.915  23.195  0.00  0.00     0.087 A 
ATOM     16  C   UNL d   1     -45.062  11.406  23.046  0.00  0.00     0.046 A 
ATOM     17  C   UNL d   1     -44.506  10.255  23.698  0.00  0.00     0.021 C 
BRANCH  11  18
ATOM     18  N   UNL d   1     -44.169  12.876  21.710  0.00  0.00    -0.107 N 
ATOM     19  O   UNL d   1     -44.299  12.791  20.899  0.00  0.00    -0.531 OA
ATOM     20  O   UNL d   1     -43.958  13.610  22.023  0.00  0.00    -0.531 OA
ENDBRANCH  11  18
ENDBRANCH   9  10
ENDBRANCH   7   9
ENDBRANCH   2   7
BRANCH   1  21
ATOM     21  S   UNL d   1     -48.748  14.665  22.379  0.00  0.00     0.271 S 
ATOM     22  O   UNL d   1     -49.219  15.304  22.213  0.00  0.00    -0.200 OA
ATOM     23  O   UNL d   1     -48.075  15.099  22.238  0.00  0.00    -0.200 OA
BRANCH  21  24
ATOM     24  N   UNL d   1     -49.514  14.399  22.476  0.00  0.00    -0.229 N 
ATOM     25  C   UNL d   1     -49.898  14.488  23.201  0.00  0.00     0.092 A 
ATOM     26  C   UNL d   1     -50.663  14.217  23.280  0.00  0.00     0.020 A 
ATOM     27  C   UNL d   1     -51.059  13.854  22.648  0.00  0.00     0.003 A 
ATOM     28  C   UNL d   1     -50.672  13.769  21.935  0.00  0.00     0.020 A 
ATOM     29  C   UNL d   1     -49.896  14.041  21.843  0.00  0.00     0.092 A 
ENDBRANCH  21  24
ENDBRANCH   1  21
TORSDOF 6
ENDMDL
MODEL 2
REMARK VINA RESULT:      -5.3      1.317      5.436
REMARK  6 active torsions:
REMARK  status: ('A' for Active; 'I' for Inactive)
REMARK    1  A    between atoms: N_8  and  S_1 
REMARK    2  A    between atoms: C_12  and  S_1 
REMARK    3  A    between atoms: N_5  and  C_2 
REMARK    4  A    between atoms: C_4  and  O_9 
REMARK    5  A    between atoms: O_9  and  C_10 
REMARK    6  A    between atoms: C_10  and  C_16 
ROOT
ATOM      1  C   UNL d   1     -46.099  12.541  22.726  0.00  0.00     0.104 A 
ATOM      2  C   UNL d   1     -47.660  12.992  22.943  0.00  0.00     0.064 A 
ATOM      3  C   UNL d   1     -46.694  12.181  22.298  0.00  0.00     0.013 A 
ATOM      4  C   UNL d   1     -46.287  13.133  23.268  0.00  0.00     0.013 A 
ATOM      5  C   UNL d   1     -47.487  12.407  22.406  0.00  0.00     0.006 A 
ATOM      6  C   UNL d   1     -47.070  13.361  23.379  0.00  0.00     0.006 A 
ENDROOT
BRANCH   2   7
ATOM      7  C   UNL d   1     -48.450  13.225  23.057  0.00  0.00     0.300 C 
ATOM      8  O   UNL d   1     -48.959  12.743  23.477  0.00  0.00    -0.259 OA
BRANCH   7   9
ATOM      9  O   UNL d   1     -48.713  13.944  22.744  0.00  0.00    -0.271 OA
BRANCH   9  10
ATOM     10  C   UNL d   1     -49.491  14.028  22.482  0.00  0.00     0.132 A 
ATOM     11  C   UNL d   1     -49.879  14.754  22.554  0.00  0.00     0.207 A 
ATOM     12  C   UNL d   1     -50.656  14.838  22.292  0.00  0.00     0.303 A 
ATOM     13  O   UNL d   1     -51.040  15.567  22.366  0.00  0.00    -0.263 OA
ATOM     14  N   UNL d   1     -51.047  14.197  21.958  0.00  0.00    -0.206 NA
ATOM     15  C   UNL d   1     -50.667  13.477  21.885  0.00  0.00     0.087 A 
ATOM     16  C   UNL d   1     -49.889  13.392  22.147  0.00  0.00     0.046 A 
ATOM     17  C   UNL d   1     -51.062  12.824  21.547  0.00  0.00     0.021 C 
BRANCH  11  18
ATOM     18  N   UNL d   1     -49.480  15.398  22.892  0.00  0.00    -0.107 N 
ATOM     19  O   UNL d   1     -48.931  15.819  22.440  0.00  0.00    -0.531 OA
ATOM     20  O   UNL d   1     -49.632  15.617  23.673  0.00  0.00    -0.531 OA
ENDBRANCH  11  18
ENDBRANCH   9  10
ENDBRANCH   7   9
ENDBRANCH   2   7
BRANCH   1  21
ATOM     21  S   UNL d   1     -45.318  12.324  22.626  0.00  0.00     0.271 S 
ATOM     22  O   UNL d   1     -44.534  12.267  22.426  0.00  0.00    -0.200 OA
ATOM     23  O   UNL d   1     -45.393  13.023  22.218  0.00  0.00    -0.200 OA
BRANCH  21  24
ATOM     24  N   UNL d   1     -45.056  11.632  22.973  0.00  0.00    -0.229 N 
ATOM     25  C   UNL d   1     -44.257  11.430  22.951  0.00  0.00     0.092 A 
ATOM     26  C   UNL d   1     -44.013  10.737  23.302  0.00  0.00     0.020 A 
ATOM     27  C   UNL d   1     -44.552  10.232  23.680  0.00  0.00     0.003 A 
ATOM     28  C   UNL d   1     -45.341  10.438  23.698  0.00  0.00     0.020 A 
ATOM     29  C   UNL d   1     -45.600  11.140  23.344  0.00  0.00     0.092 A 
ENDBRANCH  21  24
ENDBRANCH   1  21
TORSDOF 6
ENDMDL
MODEL 3
REMARK VINA RESULT:      -5.0      1.568      5.388
REMARK  6 active torsions:
REMARK  status: ('A' for Active; 'I' for Inactive)
REMARK    1  A    between atoms: N_8  and  S_1 
REMARK    2  A    between atoms: C_12  and  S_1 
REMARK    3  A    between atoms: N_5  and  C_2 
REMARK    4  A    between atoms: C_4  and  O_9 
REMARK    5  A    between atoms: O_9  and  C_10 
REMARK    6  A    between atoms: C_10  and  C_16 
ROOT
ATOM      1  C   UNL d   1     -45.343  12.614  22.575  0.00  0.00     0.104 A 
ATOM      2  C   UNL d   1     -46.765  13.431  22.565  0.00  0.00     0.064 A 
ATOM      3  C   UNL d   1     -45.694  12.820  21.867  0.00  0.00     0.013 A 
ATOM      4  C   UNL d   1     -45.708  12.820  23.286  0.00  0.00     0.013 A 
ATOM      5  C   UNL d   1     -46.415  13.234  21.858  0.00  0.00     0.006 A 
ATOM      6  C   UNL d   1     -46.421  13.230  23.283  0.00  0.00     0.006 A 
ENDROOT
BRANCH   2   7
ATOM      7  C   UNL d   1     -47.486  13.845  22.565  0.00  0.00     0.300 C 
ATOM      8  O   UNL d   1     -47.485  14.661  22.605  0.00  0.00    -0.259 OA
BRANCH   7   9
ATOM      9  O   UNL d   1     -48.197  13.425  22.525  0.00  0.00    -0.271 OA
BRANCH   9  10
ATOM     10  C   UNL d   1     -48.919  13.814  22.617  0.00  0.00     0.132 A 
ATOM     11  C   UNL d   1     -49.625  13.438  22.408  0.00  0.00     0.207 A 
ATOM     12  C   UNL d   1     -50.347  13.827  22.500  0.00  0.00     0.303 A 
ATOM     13  O   UNL d   1     -51.050  13.446  22.289  0.00  0.00    -0.263 OA
ATOM     14  N   UNL d   1     -50.364  14.591  22.801  0.00  0.00    -0.206 NA
ATOM     15  C   UNL d   1     -49.668  14.967  23.009  0.00  0.00     0.087 A 
ATOM     16  C   UNL d   1     -48.946  14.578  22.917  0.00  0.00     0.046 A 
ATOM     17  C   UNL d   1     -49.684  15.743  23.315  0.00  0.00     0.021 C 
BRANCH  11  18
ATOM     18  N   UNL d   1     -49.602  12.666  22.105  0.00  0.00    -0.107 N 
ATOM     19  O   UNL d   1     -49.593  12.551  21.287  0.00  0.00    -0.531 OA
ATOM     20  O   UNL d   1     -49.588  12.020  22.617  0.00  0.00    -0.531 OA
ENDBRANCH  11  18
ENDBRANCH   9  10
ENDBRANCH   7   9
ENDBRANCH   2   7
BRANCH   1  21
ATOM     21  S   UNL d   1     -44.635  12.208  22.592  0.00  0.00     0.271 S 
ATOM     22  O   UNL d   1     -43.868  11.955  22.516  0.00  0.00    -0.200 OA
ATOM     23  O   UNL d   1     -44.468  12.899  22.197  0.00  0.00    -0.200 OA
BRANCH  21  24
ATOM     24  N   UNL d   1     -44.612  11.477  22.957  0.00  0.00    -0.229 N 
ATOM     25  C   UNL d   1     -43.911  11.042  22.976  0.00  0.00     0.092 A 
ATOM     26  C   UNL d   1     -43.906  10.315  23.344  0.00  0.00     0.020 A 
ATOM     27  C   UNL d   1     -44.588  10.006  23.698  0.00  0.00     0.003 A 
ATOM     28  C   UNL d   1     -45.278  10.442  23.675  0.00  0.00     0.020 A 
ATOM     29  C   UNL d   1     -45.295  11.182  23.304  0.00  0.00     0.092 A 
ENDBRANCH  21  24
ENDBRANCH   1  21
TORSDOF 6
ENDMDL
MODEL 4
REMARK VINA RESULT:      -4.5      7.953      9.279
REMARK  6 active torsions:
REMARK  status: ('A' for Active; 'I' for Inactive)
REMARK    1  A    between atoms: N_8  and  S_1 
REMARK    2  A    between atoms: C_12  and  S_1 
REMARK    3  A    between atoms: N_5  and  C_2 
REMARK    4  A    between atoms: C_4  and  O_9 
REMARK    5  A    between atoms: O_9  and  C_10 
REMARK    6  A    between atoms: C_10  and  C_16 
ROOT
ATOM      1  C   UNL d   1     -39.145  15.058  21.470  0.00  0.00     0.104 A 
ATOM      2  C   UNL d   1     -39.404  14.831  19.867  0.00  0.00     0.064 A 
ATOM      3  C   UNL d   1     -38.526  15.124  20.940  0.00  0.00     0.013 A 
ATOM      4  C   UNL d   1     -39.901  14.877  21.194  0.00  0.00     0.013 A 
ATOM      5  C   UNL d   1     -38.654  15.009  20.127  0.00  0.00     0.006 A 
ATOM      6  C   UNL d   1     -40.033  14.763  20.390  0.00  0.00     0.006 A 
ENDROOT
BRANCH   2   7
ATOM      7  C   UNL d   1     -39.540  14.716  19.055  0.00  0.00     0.300 C 
ATOM      8  O   UNL d   1     -40.138  15.128  18.681  0.00  0.00    -0.259 OA
BRANCH   7   9
ATOM      9  O   UNL d   1     -39.068  14.183  18.633  0.00  0.00    -0.271 OA
BRANCH   9  10
ATOM     10  C   UNL d   1     -38.916  14.301  17.831  0.00  0.00     0.132 A 
ATOM     11  C   UNL d   1     -38.663  13.674  17.358  0.00  0.00     0.207 A 
ATOM     12  C   UNL d   1     -38.510  13.792  16.556  0.00  0.00     0.303 A 
ATOM     13  O   UNL d   1     -38.257  13.160  16.086  0.00  0.00    -0.263 OA
ATOM     14  N   UNL d   1     -38.610  14.539  16.226  0.00  0.00    -0.206 NA
ATOM     15  C   UNL d   1     -38.861  15.163  16.691  0.00  0.00     0.087 A 
ATOM     16  C   UNL d   1     -39.013  15.044  17.493  0.00  0.00     0.046 A 
ATOM     17  C   UNL d   1     -38.963  15.921  16.359  0.00  0.00     0.021 C 
BRANCH  11  18
ATOM     18  N   UNL d   1     -38.563  12.922  17.695  0.00  0.00    -0.107 N 
ATOM     19  O   UNL d   1     -37.976  12.806  18.263  0.00  0.00    -0.531 OA
ATOM     20  O   UNL d   1     -39.048  12.296  17.463  0.00  0.00    -0.531 OA
ENDBRANCH  11  18
ENDBRANCH   9  10
ENDBRANCH   7   9
ENDBRANCH   2   7
BRANCH   1  21
ATOM     21  S   UNL d   1     -39.027  15.169  22.271  0.00  0.00     0.271 S 
ATOM     22  O   UNL d   1     -38.942  15.459  23.023  0.00  0.00    -0.200 OA
ATOM     23  O   UNL d   1     -39.176  15.913  21.978  0.00  0.00    -0.200 OA
BRANCH  21  24
ATOM     24  N   UNL d   1     -38.863  14.517  22.736  0.00  0.00    -0.229 N 
ATOM     25  C   UNL d   1     -39.444  14.198  23.226  0.00  0.00     0.092 A 
ATOM     26  C   UNL d   1     -39.263  13.548  23.683  0.00  0.00     0.020 A 
ATOM     27  C   UNL d   1     -38.510  13.204  23.665  0.00  0.00     0.003 A 
ATOM     28  C   UNL d   1     -37.940  13.526  23.177  0.00  0.00     0.020 A 
ATOM     29  C   UNL d   1     -38.112  14.185  22.708  0.00  0.00     0.092 A 
ENDBRANCH  21  24
ENDBRANCH   1  21
TORSDOF 6
ENDMDL
MODEL 5
REMARK VINA RESULT:      -4.4      1.611      1.792
REMARK  6 active torsions:
REMARK  status: ('A' for Active; 'I' for Inactive)
REMARK    1  A    between atoms: N_8  and  S_1 
REMARK    2  A    between atoms: C_12  and  S_1 
REMARK    3  A    between atoms: N_5  and  C_2 
REMARK    4  A    between atoms: C_4  and  O_9 
REMARK    5  A    between atoms: O_9  and  C_10 
REMARK    6  A    between atoms: C_10  and  C_16 
ROOT
ATOM      1  C   UNL d   1     -49.381  12.131  23.063  0.00  0.00     0.104 A 
ATOM      2  C   UNL d   1     -47.790  11.781  23.243  0.00  0.00     0.064 A 
ATOM      3  C   UNL d   1     -48.929  12.542  23.605  0.00  0.00     0.013 A 
ATOM      4  C   UNL d   1     -49.033  11.539  22.606  0.00  0.00     0.013 A 
ATOM      5  C   UNL d   1     -48.122  12.367  23.698  0.00  0.00     0.006 A 
ATOM      6  C   UNL d   1     -48.235  11.362  22.695  0.00  0.00     0.006 A 
ENDROOT
BRANCH   2   7
ATOM      7  C   UNL d   1     -46.984  11.600  23.330  0.00  0.00     0.300 C 
ATOM      8  O   UNL d   1     -46.761  10.905  23.698  0.00  0.00    -0.259 OA
BRANCH   7   9
ATOM      9  O   UNL d   1     -46.413  12.125  23.042  0.00  0.00    -0.271 OA
BRANCH   9  10
ATOM     10  C   UNL d   1     -45.627  11.889  22.962  0.00  0.00     0.132 A 
ATOM     11  C   UNL d   1     -45.102  12.335  22.507  0.00  0.00     0.207 A 
ATOM     12  C   UNL d   1     -44.315  12.099  22.427  0.00  0.00     0.303 A 
ATOM     13  O   UNL d   1     -43.793  12.549  21.969  0.00  0.00    -0.263 OA
ATOM     14  N   UNL d   1     -44.053  11.416  22.802  0.00  0.00    -0.206 NA
ATOM     15  C   UNL d   1     -44.570  10.972  23.254  0.00  0.00     0.087 A 
ATOM     16  C   UNL d   1     -45.356  11.208  23.334  0.00  0.00     0.046 A 
ATOM     17  C   UNL d   1     -44.306  10.279  23.637  0.00  0.00     0.021 C 
BRANCH  11  18
ATOM     18  N   UNL d   1     -45.371  13.023  22.129  0.00  0.00    -0.107 N 
ATOM     19  O   UNL d   1     -45.715  12.968  21.381  0.00  0.00    -0.531 OA
ATOM     20  O   UNL d   1     -45.295  13.756  22.500  0.00  0.00    -0.531 OA
ENDBRANCH  11  18
ENDBRANCH   9  10
ENDBRANCH   7   9
ENDBRANCH   2   7
BRANCH   1  21
ATOM     21  S   UNL d   1     -50.175  12.297  22.965  0.00  0.00     0.271 S 
ATOM     22  O   UNL d   1     -50.986  12.292  22.945  0.00  0.00    -0.200 OA
ATOM     23  O   UNL d   1     -50.158  11.558  23.304  0.00  0.00    -0.200 OA
BRANCH  21  24
ATOM     24  N   UNL d   1     -50.387  13.012  22.631  0.00  0.00    -0.229 N 
ATOM     25  C   UNL d   1     -50.559  13.662  23.110  0.00  0.00     0.092 A 
ATOM     26  C   UNL d   1     -50.768  14.367  22.761  0.00  0.00     0.020 A 
ATOM     27  C   UNL d   1     -50.812  14.444  21.937  0.00  0.00     0.003 A 
ATOM     28  C   UNL d   1     -50.641  13.798  21.469  0.00  0.00     0.020 A 
ATOM     29  C   UNL d   1     -50.427  13.076  21.813  0.00  0.00     0.092 A 
ENDBRANCH  21  24
ENDBRANCH   1  21
TORSDOF 6
ENDMDL
