MODEL 1
REMARK VINA RESULT:      -4.3      0.000      0.000
REMARK  5 active torsions:
REMARK  status: ('A' for Active; 'I' for Inactive)
REMARK    1  A    between atoms: N_2  and  C_1 
REMARK    2  A    between atoms: C_9  and  C_5 
REMARK    3  A    between atoms: C_6  and  C_10 
REMARK       I    between atoms: N_11  and  C_6 
REMARK    4  A    between atoms: C_8  and  N_11 
REMARK    5  A    between atoms: C_10  and  C_9 
ROOT
ATOM      1  C   UNL d   1      57.269   0.163  31.432  0.00  0.00     0.279 C 
ATOM      2  N   UNL d   1      57.186   0.319  32.243  0.00  0.00    -0.208 NA
ATOM      3  O   UNL d   1      56.724  -0.310  31.030  0.00  0.00    -0.265 OA
ENDROOT
BRANCH   1   4
ATOM      4  C   UNL d   1      57.900   0.483  31.027  0.00  0.00     0.063 C 
BRANCH   4   5
ATOM      5  C   UNL d   1      57.893   0.485  30.200  0.00  0.00     0.011 C 
BRANCH   5   6
ATOM      6  C   UNL d   1      58.614   0.504  29.785  0.00  0.00     0.031 A 
ATOM      7  S   UNL d   1      59.394   0.506  30.029  0.00  0.00    -0.064 SA
ATOM      8  C   UNL d   1      59.880   0.529  29.372  0.00  0.00     0.156 A 
ATOM      9  C   UNL d   1      59.388   0.540  28.716  0.00  0.00     0.031 A 
ATOM     10  C   UNL d   1      58.607   0.525  28.959  0.00  0.00     0.009 A 
BRANCH   8  11
ATOM     11  N   UNL d   1      60.713   0.538  29.362  0.00  0.00    -0.107 N 
ATOM     12  O   UNL d   1      61.111   0.412  28.650  0.00  0.00    -0.531 OA
ATOM     13  O   UNL d   1      61.133   0.674  30.065  0.00  0.00    -0.531 OA
ENDBRANCH   8  11
ENDBRANCH   5   6
ENDBRANCH   4   5
ENDBRANCH   1   4
BRANCH   2  14
ATOM     14  C   UNL d   1      56.545  -0.006  32.655  0.00  0.00     0.085 A 
ATOM     15  C   UNL d   1      56.491  -0.808  32.759  0.00  0.00     0.019 A 
ATOM     16  C   UNL d   1      55.858  -1.128  33.166  0.00  0.00     0.002 A 
ATOM     17  C   UNL d   1      55.793  -1.950  33.278  0.00  0.00     0.000 C 
ATOM     18  C   UNL d   1      55.292  -0.641  33.461  0.00  0.00     0.000 A 
ATOM     19  C   UNL d   1      55.329   0.178  33.366  0.00  0.00     0.002 A 
ATOM     20  C   UNL d   1      55.960   0.497  32.960  0.00  0.00     0.019 A 
ATOM     21  C   UNL d   1      54.743   0.676  33.672  0.00  0.00     0.000 C 
ENDBRANCH   2  14
TORSDOF 5
ENDMDL
MODEL 2
REMARK VINA RESULT:      -3.2      1.294      1.791
REMARK  5 active torsions:
REMARK  status: ('A' for Active; 'I' for Inactive)
REMARK    1  A    between atoms: N_2  and  C_1 
REMARK    2  A    between atoms: C_9  and  C_5 
REMARK    3  A    between atoms: C_6  and  C_10 
REMARK       I    between atoms: N_11  and  C_6 
REMARK    4  A    between atoms: C_8  and  N_11 
REMARK    5  A    between atoms: C_10  and  C_9 
ROOT
ATOM      1  C   UNL d   1      56.614  -0.161  32.194  0.00  0.00     0.279 C 
ATOM      2  N   UNL d   1      56.400   0.576  32.512  0.00  0.00    -0.208 NA
ATOM      3  O   UNL d   1      56.508  -0.858  32.625  0.00  0.00    -0.265 OA
ENDROOT
BRANCH   1   4
ATOM      4  C   UNL d   1      56.934  -0.196  31.446  0.00  0.00     0.063 C 
BRANCH   4   5
ATOM      5  C   UNL d   1      57.706   0.070  31.320  0.00  0.00     0.011 C 
BRANCH   5   6
ATOM      6  C   UNL d   1      58.047  -0.001  30.565  0.00  0.00     0.031 A 
ATOM      7  S   UNL d   1      58.569  -0.540  30.241  0.00  0.00    -0.064 SA
ATOM      8  C   UNL d   1      58.716  -0.337  29.462  0.00  0.00     0.156 A 
ATOM      9  C   UNL d   1      58.275   0.337  29.309  0.00  0.00     0.031 A 
ATOM     10  C   UNL d   1      57.860   0.553  29.980  0.00  0.00     0.009 A 
BRANCH   8  11
ATOM     11  N   UNL d   1      59.213  -0.733  28.924  0.00  0.00    -0.107 N 
ATOM     12  O   UNL d   1      58.917  -1.373  28.496  0.00  0.00    -0.531 OA
ATOM     13  O   UNL d   1      59.998  -0.482  28.825  0.00  0.00    -0.531 OA
ENDBRANCH   8  11
ENDBRANCH   5   6
ENDBRANCH   4   5
ENDBRANCH   1   4
BRANCH   2  14
ATOM     14  C   UNL d   1      56.075   0.611  33.272  0.00  0.00     0.085 A 
ATOM     15  C   UNL d   1      55.271   0.629  33.372  0.00  0.00     0.019 A 
ATOM     16  C   UNL d   1      54.950   0.664  34.123  0.00  0.00     0.002 A 
ATOM     17  C   UNL d   1      54.126   0.682  34.236  0.00  0.00     0.000 C 
ATOM     18  C   UNL d   1      55.439   0.681  34.760  0.00  0.00     0.000 A 
ATOM     19  C   UNL d   1      56.259   0.664  34.680  0.00  0.00     0.002 A 
ATOM     20  C   UNL d   1      56.579   0.629  33.931  0.00  0.00     0.019 A 
ATOM     21  C   UNL d   1      56.759   0.682  35.339  0.00  0.00     0.000 C 
ENDBRANCH   2  14
TORSDOF 5
ENDMDL
MODEL 3
REMARK VINA RESULT:      -2.1      9.328     10.051
REMARK  5 active torsions:
REMARK  status: ('A' for Active; 'I' for Inactive)
REMARK    1  A    between atoms: N_2  and  C_1 
REMARK    2  A    between atoms: C_9  and  C_5 
REMARK    3  A    between atoms: C_6  and  C_10 
REMARK       I    between atoms: N_11  and  C_6 
REMARK    4  A    between atoms: C_8  and  N_11 
REMARK    5  A    between atoms: C_10  and  C_9 
ROOT
ATOM      1  C   UNL d   1      59.798  -9.347  33.306  0.00  0.00     0.279 C 
ATOM      2  N   UNL d   1      59.310  -9.425  33.973  0.00  0.00    -0.208 NA
ATOM      3  O   UNL d   1      60.493  -8.902  33.336  0.00  0.00    -0.265 OA
ENDROOT
BRANCH   1   4
ATOM      4  C   UNL d   1      59.587  -9.717  32.611  0.00  0.00     0.063 C 
BRANCH   4   5
ATOM      5  C   UNL d   1      60.132  -9.762  31.992  0.00  0.00     0.011 C 
BRANCH   5   6
ATOM      6  C   UNL d   1      59.860  -9.770  31.206  0.00  0.00     0.031 A 
ATOM      7  S   UNL d   1      59.111  -9.760  30.879  0.00  0.00    -0.064 SA
ATOM      8  C   UNL d   1      59.174  -9.777  30.064  0.00  0.00     0.156 A 
ATOM      9  C   UNL d   1      59.975  -9.798  29.891  0.00  0.00     0.031 A 
ATOM     10  C   UNL d   1      60.406  -9.794  30.586  0.00  0.00     0.009 A 
BRANCH   8  11
ATOM     11  N   UNL d   1      58.551  -9.774  29.511  0.00  0.00    -0.107 N 
ATOM     12  O   UNL d   1      58.725  -9.817  28.706  0.00  0.00    -0.531 OA
ATOM     13  O   UNL d   1      57.765  -9.727  29.774  0.00  0.00    -0.531 OA
ENDBRANCH   8  11
ENDBRANCH   5   6
ENDBRANCH   4   5
ENDBRANCH   1   4
BRANCH   2  14
ATOM     14  C   UNL d   1      59.524  -9.049  34.679  0.00  0.00     0.085 A 
ATOM     15  C   UNL d   1      60.121  -9.351  35.137  0.00  0.00     0.019 A 
ATOM     16  C   UNL d   1      60.333  -8.981  35.835  0.00  0.00     0.002 A 
ATOM     17  C   UNL d   1      60.943  -9.283  36.312  0.00  0.00     0.000 C 
ATOM     18  C   UNL d   1      59.944  -8.315  36.061  0.00  0.00     0.000 A 
ATOM     19  C   UNL d   1      59.334  -7.992  35.609  0.00  0.00     0.002 A 
ATOM     20  C   UNL d   1      59.123  -8.362  34.913  0.00  0.00     0.019 A 
ATOM     21  C   UNL d   1      58.936  -7.306  35.845  0.00  0.00     0.000 C 
ENDBRANCH   2  14
TORSDOF 5
ENDMDL
