MODEL 1
REMARK VINA RESULT:      -3.2      0.000      0.000
REMARK  1 active torsions:
REMARK  status: ('A' for Active; 'I' for Inactive)
REMARK       I    between atoms: N_3  and  C_1 
REMARK       I    between atoms: N_5  and  C_1 
REMARK       I    between atoms: C_2  and  N_4 
REMARK    1  A    between atoms: C_6  and  C_2 
ROOT
ATOM      1  C   UNL d   1     -42.046-122.136 -51.059  0.00  0.00     0.340 C 
ATOM      2  C   UNL d   1     -41.474-123.074 -54.174  0.00  0.00     0.271 C 
ATOM      3  N   UNL d   1     -41.998-122.407 -51.838  0.00  0.00    -0.254 N 
ATOM      4  N   UNL d   1     -41.632-122.838 -53.386  0.00  0.00    -0.269 N 
ATOM      5  N   UNL d   1     -41.846-122.638 -50.436  0.00  0.00    -0.253 N 
ATOM      6  O   UNL d   1     -42.292-121.368 -50.905  0.00  0.00    -0.245 OA
ATOM      7  C   UNL d   1     -42.172-121.893 -52.465  0.00  0.00     0.104 A 
ATOM      8  C   UNL d   1     -41.655-123.153 -51.996  0.00  0.00     0.104 A 
ATOM      9  C   UNL d   1     -41.976-122.109 -53.249  0.00  0.00     0.102 A 
ATOM     10  C   UNL d   1     -41.475-123.372 -52.771  0.00  0.00     0.102 A 
ATOM     11  O   UNL d   1     -41.130-123.817 -54.328  0.00  0.00    -0.266 OA
ATOM     12  O   UNL d   1     -41.168-123.550 -49.202  0.00  0.00    -0.300 OA
ATOM     13  C   UNL d   1     -41.614-122.282 -49.679  0.00  0.00     0.111 C 
ATOM     14  C   UNL d   1     -41.322-123.318 -50.614  0.00  0.00     0.111 C 
ATOM     15  C   UNL d   1     -41.123-123.817 -49.982  0.00  0.00     0.142 C 
ATOM     16  C   UNL d   1     -41.417-122.776 -49.057  0.00  0.00     0.142 C 
ENDROOT
BRANCH   2  17
ATOM     17  C   UNL d   1     -41.640-122.556 -54.802  0.00  0.00     0.086 A 
ATOM     18  S   UNL d   1     -42.333-122.554 -55.263  0.00  0.00    -0.082 SA
ATOM     19  C   UNL d   1     -42.268-121.933 -55.826  0.00  0.00     0.036 A 
ATOM     20  C   UNL d   1     -41.532-121.562 -55.711  0.00  0.00     0.008 A 
ATOM     21  C   UNL d   1     -41.146-121.942 -55.077  0.00  0.00     0.012 A 
ENDBRANCH   2  17
TORSDOF 1
ENDMDL
MODEL 2
REMARK VINA RESULT:      -2.2      1.495      4.608
REMARK  1 active torsions:
REMARK  status: ('A' for Active; 'I' for Inactive)
REMARK       I    between atoms: N_3  and  C_1 
REMARK       I    between atoms: N_5  and  C_1 
REMARK       I    between atoms: C_2  and  N_4 
REMARK    1  A    between atoms: C_6  and  C_2 
ROOT
ATOM      1  C   UNL d   1     -41.715-123.124 -53.907  0.00  0.00     0.340 C 
ATOM      2  C   UNL d   1     -42.099-122.391 -50.710  0.00  0.00     0.271 C 
ATOM      3  N   UNL d   1     -41.904-122.984 -53.115  0.00  0.00    -0.254 N 
ATOM      4  N   UNL d   1     -42.013-122.586 -51.520  0.00  0.00    -0.269 N 
ATOM      5  N   UNL d   1     -41.914-122.568 -54.483  0.00  0.00    -0.253 N 
ATOM      6  O   UNL d   1     -41.329-123.817 -54.122  0.00  0.00    -0.245 OA
ATOM      7  C   UNL d   1     -41.678-123.530 -52.534  0.00  0.00     0.104 A 
ATOM      8  C   UNL d   1     -42.206-122.238 -52.888  0.00  0.00     0.104 A 
ATOM      9  C   UNL d   1     -41.724-123.322 -51.725  0.00  0.00     0.102 A 
ATOM     10  C   UNL d   1     -42.265-122.038 -52.090  0.00  0.00     0.102 A 
ATOM     11  O   UNL d   1     -42.400-121.646 -50.487  0.00  0.00    -0.266 OA
ATOM     12  O   UNL d   1     -42.055-121.324 -55.598  0.00  0.00    -0.300 OA
ATOM     13  C   UNL d   1     -41.471-122.572 -55.229  0.00  0.00     0.111 C 
ATOM     14  C   UNL d   1     -42.045-121.742 -54.221  0.00  0.00     0.111 C 
ATOM     15  C   UNL d   1     -42.242-121.187 -54.806  0.00  0.00     0.142 C 
ATOM     16  C   UNL d   1     -41.667-122.023 -55.804  0.00  0.00     0.142 C 
ENDROOT
BRANCH   2  17
ATOM     17  C   UNL d   1     -41.866-122.935 -50.127  0.00  0.00     0.086 A 
ATOM     18  S   UNL d   1     -41.123-123.307 -50.074  0.00  0.00    -0.082 SA
ATOM     19  C   UNL d   1     -41.128-123.803 -49.396  0.00  0.00     0.036 A 
ATOM     20  C   UNL d   1     -41.877-123.737 -49.040  0.00  0.00     0.008 A 
ATOM     21  C   UNL d   1     -42.331-123.199 -49.486  0.00  0.00     0.012 A 
ENDBRANCH   2  17
TORSDOF 1
ENDMDL
