MODEL 1
REMARK VINA RESULT:      62.6      0.000      0.000
REMARK  12 active torsions:
REMARK  status: ('A' for Active; 'I' for Inactive)
REMARK    1  A    between atoms: C_8  and  C_1 
REMARK    2  A    between atoms: C_9  and  C_2 
REMARK    3  A    between atoms: C_7  and  C_3 
REMARK    4  A    between atoms: S_10  and  C_4 
REMARK    5  A    between atoms: O_23  and  C_8 
REMARK    6  A    between atoms: C_20  and  S_10 
REMARK    7  A    between atoms: O_25  and  C_13 
REMARK    8  A    between atoms: C_14  and  C_20 
REMARK    9  A    between atoms: O_26  and  C_14 
REMARK   10  A    between atoms: C_21  and  C_28 
REMARK   11  A    between atoms: C_28  and  O_23 
REMARK   12  A    between atoms: C_29  and  O_26 
ROOT
ATOM      1  C   UNL d   1      44.485 -16.222  37.588  0.00  0.00     0.081 A 
ATOM      2  C   UNL d   1      43.660 -15.376  36.777  0.00  0.00     0.045 A 
ATOM      3  C   UNL d   1      44.352 -15.500  37.192  0.00  0.00     0.010 A 
ATOM      4  C   UNL d   1      43.096 -15.963  36.750  0.00  0.00     0.112 A 
ATOM      5  C   UNL d   1      43.935 -16.796  37.561  0.00  0.00     0.087 A 
ATOM      6  N   UNL d   1      43.223 -16.677  37.138  0.00  0.00    -0.239 NA
ATOM      7  C   UNL d   1      44.107 -17.514  37.975  0.00  0.00     0.021 C 
ENDROOT
BRANCH   3   8
ATOM      8  C   UNL d   1      44.923 -14.904  37.220  0.00  0.00     0.003 A 
ATOM      9  C   UNL d   1      44.891 -14.318  37.814  0.00  0.00     0.028 A 
ATOM     10  C   UNL d   1      45.462 -13.722  37.841  0.00  0.00     0.133 A 
ATOM     11  C   UNL d   1      46.060 -13.718  37.274  0.00  0.00     0.218 A 
ATOM     12  C   UNL d   1      46.088 -14.295  36.694  0.00  0.00     0.044 A 
ATOM     13  O   UNL d   1      46.636 -13.144  37.276  0.00  0.00    -0.284 OA
ATOM     14  C   UNL d   1      45.517 -14.890  36.666  0.00  0.00     0.003 A 
BRANCH  10  15
ATOM     15  O   UNL d   1      45.439 -13.126  38.437  0.00  0.00    -0.325 OA
ATOM     16  C   UNL d   1      45.108 -12.388  38.273  0.00  0.00     0.181 C 
ENDBRANCH  10  15
ENDBRANCH   3   8
BRANCH   2  17
ATOM     17  C   UNL d   1      43.530 -14.650  36.382  0.00  0.00     0.124 C 
ATOM     18  N   UNL d   1      42.754 -14.341  36.331  0.00  0.00    -0.146 N 
ENDBRANCH   2  17
BRANCH   1  19
ATOM     19  C   UNL d   1      45.194 -16.380  38.027  0.00  0.00     0.302 C 
ATOM     20  O   UNL d   1      45.853 -15.898  37.940  0.00  0.00    -0.259 OA
BRANCH  19  21
ATOM     21  O   UNL d   1      45.207 -17.015  38.533  0.00  0.00    -0.271 OA
BRANCH  21  22
ATOM     22  C   UNL d   1      45.672 -17.004  39.215  0.00  0.00     0.126 C 
BRANCH  22  23
ATOM     23  C   UNL d   1      46.097 -17.672  39.418  0.00  0.00     0.027 C 
ATOM     24  C   UNL d   1      46.019 -18.018  40.137  0.00  0.00     0.002 C 
ENDBRANCH  22  23
ENDBRANCH  21  22
ENDBRANCH  19  21
ENDBRANCH   1  19
BRANCH   4  25
ATOM     25  S   UNL d   1      42.389 -15.883  36.347  0.00  0.00    -0.062 SA
BRANCH  25  26
ATOM     26  C   UNL d   1      41.710 -15.732  36.765  0.00  0.00     0.105 C 
BRANCH  26  27
ATOM     27  C   UNL d   1      41.102 -16.293  36.758  0.00  0.00     0.307 C 
ATOM     28  O   UNL d   1      40.406 -16.150  37.168  0.00  0.00    -0.258 OA
BRANCH  27  29
ATOM     29  O   UNL d   1      41.205 -16.987  36.341  0.00  0.00    -0.271 OA
BRANCH  29  30
ATOM     30  C   UNL d   1      40.597 -17.532  36.331  0.00  0.00     0.126 C 
ATOM     31  C   UNL d   1      39.826 -17.282  36.401  0.00  0.00     0.029 C 
ENDBRANCH  29  30
ENDBRANCH  27  29
ENDBRANCH  26  27
ENDBRANCH  25  26
ENDBRANCH   4  25
TORSDOF 12
ENDMDL
MODEL 2
REMARK VINA RESULT:      64.2      2.229      4.554
REMARK  12 active torsions:
REMARK  status: ('A' for Active; 'I' for Inactive)
REMARK    1  A    between atoms: C_8  and  C_1 
REMARK    2  A    between atoms: C_9  and  C_2 
REMARK    3  A    between atoms: C_7  and  C_3 
REMARK    4  A    between atoms: S_10  and  C_4 
REMARK    5  A    between atoms: O_23  and  C_8 
REMARK    6  A    between atoms: C_20  and  S_10 
REMARK    7  A    between atoms: O_25  and  C_13 
REMARK    8  A    between atoms: C_14  and  C_20 
REMARK    9  A    between atoms: O_26  and  C_14 
REMARK   10  A    between atoms: C_21  and  C_28 
REMARK   11  A    between atoms: C_28  and  O_23 
REMARK   12  A    between atoms: C_29  and  O_26 
ROOT
ATOM      1  C   UNL d   1      43.635 -14.112  37.740  0.00  0.00     0.081 A 
ATOM      2  C   UNL d   1      44.694 -13.590  38.552  0.00  0.00     0.045 A 
ATOM      3  C   UNL d   1      44.441 -14.080  37.950  0.00  0.00     0.010 A 
ATOM      4  C   UNL d   1      44.153 -13.130  38.950  0.00  0.00     0.112 A 
ATOM      5  C   UNL d   1      43.106 -13.661  38.129  0.00  0.00     0.087 A 
ATOM      6  N   UNL d   1      43.357 -13.157  38.747  0.00  0.00    -0.239 NA
ATOM      7  C   UNL d   1      42.298 -13.721  37.887  0.00  0.00     0.021 C 
ENDROOT
BRANCH   3   8
ATOM      8  C   UNL d   1      44.990 -14.547  37.546  0.00  0.00     0.003 A 
ATOM      9  C   UNL d   1      44.978 -15.378  37.631  0.00  0.00     0.028 A 
ATOM     10  C   UNL d   1      45.527 -15.845  37.228  0.00  0.00     0.133 A 
ATOM     11  C   UNL d   1      46.082 -15.476  36.743  0.00  0.00     0.218 A 
ATOM     12  C   UNL d   1      46.090 -14.662  36.662  0.00  0.00     0.044 A 
ATOM     13  O   UNL d   1      46.635 -15.911  36.333  0.00  0.00    -0.284 OA
ATOM     14  C   UNL d   1      45.542 -14.195  37.065  0.00  0.00     0.003 A 
BRANCH  10  15
ATOM     15  O   UNL d   1      45.524 -16.684  37.307  0.00  0.00    -0.325 OA
ATOM     16  C   UNL d   1      45.428 -17.031  38.049  0.00  0.00     0.181 C 
ENDBRANCH  10  15
ENDBRANCH   3   8
BRANCH   2  17
ATOM     17  C   UNL d   1      45.504 -13.562  38.759  0.00  0.00     0.124 C 
ATOM     18  N   UNL d   1      45.991 -12.961  38.441  0.00  0.00    -0.146 N 
ENDBRANCH   2  17
BRANCH   1  19
ATOM     19  C   UNL d   1      43.342 -14.610  37.119  0.00  0.00     0.302 C 
ATOM     20  O   UNL d   1      43.649 -14.552  36.360  0.00  0.00    -0.259 OA
BRANCH  19  21
ATOM     21  O   UNL d   1      42.754 -15.144  37.290  0.00  0.00    -0.271 OA
BRANCH  21  22
ATOM     22  C   UNL d   1      42.284 -15.464  36.691  0.00  0.00     0.126 C 
BRANCH  22  23
ATOM     23  C   UNL d   1      41.638 -15.922  36.894  0.00  0.00     0.027 C 
ATOM     24  C   UNL d   1      41.480 -16.614  36.523  0.00  0.00     0.002 C 
ENDBRANCH  22  23
ENDBRANCH  21  22
ENDBRANCH  19  21
ENDBRANCH   1  19
BRANCH   4  25
ATOM     25  S   UNL d   1      44.362 -12.625  39.560  0.00  0.00    -0.062 SA
BRANCH  25  26
ATOM     26  C   UNL d   1      44.653 -12.937  40.250  0.00  0.00     0.105 C 
BRANCH  26  27
ATOM     27  C   UNL d   1      44.631 -12.478  40.938  0.00  0.00     0.307 C 
ATOM     28  O   UNL d   1      43.944 -12.082  41.147  0.00  0.00    -0.258 OA
BRANCH  27  29
ATOM     29  O   UNL d   1      45.300 -12.427  41.403  0.00  0.00    -0.271 OA
BRANCH  29  30
ATOM     30  C   UNL d   1      45.221 -12.180  42.177  0.00  0.00     0.126 C 
ATOM     31  C   UNL d   1      44.525 -12.313  42.577  0.00  0.00     0.029 C 
ENDBRANCH  29  30
ENDBRANCH  27  29
ENDBRANCH  26  27
ENDBRANCH  25  26
ENDBRANCH   4  25
TORSDOF 12
ENDMDL
