MODEL 1
REMARK VINA RESULT:      -7.2      0.000      0.000
REMARK  4 active torsions:
REMARK  status: ('A' for Active; 'I' for Inactive)
REMARK       I    between atoms: C_2  and  N_1 
REMARK    1  A    between atoms: C_4  and  C_2 
REMARK    2  A    between atoms: S_8  and  C_3 
REMARK    3  A    between atoms: O_12  and  C_7 
REMARK    4  A    between atoms: C_15  and  O_12 
ROOT
ATOM      1  C   UNL d   1      53.187  33.337  54.278  0.00  0.00     0.079 A 
ATOM      2  C   UNL d   1      53.581  32.610  54.193  0.00  0.00     0.105 A 
ATOM      3  C   UNL d   1      53.525  33.950  54.710  0.00  0.00     0.007 A 
ATOM      4  C   UNL d   1      54.319  32.514  54.550  0.00  0.00     0.025 A 
ATOM      5  C   UNL d   1      54.260  33.847  55.063  0.00  0.00     0.000 A 
ATOM      6  C   UNL d   1      54.652  33.135  54.983  0.00  0.00     0.002 A 
ENDROOT
BRANCH   1   7
ATOM      7  C   UNL d   1      52.447  33.443  53.923  0.00  0.00     0.268 C 
ATOM      8  N   UNL d   1      52.358  33.984  53.309  0.00  0.00    -0.251 N 
ATOM      9  C   UNL d   1      51.658  34.151  52.902  0.00  0.00     0.178 A 
ATOM     10  C   UNL d   1      52.961  34.456  52.991  0.00  0.00     0.106 A 
ATOM     11  N   UNL d   1      51.828  34.720  52.339  0.00  0.00    -0.219 NA
ATOM     12  C   UNL d   1      52.626  34.913  52.387  0.00  0.00     0.120 A 
ATOM     13  O   UNL d   1      51.799  33.006  54.189  0.00  0.00    -0.267 OA
BRANCH   9  14
ATOM     14  S   UNL d   1      50.930  33.802  53.046  0.00  0.00    -0.076 SA
ATOM     15  C   UNL d   1      50.245  34.096  52.687  0.00  0.00     0.077 C 
ENDBRANCH   9  14
ENDBRANCH   1   7
BRANCH   2  16
ATOM     16  O   UNL d   1      53.240  32.000  53.760  0.00  0.00    -0.305 OA
BRANCH  16  17
ATOM     17  C   UNL d   1      53.630  31.276  53.698  0.00  0.00     0.123 C 
ATOM     18  C   UNL d   1      53.294  30.671  53.270  0.00  0.00     0.029 C 
ENDBRANCH  16  17
ENDBRANCH   2  16
TORSDOF 4
ENDMDL
MODEL 2
REMARK VINA RESULT:      -7.0      1.453      2.909
REMARK  4 active torsions:
REMARK  status: ('A' for Active; 'I' for Inactive)
REMARK       I    between atoms: C_2  and  N_1 
REMARK    1  A    between atoms: C_4  and  C_2 
REMARK    2  A    between atoms: S_8  and  C_3 
REMARK    3  A    between atoms: O_12  and  C_7 
REMARK    4  A    between atoms: C_15  and  O_12 
ROOT
ATOM      1  C   UNL d   1      52.745  33.699  53.866  0.00  0.00     0.079 A 
ATOM      2  C   UNL d   1      52.323  34.229  53.385  0.00  0.00     0.105 A 
ATOM      3  C   UNL d   1      53.189  33.973  54.503  0.00  0.00     0.007 A 
ATOM      4  C   UNL d   1      52.356  35.036  53.557  0.00  0.00     0.025 A 
ATOM      5  C   UNL d   1      53.217  34.776  54.669  0.00  0.00     0.000 A 
ATOM      6  C   UNL d   1      52.804  35.302  54.200  0.00  0.00     0.002 A 
ENDROOT
BRANCH   1   7
ATOM      7  C   UNL d   1      52.719  32.889  53.702  0.00  0.00     0.268 C 
ATOM      8  N   UNL d   1      53.412  32.479  53.535  0.00  0.00    -0.251 N 
ATOM      9  C   UNL d   1      53.475  31.673  53.361  0.00  0.00     0.178 A 
ATOM     10  C   UNL d   1      54.174  32.808  53.513  0.00  0.00     0.106 A 
ATOM     11  N   UNL d   1      54.266  31.507  53.233  0.00  0.00    -0.219 NA
ATOM     12  C   UNL d   1      54.701  32.198  53.324  0.00  0.00     0.120 A 
ATOM     13  O   UNL d   1      51.994  32.494  53.706  0.00  0.00    -0.267 OA
BRANCH   9  14
ATOM     14  S   UNL d   1      52.848  31.145  53.326  0.00  0.00    -0.076 SA
ATOM     15  C   UNL d   1      52.980  30.348  53.145  0.00  0.00     0.077 C 
ENDBRANCH   9  14
ENDBRANCH   1   7
BRANCH   2  16
ATOM     16  O   UNL d   1      51.881  33.952  52.749  0.00  0.00    -0.305 OA
BRANCH  16  17
ATOM     17  C   UNL d   1      51.405  34.475  52.325  0.00  0.00     0.123 C 
ATOM     18  C   UNL d   1      50.960  34.201  51.702  0.00  0.00     0.029 C 
ENDBRANCH  16  17
ENDBRANCH   2  16
TORSDOF 4
ENDMDL
MODEL 3
REMARK VINA RESULT:      -7.0      1.527      2.919
REMARK  4 active torsions:
REMARK  status: ('A' for Active; 'I' for Inactive)
REMARK       I    between atoms: C_2  and  N_1 
REMARK    1  A    between atoms: C_4  and  C_2 
REMARK    2  A    between atoms: S_8  and  C_3 
REMARK    3  A    between atoms: O_12  and  C_7 
REMARK    4  A    between atoms: C_15  and  O_12 
ROOT
ATOM      1  C   UNL d   1      52.722  33.623  53.159  0.00  0.00     0.079 A 
ATOM      2  C   UNL d   1      52.347  32.911  52.950  0.00  0.00     0.105 A 
ATOM      3  C   UNL d   1      52.401  34.347  52.936  0.00  0.00     0.007 A 
ATOM      4  C   UNL d   1      51.647  32.944  52.514  0.00  0.00     0.025 A 
ATOM      5  C   UNL d   1      51.704  34.372  52.502  0.00  0.00     0.000 A 
ATOM      6  C   UNL d   1      51.331  33.676  52.294  0.00  0.00     0.002 A 
ENDROOT
BRANCH   1   7
ATOM      7  C   UNL d   1      53.424  33.602  53.595  0.00  0.00     0.268 C 
ATOM      8  N   UNL d   1      53.478  34.007  54.310  0.00  0.00    -0.251 N 
ATOM      9  C   UNL d   1      54.139  34.038  54.806  0.00  0.00     0.178 A 
ATOM     10  C   UNL d   1      52.873  34.458  54.656  0.00  0.00     0.106 A 
ATOM     11  N   UNL d   1      53.943  34.503  55.451  0.00  0.00    -0.219 NA
ATOM     12  C   UNL d   1      53.169  34.764  55.366  0.00  0.00     0.120 A 
ATOM     13  O   UNL d   1      54.069  33.172  53.312  0.00  0.00    -0.267 OA
BRANCH   9  14
ATOM     14  S   UNL d   1      54.856  33.665  54.666  0.00  0.00    -0.076 SA
ATOM     15  C   UNL d   1      55.485  33.752  55.196  0.00  0.00     0.077 C 
ENDBRANCH   9  14
ENDBRANCH   1   7
BRANCH   2  16
ATOM     16  O   UNL d   1      52.671  32.190  53.174  0.00  0.00    -0.305 OA
BRANCH  16  17
ATOM     17  C   UNL d   1      52.331  31.489  52.904  0.00  0.00     0.123 C 
ATOM     18  C   UNL d   1      52.673  30.775  53.091  0.00  0.00     0.029 C 
ENDBRANCH  16  17
ENDBRANCH   2  16
TORSDOF 4
ENDMDL
MODEL 4
REMARK VINA RESULT:      -7.0      1.800      3.420
REMARK  4 active torsions:
REMARK  status: ('A' for Active; 'I' for Inactive)
REMARK       I    between atoms: C_2  and  N_1 
REMARK    1  A    between atoms: C_4  and  C_2 
REMARK    2  A    between atoms: S_8  and  C_3 
REMARK    3  A    between atoms: O_12  and  C_7 
REMARK    4  A    between atoms: C_15  and  O_12 
ROOT
ATOM      1  C   UNL d   1      53.542  31.951  53.418  0.00  0.00     0.079 A 
ATOM      2  C   UNL d   1      52.828  32.173  53.055  0.00  0.00     0.105 A 
ATOM      3  C   UNL d   1      53.725  31.157  53.534  0.00  0.00     0.007 A 
ATOM      4  C   UNL d   1      52.304  31.581  52.814  0.00  0.00     0.025 A 
ATOM      5  C   UNL d   1      53.200  30.575  53.291  0.00  0.00     0.000 A 
ATOM      6  C   UNL d   1      52.496  30.786  52.935  0.00  0.00     0.002 A 
ENDROOT
BRANCH   1   7
ATOM      7  C   UNL d   1      54.073  32.536  53.663  0.00  0.00     0.268 C 
ATOM      8  N   UNL d   1      54.186  32.680  54.466  0.00  0.00    -0.251 N 
ATOM      9  C   UNL d   1      54.695  33.242  54.795  0.00  0.00     0.178 A 
ATOM     10  C   UNL d   1      53.805  32.281  55.086  0.00  0.00     0.106 A 
ATOM     11  N   UNL d   1      54.628  33.190  55.610  0.00  0.00    -0.219 NA
ATOM     12  C   UNL d   1      54.084  32.603  55.795  0.00  0.00     0.120 A 
ATOM     13  O   UNL d   1      54.489  32.973  53.100  0.00  0.00    -0.267 OA
BRANCH   9  14
ATOM     14  S   UNL d   1      55.175  33.754  54.371  0.00  0.00    -0.076 SA
ATOM     15  C   UNL d   1      55.702  34.258  54.764  0.00  0.00     0.077 C 
ENDBRANCH   9  14
ENDBRANCH   1   7
BRANCH   2  16
ATOM     16  O   UNL d   1      52.648  32.967  52.941  0.00  0.00    -0.305 OA
BRANCH  16  17
ATOM     17  C   UNL d   1      51.915  33.178  52.628  0.00  0.00     0.123 C 
ATOM     18  C   UNL d   1      51.716  33.964  52.561  0.00  0.00     0.029 C 
ENDBRANCH  16  17
ENDBRANCH   2  16
TORSDOF 4
ENDMDL
MODEL 5
REMARK VINA RESULT:      -6.7      1.579      2.883
REMARK  4 active torsions:
REMARK  status: ('A' for Active; 'I' for Inactive)
REMARK       I    between atoms: C_2  and  N_1 
REMARK    1  A    between atoms: C_4  and  C_2 
REMARK    2  A    between atoms: S_8  and  C_3 
REMARK    3  A    between atoms: O_12  and  C_7 
REMARK    4  A    between atoms: C_15  and  O_12 
ROOT
ATOM      1  C   UNL d   1      53.076  33.563  53.411  0.00  0.00     0.079 A 
ATOM      2  C   UNL d   1      53.432  33.934  54.064  0.00  0.00     0.105 A 
ATOM      3  C   UNL d   1      52.582  33.985  52.906  0.00  0.00     0.007 A 
ATOM      4  C   UNL d   1      53.280  34.734  54.198  0.00  0.00     0.025 A 
ATOM      5  C   UNL d   1      52.436  34.781  53.045  0.00  0.00     0.000 A 
ATOM      6  C   UNL d   1      52.782  35.151  53.686  0.00  0.00     0.002 A 
ENDROOT
BRANCH   1   7
ATOM      7  C   UNL d   1      53.222  32.761  53.268  0.00  0.00     0.268 C 
ATOM      8  N   UNL d   1      52.597  32.226  53.245  0.00  0.00    -0.251 N 
ATOM      9  C   UNL d   1      52.653  31.413  53.109  0.00  0.00     0.178 A 
ATOM     10  C   UNL d   1      51.796  32.415  53.357  0.00  0.00     0.106 A 
ATOM     11  N   UNL d   1      51.896  31.103  53.136  0.00  0.00    -0.219 NA
ATOM     12  C   UNL d   1      51.365  31.712  53.288  0.00  0.00     0.120 A 
ATOM     13  O   UNL d   1      53.996  32.501  53.148  0.00  0.00    -0.267 OA
BRANCH   9  14
ATOM     14  S   UNL d   1      53.350  31.002  52.973  0.00  0.00    -0.076 SA
ATOM     15  C   UNL d   1      53.370  30.177  53.037  0.00  0.00     0.077 C 
ENDBRANCH   9  14
ENDBRANCH   1   7
BRANCH   2  16
ATOM     16  O   UNL d   1      53.925  33.508  54.566  0.00  0.00    -0.305 OA
BRANCH  16  17
ATOM     17  C   UNL d   1      54.298  33.893  55.193  0.00  0.00     0.123 C 
ATOM     18  C   UNL d   1      54.834  33.490  55.653  0.00  0.00     0.029 C 
ENDBRANCH  16  17
ENDBRANCH   2  16
TORSDOF 4
ENDMDL
MODEL 6
REMARK VINA RESULT:      -6.6      1.174      2.251
REMARK  4 active torsions:
REMARK  status: ('A' for Active; 'I' for Inactive)
REMARK       I    between atoms: C_2  and  N_1 
REMARK    1  A    between atoms: C_4  and  C_2 
REMARK    2  A    between atoms: S_8  and  C_3 
REMARK    3  A    between atoms: O_12  and  C_7 
REMARK    4  A    between atoms: C_15  and  O_12 
ROOT
ATOM      1  C   UNL d   1      53.008  31.948  53.223  0.00  0.00     0.079 A 
ATOM      2  C   UNL d   1      53.553  31.909  53.850  0.00  0.00     0.105 A 
ATOM      3  C   UNL d   1      52.751  31.263  52.847  0.00  0.00     0.007 A 
ATOM      4  C   UNL d   1      53.832  31.169  54.088  0.00  0.00     0.025 A 
ATOM      5  C   UNL d   1      53.032  30.531  53.090  0.00  0.00     0.000 A 
ATOM      6  C   UNL d   1      53.568  30.485  53.705  0.00  0.00     0.002 A 
ENDROOT
BRANCH   1   7
ATOM      7  C   UNL d   1      52.722  32.684  52.977  0.00  0.00     0.268 C 
ATOM      8  N   UNL d   1      51.928  32.874  53.080  0.00  0.00    -0.251 N 
ATOM      9  C   UNL d   1      51.563  33.583  52.863  0.00  0.00     0.178 A 
ATOM     10  C   UNL d   1      51.355  32.381  53.422  0.00  0.00     0.106 A 
ATOM     11  N   UNL d   1      50.772  33.528  53.069  0.00  0.00    -0.219 NA
ATOM     12  C   UNL d   1      50.637  32.793  53.412  0.00  0.00     0.120 A 
ATOM     13  O   UNL d   1      53.237  33.227  52.627  0.00  0.00    -0.267 OA
BRANCH   9  14
ATOM     14  S   UNL d   1      51.936  34.220  52.506  0.00  0.00    -0.076 SA
ATOM     15  C   UNL d   1      51.500  34.881  52.263  0.00  0.00     0.077 C 
ENDBRANCH   9  14
ENDBRANCH   1   7
BRANCH   2  16
ATOM     16  O   UNL d   1      53.808  32.596  54.223  0.00  0.00    -0.305 OA
BRANCH  16  17
ATOM     17  C   UNL d   1      54.298  32.542  54.884  0.00  0.00     0.123 C 
ATOM     18  C   UNL d   1      54.557  33.221  55.250  0.00  0.00     0.029 C 
ENDBRANCH  16  17
ENDBRANCH   2  16
TORSDOF 4
ENDMDL
