MODEL 1
REMARK VINA RESULT:      -3.3      0.000      0.000
REMARK  4 active torsions:
REMARK  status: ('A' for Active; 'I' for Inactive)
REMARK    1  A    between atoms: C_8  and  N_2 
REMARK    2  A    between atoms: C_7  and  O_14 
REMARK    3  A    between atoms: C_15  and  C_8 
REMARK    4  A    between atoms: O_14  and  C_15 
ROOT
ATOM      1  C   UNL d   1      33.177  20.772 -22.280  0.00  0.00     0.108 C 
ENDROOT
BRANCH   1   2
ATOM      2  N   UNL d   1      32.809  21.226 -21.689  0.00  0.00    -0.285 N 
ATOM      3  C   UNL d   1      32.474  20.947 -20.927  0.00  0.00     0.183 A 
ATOM      4  N   UNL d   1      32.163  21.672 -20.536  0.00  0.00    -0.224 NA
ATOM      5  C   UNL d   1      32.291  22.343 -21.010  0.00  0.00     0.099 A 
ATOM      6  C   UNL d   1      32.690  22.100 -21.732  0.00  0.00     0.083 A 
ATOM      7  C   UNL d   1      32.115  23.097 -20.900  0.00  0.00     0.021 A 
ATOM      8  C   UNL d   1      32.881  22.632 -22.287  0.00  0.00     0.019 A 
ATOM      9  C   UNL d   1      32.680  23.462 -22.151  0.00  0.00     0.002 A 
ATOM     10  C   UNL d   1      32.298  23.694 -21.459  0.00  0.00     0.002 A 
ENDBRANCH   1   2
BRANCH   1  11
ATOM     11  C   UNL d   1      33.033  19.976 -22.354  0.00  0.00     0.142 C 
BRANCH  11  12
ATOM     12  O   UNL d   1      33.235  19.587 -23.055  0.00  0.00    -0.304 OA
BRANCH  12  13
ATOM     13  C   UNL d   1      32.981  18.808 -23.195  0.00  0.00     0.100 A 
ATOM     14  C   UNL d   1      32.460  18.657 -23.815  0.00  0.00     0.026 A 
ATOM     15  C   UNL d   1      32.192  17.904 -23.979  0.00  0.00     0.013 A 
ATOM     16  C   UNL d   1      32.447  17.250 -23.508  0.00  0.00     0.058 A 
ATOM     17  C   UNL d   1      32.977  17.414 -22.879  0.00  0.00     0.013 A 
ATOM     18 CL   UNL d   1      32.165  16.473 -23.685  0.00  0.00    -0.082 Cl
ATOM     19  C   UNL d   1      33.236  18.177 -22.729  0.00  0.00     0.026 A 
ENDBRANCH  12  13
ENDBRANCH  11  12
ENDBRANCH   1  11
TORSDOF 4
ENDMDL
MODEL 2
REMARK VINA RESULT:      -3.2      2.182      4.960
REMARK  4 active torsions:
REMARK  status: ('A' for Active; 'I' for Inactive)
REMARK    1  A    between atoms: C_8  and  N_2 
REMARK    2  A    between atoms: C_7  and  O_14 
REMARK    3  A    between atoms: C_15  and  C_8 
REMARK    4  A    between atoms: O_14  and  C_15 
ROOT
ATOM      1  C   UNL d   1      33.033  19.134 -22.697  0.00  0.00     0.108 C 
ENDROOT
BRANCH   1   2
ATOM      2  N   UNL d   1      32.931  18.851 -23.472  0.00  0.00    -0.285 N 
ATOM      3  C   UNL d   1      33.056  19.286 -24.224  0.00  0.00     0.183 A 
ATOM      4  N   UNL d   1      32.862  18.706 -24.857  0.00  0.00    -0.224 NA
ATOM      5  C   UNL d   1      32.636  17.975 -24.531  0.00  0.00     0.099 A 
ATOM      6  C   UNL d   1      32.668  18.032 -23.673  0.00  0.00     0.083 A 
ATOM      7  C   UNL d   1      32.417  17.303 -24.866  0.00  0.00     0.021 A 
ATOM      8  C   UNL d   1      32.479  17.412 -23.219  0.00  0.00     0.019 A 
ATOM      9  C   UNL d   1      32.239  16.675 -23.603  0.00  0.00     0.002 A 
ATOM     10  C   UNL d   1      32.208  16.621 -24.425  0.00  0.00     0.002 A 
ENDBRANCH   1   2
BRANCH   1  11
ATOM     11  C   UNL d   1      32.982  19.926 -22.525  0.00  0.00     0.142 C 
BRANCH  11  12
ATOM     12  O   UNL d   1      33.099  20.185 -21.749  0.00  0.00    -0.304 OA
BRANCH  12  13
ATOM     13  C   UNL d   1      32.897  20.960 -21.526  0.00  0.00     0.100 A 
ATOM     14  C   UNL d   1      32.337  21.077 -20.933  0.00  0.00     0.026 A 
ATOM     15  C   UNL d   1      32.117  21.825 -20.691  0.00  0.00     0.013 A 
ATOM     16  C   UNL d   1      32.463  22.508 -21.049  0.00  0.00     0.058 A 
ATOM     17  C   UNL d   1      33.031  22.378 -21.652  0.00  0.00     0.013 A 
ATOM     18 CL   UNL d   1      32.229  23.279 -20.793  0.00  0.00    -0.082 Cl
ATOM     19  C   UNL d   1      33.241  21.620 -21.883  0.00  0.00     0.026 A 
ENDBRANCH  12  13
ENDBRANCH  11  12
ENDBRANCH   1  11
TORSDOF 4
ENDMDL
MODEL 3
REMARK VINA RESULT:      -2.8      0.695      1.299
REMARK  4 active torsions:
REMARK  status: ('A' for Active; 'I' for Inactive)
REMARK    1  A    between atoms: C_8  and  N_2 
REMARK    2  A    between atoms: C_7  and  O_14 
REMARK    3  A    between atoms: C_15  and  C_8 
REMARK    4  A    between atoms: O_14  and  C_15 
ROOT
ATOM      1  C   UNL d   1      32.979  20.317 -21.822  0.00  0.00     0.108 C 
ENDROOT
BRANCH   1   2
ATOM      2  N   UNL d   1      32.985  21.136 -21.964  0.00  0.00    -0.285 N 
ATOM      3  C   UNL d   1      33.241  21.553 -22.693  0.00  0.00     0.183 A 
ATOM      4  N   UNL d   1      33.123  22.408 -22.519  0.00  0.00    -0.224 NA
ATOM      5  C   UNL d   1      32.822  22.516 -21.751  0.00  0.00     0.099 A 
ATOM      6  C   UNL d   1      32.725  21.746 -21.380  0.00  0.00     0.083 A 
ATOM      7  C   UNL d   1      32.632  23.163 -21.355  0.00  0.00     0.021 A 
ATOM      8  C   UNL d   1      32.445  21.684 -20.642  0.00  0.00     0.019 A 
ATOM      9  C   UNL d   1      32.239  22.408 -20.216  0.00  0.00     0.002 A 
ATOM     10  C   UNL d   1      32.332  23.145 -20.571  0.00  0.00     0.002 A 
ENDBRANCH   1   2
BRANCH   1  11
ATOM     11  C   UNL d   1      33.011  19.781 -22.432  0.00  0.00     0.142 C 
BRANCH  11  12
ATOM     12  O   UNL d   1      33.190  18.990 -22.273  0.00  0.00    -0.304 OA
BRANCH  12  13
ATOM     13  C   UNL d   1      32.999  18.394 -22.820  0.00  0.00     0.100 A 
ATOM     14  C   UNL d   1      33.241  17.620 -22.676  0.00  0.00     0.026 A 
ATOM     15  C   UNL d   1      33.069  17.012 -23.193  0.00  0.00     0.013 A 
ATOM     16  C   UNL d   1      32.632  17.165 -23.900  0.00  0.00     0.058 A 
ATOM     17  C   UNL d   1      32.391  17.956 -24.038  0.00  0.00     0.013 A 
ATOM     18 CL   UNL d   1      32.459  16.530 -24.430  0.00  0.00    -0.082 Cl
ATOM     19  C   UNL d   1      32.572  18.555 -23.507  0.00  0.00     0.026 A 
ENDBRANCH  12  13
ENDBRANCH  11  12
ENDBRANCH   1  11
TORSDOF 4
ENDMDL
MODEL 4
REMARK VINA RESULT:      -2.3      2.279      4.788
REMARK  4 active torsions:
REMARK  status: ('A' for Active; 'I' for Inactive)
REMARK    1  A    between atoms: C_8  and  N_2 
REMARK    2  A    between atoms: C_7  and  O_14 
REMARK    3  A    between atoms: C_15  and  C_8 
REMARK    4  A    between atoms: O_14  and  C_15 
ROOT
ATOM      1  C   UNL d   1      32.899  20.393 -22.645  0.00  0.00     0.108 C 
ENDROOT
BRANCH   1   2
ATOM      2  N   UNL d   1      33.012  19.570 -22.656  0.00  0.00    -0.285 N 
ATOM      3  C   UNL d   1      33.175  19.040 -21.975  0.00  0.00     0.183 A 
ATOM      4  N   UNL d   1      33.241  18.234 -22.324  0.00  0.00    -0.224 NA
ATOM      5  C   UNL d   1      33.129  18.258 -23.148  0.00  0.00     0.099 A 
ATOM      6  C   UNL d   1      32.985  19.072 -23.385  0.00  0.00     0.083 A 
ATOM      7  C   UNL d   1      33.137  17.693 -23.688  0.00  0.00     0.021 A 
ATOM      8  C   UNL d   1      32.860  19.256 -24.145  0.00  0.00     0.019 A 
ATOM      9  C   UNL d   1      32.871  18.620 -24.732  0.00  0.00     0.002 A 
ATOM     10  C   UNL d   1      33.009  17.841 -24.504  0.00  0.00     0.002 A 
ENDBRANCH   1   2
BRANCH   1  11
ATOM     11  C   UNL d   1      32.986  20.824 -21.962  0.00  0.00     0.142 C 
BRANCH  11  12
ATOM     12  O   UNL d   1      32.704  21.600 -21.928  0.00  0.00    -0.304 OA
BRANCH  12  13
ATOM     13  C   UNL d   1      32.722  22.026 -21.214  0.00  0.00     0.100 A 
ATOM     14  C   UNL d   1      32.217  22.670 -21.115  0.00  0.00     0.026 A 
ATOM     15  C   UNL d   1      32.210  23.109 -20.427  0.00  0.00     0.013 A 
ATOM     16  C   UNL d   1      32.729  22.910 -19.790  0.00  0.00     0.058 A 
ATOM     17  C   UNL d   1      33.239  22.253 -19.901  0.00  0.00     0.013 A 
ATOM     18 CL   UNL d   1      32.715  23.371 -19.081  0.00  0.00    -0.082 Cl
ATOM     19  C   UNL d   1      33.232  21.823 -20.599  0.00  0.00     0.026 A 
ENDBRANCH  12  13
ENDBRANCH  11  12
ENDBRANCH   1  11
TORSDOF 4
ENDMDL
MODEL 5
REMARK VINA RESULT:      -2.3      2.503      5.168
REMARK  4 active torsions:
REMARK  status: ('A' for Active; 'I' for Inactive)
REMARK    1  A    between atoms: C_8  and  N_2 
REMARK    2  A    between atoms: C_7  and  O_14 
REMARK    3  A    between atoms: C_15  and  C_8 
REMARK    4  A    between atoms: O_14  and  C_15 
ROOT
ATOM      1  C   UNL d   1      32.417  18.080 -23.855  0.00  0.00     0.108 C 
ENDROOT
BRANCH   1   2
ATOM      2  N   UNL d   1      32.199  17.281 -23.923  0.00  0.00    -0.285 N 
ATOM      3  C   UNL d   1      32.645  16.576 -23.651  0.00  0.00     0.183 A 
ATOM      4  N   UNL d   1      32.142  15.888 -23.873  0.00  0.00    -0.224 NA
ATOM      5  C   UNL d   1      31.445  16.140 -24.250  0.00  0.00     0.099 A 
ATOM      6  C   UNL d   1      31.449  16.999 -24.297  0.00  0.00     0.083 A 
ATOM      7  C   UNL d   1      30.840  15.740 -24.542  0.00  0.00     0.021 A 
ATOM      8  C   UNL d   1      30.848  17.389 -24.632  0.00  0.00     0.019 A 
ATOM      9  C   UNL d   1      30.185  16.934 -24.950  0.00  0.00     0.002 A 
ATOM     10  C   UNL d   1      30.181  16.111 -24.906  0.00  0.00     0.002 A 
ENDBRANCH   1   2
BRANCH   1  11
ATOM     11  C   UNL d   1      32.816  18.356 -23.203  0.00  0.00     0.142 C 
BRANCH  11  12
ATOM     12  O   UNL d   1      33.241  19.063 -23.251  0.00  0.00    -0.304 OA
BRANCH  12  13
ATOM     13  C   UNL d   1      33.230  19.608 -22.624  0.00  0.00     0.100 A 
ATOM     14  C   UNL d   1      33.208  20.415 -22.790  0.00  0.00     0.026 A 
ATOM     15  C   UNL d   1      33.196  20.976 -22.197  0.00  0.00     0.013 A 
ATOM     16  C   UNL d   1      33.206  20.738 -21.386  0.00  0.00     0.058 A 
ATOM     17  C   UNL d   1      33.229  19.914 -21.228  0.00  0.00     0.013 A 
ATOM     18 CL   UNL d   1      33.194  21.325 -20.778  0.00  0.00    -0.082 Cl
ATOM     19  C   UNL d   1      33.240  19.365 -21.836  0.00  0.00     0.026 A 
ENDBRANCH  12  13
ENDBRANCH  11  12
ENDBRANCH   1  11
TORSDOF 4
ENDMDL
MODEL 6
REMARK VINA RESULT:      -1.4      3.399      5.519
REMARK  4 active torsions:
REMARK  status: ('A' for Active; 'I' for Inactive)
REMARK    1  A    between atoms: C_8  and  N_2 
REMARK    2  A    between atoms: C_7  and  O_14 
REMARK    3  A    between atoms: C_15  and  C_8 
REMARK    4  A    between atoms: O_14  and  C_15 
ROOT
ATOM      1  C   UNL d   1      32.217  22.828 -20.321  0.00  0.00     0.108 C 
ENDROOT
BRANCH   1   2
ATOM      2  N   UNL d   1      32.530  22.672 -21.075  0.00  0.00    -0.285 N 
ATOM      3  C   UNL d   1      32.733  23.250 -21.703  0.00  0.00     0.183 A 
ATOM      4  N   UNL d   1      33.038  22.763 -22.371  0.00  0.00    -0.224 NA
ATOM      5  C   UNL d   1      33.026  21.954 -22.177  0.00  0.00     0.099 A 
ATOM      6  C   UNL d   1      32.716  21.864 -21.380  0.00  0.00     0.083 A 
ATOM      7  C   UNL d   1      33.238  21.321 -22.584  0.00  0.00     0.021 A 
ATOM      8  C   UNL d   1      32.643  21.147 -21.053  0.00  0.00     0.019 A 
ATOM      9  C   UNL d   1      32.882  20.455 -21.514  0.00  0.00     0.002 A 
ATOM     10  C   UNL d   1      33.179  20.542 -22.278  0.00  0.00     0.002 A 
ENDBRANCH   1   2
BRANCH   1  11
ATOM     11  C   UNL d   1      32.696  22.888 -19.668  0.00  0.00     0.142 C 
BRANCH  11  12
ATOM     12  O   UNL d   1      32.553  23.478 -19.107  0.00  0.00    -0.304 OA
BRANCH  12  13
ATOM     13  C   UNL d   1      32.623  23.316 -18.295  0.00  0.00     0.100 A 
ATOM     14  C   UNL d   1      32.122  23.695 -17.762  0.00  0.00     0.026 A 
ATOM     15  C   UNL d   1      32.165  23.558 -16.958  0.00  0.00     0.013 A 
ATOM     16  C   UNL d   1      32.735  23.016 -16.649  0.00  0.00     0.058 A 
ATOM     17  C   UNL d   1      33.241  22.636 -17.199  0.00  0.00     0.013 A 
ATOM     18 CL   UNL d   1      32.773  22.881 -15.815  0.00  0.00    -0.082 Cl
ATOM     19  C   UNL d   1      33.183  22.785 -18.003  0.00  0.00     0.026 A 
ENDBRANCH  12  13
ENDBRANCH  11  12
ENDBRANCH   1  11
TORSDOF 4
ENDMDL
