MODEL 1
REMARK VINA RESULT:      55.5      0.000      0.000
REMARK  6 active torsions:
REMARK  status: ('A' for Active; 'I' for Inactive)
REMARK    1  A    between atoms: C_8  and  C_1 
REMARK    2  A    between atoms: S_10  and  C_2 
REMARK    3  A    between atoms: C_7  and  C_4 
REMARK    4  A    between atoms: C_23  and  S_10 
REMARK    5  A    between atoms: C_16  and  C_23 
REMARK    6  A    between atoms: O_25  and  C_16 
ROOT
ATOM      1  C   UNL d   1     -51.241  26.153  33.555  0.00  0.00     0.045 A 
ATOM      2  C   UNL d   1     -50.559  26.678  33.576  0.00  0.00     0.112 A 
ATOM      3  C   UNL d   1     -50.352  25.032  33.436  0.00  0.00     0.057 A 
ATOM      4  C   UNL d   1     -51.120  25.340  33.485  0.00  0.00     0.008 A 
ATOM      5  C   UNL d   1     -49.697  25.537  33.457  0.00  0.00     0.085 A 
ATOM      6  N   UNL d   1     -49.802  26.355  33.527  0.00  0.00    -0.239 NA
ATOM      7  C   UNL d   1     -50.252  24.218  33.367  0.00  0.00     0.197 A 
ATOM      8  O   UNL d   1     -50.911  23.710  33.347  0.00  0.00    -0.286 OA
ATOM      9  C   UNL d   1     -48.934  25.233  33.408  0.00  0.00     0.019 A 
ATOM     10  C   UNL d   1     -49.494  23.894  33.317  0.00  0.00     0.042 A 
ATOM     11  C   UNL d   1     -48.813  24.419  33.339  0.00  0.00     0.005 A 
ENDROOT
BRANCH   4  12
ATOM     12  C   UNL d   1     -51.779  24.833  33.465  0.00  0.00     0.002 A 
ATOM     13  C   UNL d   1     -52.541  25.138  33.395  0.00  0.00     0.026 A 
ATOM     14  C   UNL d   1     -53.195  24.634  33.374  0.00  0.00     0.119 A 
ATOM     15  O   UNL d   1     -54.014  24.776  33.308  0.00  0.00    -0.300 OA
ATOM     16  C   UNL d   1     -53.093  23.822  33.424  0.00  0.00     0.119 A 
ATOM     17  C   UNL d   1     -54.395  24.062  33.319  0.00  0.00     0.304 A 
ATOM     18  O   UNL d   1     -53.841  23.477  33.389  0.00  0.00    -0.300 OA
ATOM     19  C   UNL d   1     -52.291  23.491  33.498  0.00  0.00     0.026 A 
ATOM     20  C   UNL d   1     -51.654  24.009  33.517  0.00  0.00     0.002 A 
ENDBRANCH   4  12
BRANCH   1  21
ATOM     21  C   UNL d   1     -52.041  26.450  33.604  0.00  0.00     0.124 C 
ATOM     22  N   UNL d   1     -52.174  27.241  33.755  0.00  0.00    -0.146 N 
ENDBRANCH   1  21
BRANCH   2  23
ATOM     23  S   UNL d   1     -50.643  27.526  33.648  0.00  0.00    -0.062 SA
BRANCH  23  24
ATOM     24  C   UNL d   1     -49.987  28.007  33.572  0.00  0.00     0.105 C 
BRANCH  24  25
ATOM     25  C   UNL d   1     -49.994  28.764  33.896  0.00  0.00     0.303 C 
ATOM     26  O   UNL d   1     -49.401  28.996  34.416  0.00  0.00    -0.259 OA
BRANCH  25  27
ATOM     27  O   UNL d   1     -50.595  29.290  33.701  0.00  0.00    -0.295 OA
ATOM     28  C   UNL d   1     -50.432  29.996  33.306  0.00  0.00     0.185 C 
ENDBRANCH  25  27
ENDBRANCH  24  25
ENDBRANCH  23  24
ENDBRANCH   2  23
TORSDOF 6
ENDMDL
