MODEL 1
REMARK VINA RESULT:     -11.4      0.000      0.000
REMARK  1 active torsions:
REMARK  status: ('A' for Active; 'I' for Inactive)
REMARK    1  A    between atoms: C_12  and  N_1 
ROOT
ATOM      1  N   UNL d   1     -47.476  13.216  22.904  0.00  0.00    -0.244 N 
ATOM      2  C   UNL d   1     -47.809  13.945  22.956  0.00  0.00     0.251 A 
ATOM      3  C   UNL d   1     -48.116  12.707  23.052  0.00  0.00     0.260 A 
ATOM      4  C   UNL d   1     -48.785  13.123  23.181  0.00  0.00     0.033 A 
ATOM      5  C   UNL d   1     -48.596  13.897  23.122  0.00  0.00     0.125 A 
ATOM      6  C   UNL d   1     -50.999  13.788  23.629  0.00  0.00     0.068 A 
ATOM      7  C   UNL d   1     -49.383  13.692  23.292  0.00  0.00    -0.010 A 
ATOM      8  C   UNL d   1     -49.807  13.008  23.399  0.00  0.00    -0.007 A 
ATOM      9  C   UNL d   1     -50.613  13.060  23.567  0.00  0.00    -0.015 A 
ATOM     10  C   UNL d   1     -50.539  14.463  23.515  0.00  0.00    -0.015 A 
ATOM     11  C   UNL d   1     -49.736  14.417  23.348  0.00  0.00    -0.007 A 
ATOM     12  O   UNL d   1     -47.438  14.481  22.864  0.00  0.00    -0.271 OA
ATOM     13  O   UNL d   1     -47.986  12.023  23.042  0.00  0.00    -0.267 OA
ATOM     14  C   UNL d   1     -49.297  15.102  23.238  0.00  0.00    -0.001 A 
ATOM     15  C   UNL d   1     -49.440  12.281  23.341  0.00  0.00    -0.001 A 
ATOM     16  C   UNL d   1     -51.064  12.361  23.679  0.00  0.00    -0.004 A 
ATOM     17  C   UNL d   1     -50.905  15.196  23.573  0.00  0.00    -0.004 A 
ATOM     18  C   UNL d   1     -49.677  15.838  23.299  0.00  0.00    -0.000 A 
ATOM     19  C   UNL d   1     -49.897  11.575  23.455  0.00  0.00    -0.000 A 
ATOM     20  C   UNL d   1     -50.707  11.627  23.623  0.00  0.00    -0.000 A 
ATOM     21  C   UNL d   1     -50.463  15.879  23.463  0.00  0.00    -0.000 A 
ENDROOT
BRANCH   1  22
ATOM     22  C   UNL d   1     -46.651  13.030  22.736  0.00  0.00     0.089 A 
ATOM     23  C   UNL d   1     -46.187  12.582  23.312  0.00  0.00     0.117 A 
ATOM     24  N   UNL d   1     -45.351  12.392  23.147  0.00  0.00    -0.241 NA
ATOM     25  C   UNL d   1     -44.978  12.654  22.397  0.00  0.00     0.099 A 
ATOM     26  C   UNL d   1     -45.448  13.102  21.825  0.00  0.00     0.022 A 
ATOM     27  C   UNL d   1     -46.289  13.291  21.996  0.00  0.00     0.021 A 
ENDBRANCH   1  22
TORSDOF 1
ENDMDL
MODEL 2
REMARK VINA RESULT:     -10.8      0.417      2.210
REMARK  1 active torsions:
REMARK  status: ('A' for Active; 'I' for Inactive)
REMARK    1  A    between atoms: C_12  and  N_1 
ROOT
ATOM      1  N   UNL d   1     -47.171  13.045  22.783  0.00  0.00    -0.244 N 
ATOM      2  C   UNL d   1     -47.744  12.509  22.955  0.00  0.00     0.251 A 
ATOM      3  C   UNL d   1     -47.579  13.769  22.804  0.00  0.00     0.260 A 
ATOM      4  C   UNL d   1     -48.349  13.655  22.979  0.00  0.00     0.033 A 
ATOM      5  C   UNL d   1     -48.455  12.868  23.075  0.00  0.00     0.125 A 
ATOM      6  C   UNL d   1     -50.642  13.931  23.445  0.00  0.00     0.068 A 
ATOM      7  C   UNL d   1     -49.109  13.372  23.168  0.00  0.00    -0.010 A 
ATOM      8  C   UNL d   1     -49.254  14.169  23.126  0.00  0.00    -0.007 A 
ATOM      9  C   UNL d   1     -50.020  14.445  23.264  0.00  0.00    -0.015 A 
ATOM     10  C   UNL d   1     -50.460  13.127  23.480  0.00  0.00    -0.015 A 
ATOM     11  C   UNL d   1     -49.700  12.848  23.343  0.00  0.00    -0.007 A 
ATOM     12  O   UNL d   1     -47.595  11.869  22.983  0.00  0.00    -0.271 OA
ATOM     13  O   UNL d   1     -47.211  14.344  22.672  0.00  0.00    -0.267 OA
ATOM     14  C   UNL d   1     -49.542  12.043  23.384  0.00  0.00    -0.001 A 
ATOM     15  C   UNL d   1     -48.651  14.690  22.948  0.00  0.00    -0.001 A 
ATOM     16  C   UNL d   1     -50.184  15.267  23.223  0.00  0.00    -0.004 A 
ATOM     17  C   UNL d   1     -51.064  12.601  23.658  0.00  0.00    -0.004 A 
ATOM     18  C   UNL d   1     -50.161  11.520  23.565  0.00  0.00    -0.000 A 
ATOM     19  C   UNL d   1     -48.818  15.521  22.907  0.00  0.00    -0.000 A 
ATOM     20  C   UNL d   1     -49.587  15.797  23.046  0.00  0.00    -0.000 A 
ATOM     21  C   UNL d   1     -50.903  11.797  23.698  0.00  0.00    -0.000 A 
ENDROOT
BRANCH   1  22
ATOM     22  C   UNL d   1     -46.340  12.885  22.620  0.00  0.00     0.089 A 
ATOM     23  C   UNL d   1     -45.901  12.339  23.128  0.00  0.00     0.117 A 
ATOM     24  N   UNL d   1     -45.060  12.172  22.967  0.00  0.00    -0.241 NA
ATOM     25  C   UNL d   1     -44.654  12.558  22.291  0.00  0.00     0.099 A 
ATOM     26  C   UNL d   1     -45.099  13.103  21.787  0.00  0.00     0.022 A 
ATOM     27  C   UNL d   1     -45.946  13.267  21.952  0.00  0.00     0.021 A 
ENDBRANCH   1  22
TORSDOF 1
ENDMDL
MODEL 3
REMARK VINA RESULT:     -10.7      1.436      4.389
REMARK  1 active torsions:
REMARK  status: ('A' for Active; 'I' for Inactive)
REMARK    1  A    between atoms: C_12  and  N_1 
ROOT
ATOM      1  N   UNL d   1     -48.977  14.265  23.042  0.00  0.00    -0.244 N 
ATOM      2  C   UNL d   1     -48.957  13.487  23.241  0.00  0.00     0.251 A 
ATOM      3  C   UNL d   1     -48.185  14.430  22.851  0.00  0.00     0.260 A 
ATOM      4  C   UNL d   1     -47.732  13.779  22.937  0.00  0.00     0.033 A 
ATOM      5  C   UNL d   1     -48.212  13.188  23.180  0.00  0.00     0.125 A 
ATOM      6  C   UNL d   1     -45.949  12.241  23.006  0.00  0.00     0.068 A 
ATOM      7  C   UNL d   1     -47.404  13.025  23.072  0.00  0.00    -0.010 A 
ATOM      8  C   UNL d   1     -46.743  13.436  22.842  0.00  0.00    -0.007 A 
ATOM      9  C   UNL d   1     -46.019  13.041  22.810  0.00  0.00    -0.015 A 
ATOM     10  C   UNL d   1     -46.641  11.854  23.235  0.00  0.00    -0.015 A 
ATOM     11  C   UNL d   1     -47.364  12.242  23.269  0.00  0.00    -0.007 A 
ATOM     12  O   UNL d   1     -49.511  13.181  23.423  0.00  0.00    -0.271 OA
ATOM     13  O   UNL d   1     -48.036  15.080  22.654  0.00  0.00    -0.267 OA
ATOM     14  C   UNL d   1     -48.039  11.836  23.500  0.00  0.00    -0.001 A 
ATOM     15  C   UNL d   1     -46.795  14.226  22.646  0.00  0.00    -0.001 A 
ATOM     16  C   UNL d   1     -45.327  13.453  22.574  0.00  0.00    -0.004 A 
ATOM     17  C   UNL d   1     -46.592  11.059  23.433  0.00  0.00    -0.004 A 
ATOM     18  C   UNL d   1     -47.978  11.033  23.698  0.00  0.00    -0.000 A 
ATOM     19  C   UNL d   1     -46.095  14.642  22.407  0.00  0.00    -0.000 A 
ATOM     20  C   UNL d   1     -45.367  14.246  22.375  0.00  0.00    -0.000 A 
ATOM     21  C   UNL d   1     -47.269  10.657  23.664  0.00  0.00    -0.000 A 
ENDROOT
BRANCH   1  22
ATOM     22  C   UNL d   1     -49.666  14.783  23.035  0.00  0.00     0.089 A 
ATOM     23  C   UNL d   1     -50.261  14.697  22.413  0.00  0.00     0.117 A 
ATOM     24  N   UNL d   1     -50.960  15.218  22.401  0.00  0.00    -0.241 NA
ATOM     25  C   UNL d   1     -51.064  15.833  23.019  0.00  0.00     0.099 A 
ATOM     26  C   UNL d   1     -50.466  15.914  23.639  0.00  0.00     0.022 A 
ATOM     27  C   UNL d   1     -49.763  15.386  23.646  0.00  0.00     0.021 A 
ENDBRANCH   1  22
TORSDOF 1
ENDMDL
MODEL 4
REMARK VINA RESULT:      -8.9      9.589     10.579
REMARK  1 active torsions:
REMARK  status: ('A' for Active; 'I' for Inactive)
REMARK    1  A    between atoms: C_12  and  N_1 
ROOT
ATOM      1  N   UNL d   1     -39.056  14.328  20.489  0.00  0.00    -0.244 N 
ATOM      2  C   UNL d   1     -39.593  14.804  20.128  0.00  0.00     0.251 A 
ATOM      3  C   UNL d   1     -38.738  13.891  19.858  0.00  0.00     0.260 A 
ATOM      4  C   UNL d   1     -39.075  14.106  19.167  0.00  0.00     0.033 A 
ATOM      5  C   UNL d   1     -39.609  14.677  19.333  0.00  0.00     0.125 A 
ATOM      6  C   UNL d   1     -39.687  14.314  16.902  0.00  0.00     0.068 A 
ATOM      7  C   UNL d   1     -39.515  14.438  18.543  0.00  0.00    -0.010 A 
ATOM      8  C   UNL d   1     -39.060  13.904  18.136  0.00  0.00    -0.007 A 
ATOM      9  C   UNL d   1     -39.148  13.845  17.317  0.00  0.00    -0.015 A 
ATOM     10  C   UNL d   1     -40.134  14.847  17.346  0.00  0.00    -0.015 A 
ATOM     11  C   UNL d   1     -40.050  14.909  18.161  0.00  0.00    -0.007 A 
ATOM     12  O   UNL d   1     -39.947  15.228  20.486  0.00  0.00    -0.271 OA
ATOM     13  O   UNL d   1     -38.247  13.423  20.012  0.00  0.00    -0.267 OA
ATOM     14  C   UNL d   1     -40.506  15.447  18.583  0.00  0.00    -0.001 A 
ATOM     15  C   UNL d   1     -38.522  13.433  18.531  0.00  0.00    -0.001 A 
ATOM     16  C   UNL d   1     -38.684  13.297  16.883  0.00  0.00    -0.004 A 
ATOM     17  C   UNL d   1     -40.675  15.322  16.952  0.00  0.00    -0.004 A 
ATOM     18  C   UNL d   1     -41.049  15.922  18.174  0.00  0.00    -0.000 A 
ATOM     19  C   UNL d   1     -38.053  12.879  18.091  0.00  0.00    -0.000 A 
ATOM     20  C   UNL d   1     -38.142  12.820  17.270  0.00  0.00    -0.000 A 
ATOM     21  C   UNL d   1     -41.129  15.858  17.377  0.00  0.00    -0.000 A 
ENDROOT
BRANCH   1  22
ATOM     22  C   UNL d   1     -38.873  14.295  21.331  0.00  0.00     0.089 A 
ATOM     23  C   UNL d   1     -38.304  14.853  21.667  0.00  0.00     0.117 A 
ATOM     24  N   UNL d   1     -38.114  14.824  22.519  0.00  0.00    -0.241 NA
ATOM     25  C   UNL d   1     -38.498  14.230  23.038  0.00  0.00     0.099 A 
ATOM     26  C   UNL d   1     -39.067  13.675  22.695  0.00  0.00     0.022 A 
ATOM     27  C   UNL d   1     -39.254  13.707  21.837  0.00  0.00     0.021 A 
ENDBRANCH   1  22
TORSDOF 1
ENDMDL
MODEL 5
REMARK VINA RESULT:      -8.6      9.505     10.787
REMARK  1 active torsions:
REMARK  status: ('A' for Active; 'I' for Inactive)
REMARK    1  A    between atoms: C_12  and  N_1 
ROOT
ATOM      1  N   UNL d   1     -39.073  14.347  20.351  0.00  0.00    -0.244 N 
ATOM      2  C   UNL d   1     -38.672  13.933  19.791  0.00  0.00     0.251 A 
ATOM      3  C   UNL d   1     -39.621  14.784  19.905  0.00  0.00     0.260 A 
ATOM      4  C   UNL d   1     -39.539  14.630  19.127  0.00  0.00     0.033 A 
ATOM      5  C   UNL d   1     -38.947  14.098  19.053  0.00  0.00     0.125 A 
ATOM      6  C   UNL d   1     -39.761  14.578  16.782  0.00  0.00     0.068 A 
ATOM      7  C   UNL d   1     -39.330  14.365  18.365  0.00  0.00    -0.010 A 
ATOM      8  C   UNL d   1     -39.932  14.878  18.184  0.00  0.00    -0.007 A 
ATOM      9  C   UNL d   1     -40.145  14.981  17.393  0.00  0.00    -0.015 A 
ATOM     10  C   UNL d   1     -39.154  14.064  17.001  0.00  0.00    -0.015 A 
ATOM     11  C   UNL d   1     -38.939  13.957  17.787  0.00  0.00    -0.007 A 
ATOM     12  O   UNL d   1     -38.188  13.524  19.970  0.00  0.00    -0.271 OA
ATOM     13  O   UNL d   1     -40.052  15.203  20.255  0.00  0.00    -0.267 OA
ATOM     14  C   UNL d   1     -38.331  13.440  17.982  0.00  0.00    -0.001 A 
ATOM     15  C   UNL d   1     -40.322  15.284  18.775  0.00  0.00    -0.001 A 
ATOM     16  C   UNL d   1     -40.765  15.509  17.191  0.00  0.00    -0.004 A 
ATOM     17  C   UNL d   1     -38.761  13.654  16.409  0.00  0.00    -0.004 A 
ATOM     18  C   UNL d   1     -37.941  13.031  17.375  0.00  0.00    -0.000 A 
ATOM     19  C   UNL d   1     -40.949  15.817  18.570  0.00  0.00    -0.000 A 
ATOM     20  C   UNL d   1     -41.162  15.921  17.776  0.00  0.00    -0.000 A 
ATOM     21  C   UNL d   1     -38.154  13.138  16.607  0.00  0.00    -0.000 A 
ENDROOT
BRANCH   1  22
ATOM     22  C   UNL d   1     -38.947  14.326  21.204  0.00  0.00     0.089 A 
ATOM     23  C   UNL d   1     -38.455  14.930  21.579  0.00  0.00     0.117 A 
ATOM     24  N   UNL d   1     -38.324  14.914  22.442  0.00  0.00    -0.241 NA
ATOM     25  C   UNL d   1     -38.690  14.285  22.933  0.00  0.00     0.099 A 
ATOM     26  C   UNL d   1     -39.180  13.683  22.551  0.00  0.00     0.022 A 
ATOM     27  C   UNL d   1     -39.309  13.704  21.682  0.00  0.00     0.021 A 
ENDBRANCH   1  22
TORSDOF 1
ENDMDL
