MODEL 1
REMARK VINA RESULT:      -0.9      0.000      0.000
REMARK  4 active torsions:
REMARK  status: ('A' for Active; 'I' for Inactive)
REMARK    1  A    between atoms: S_3  and  N_1 
REMARK    2  A    between atoms: C_7  and  C_4 
REMARK    3  A    between atoms: C_12  and  C_5 
REMARK    4  A    between atoms: O_24  and  C_21 
ROOT
ATOM      1  N   UNL d   1     -42.015-121.854 -51.337  0.00  0.00    -0.155 N 
ATOM      2  N   UNL d   1     -42.176-121.889 -50.540  0.00  0.00    -0.156 NA
ATOM      3  C   UNL d   1     -41.999-122.612 -51.628  0.00  0.00     0.096 A 
ATOM      4  C   UNL d   1     -42.261-122.673 -50.336  0.00  0.00     0.103 A 
ATOM      5  C   UNL d   1     -42.152-123.129 -51.005  0.00  0.00     0.041 A 
ENDROOT
BRANCH   3   6
ATOM      6  C   UNL d   1     -41.855-122.831 -52.411  0.00  0.00     0.020 A 
ATOM      7  C   UNL d   1     -42.304-122.503 -53.020  0.00  0.00     0.022 A 
ATOM      8  C   UNL d   1     -42.159-122.722 -53.802  0.00  0.00     0.099 A 
ATOM      9  N   UNL d   1     -42.608-122.393 -54.412  0.00  0.00    -0.241 NA
ATOM     10  C   UNL d   1     -41.571-123.267 -53.973  0.00  0.00     0.099 A 
ATOM     11  C   UNL d   1     -42.452-122.617 -55.139  0.00  0.00     0.120 A 
ATOM     12  C   UNL d   1     -41.863-123.161 -55.311  0.00  0.00     0.120 A 
ATOM     13  N   UNL d   1     -41.427-123.485 -54.756  0.00  0.00    -0.241 NA
ATOM     14  C   UNL d   1     -41.123-123.595 -53.364  0.00  0.00     0.021 A 
ATOM     15  C   UNL d   1     -41.266-123.376 -52.582  0.00  0.00     0.003 A 
ENDBRANCH   3   6
BRANCH   1  16
ATOM     16  S   UNL d   1     -41.890-121.178 -51.777  0.00  0.00     0.266 S 
ATOM     17  O   UNL d   1     -42.684-121.212 -52.055  0.00  0.00    -0.203 OA
ATOM     18  O   UNL d   1     -41.760-120.481 -52.231  0.00  0.00    -0.203 OA
ATOM     19  C   UNL d   1     -41.123-121.142 -51.511  0.00  0.00     0.165 C 
ENDBRANCH   1  16
BRANCH   4  20
ATOM     20  C   UNL d   1     -42.425-122.962 -49.595  0.00  0.00     0.020 A 
ATOM     21  C   UNL d   1     -43.092-123.396 -49.451  0.00  0.00     0.004 A 
ATOM     22  C   UNL d   1     -43.269-123.698 -48.689  0.00  0.00     0.024 A 
ATOM     23  C   UNL d   1     -42.742-123.543 -48.068  0.00  0.00     0.094 A 
ATOM     24  C   UNL d   1     -42.060-123.095 -48.229  0.00  0.00     0.024 A 
ATOM     25  C   UNL d   1     -41.901-122.810 -48.970  0.00  0.00     0.004 A 
BRANCH  23  26
ATOM     26  O   UNL d   1     -42.892-123.817 -47.347  0.00  0.00    -0.328 OA
ATOM     27  C   UNL d   1     -42.451-123.551 -46.698  0.00  0.00     0.181 C 
ENDBRANCH  23  26
ENDBRANCH   4  20
TORSDOF 4
ENDMDL
MODEL 2
REMARK VINA RESULT:      -0.3      1.690      5.085
REMARK  4 active torsions:
REMARK  status: ('A' for Active; 'I' for Inactive)
REMARK    1  A    between atoms: S_3  and  N_1 
REMARK    2  A    between atoms: C_7  and  C_4 
REMARK    3  A    between atoms: C_12  and  C_5 
REMARK    4  A    between atoms: O_24  and  C_21 
ROOT
ATOM      1  N   UNL d   1     -42.903-122.706 -50.552  0.00  0.00    -0.155 N 
ATOM      2  N   UNL d   1     -42.903-122.545 -51.349  0.00  0.00    -0.156 NA
ATOM      3  C   UNL d   1     -42.134-122.820 -50.314  0.00  0.00     0.096 A 
ATOM      4  C   UNL d   1     -42.131-122.559 -51.608  0.00  0.00     0.103 A 
ATOM      5  C   UNL d   1     -41.647-122.729 -50.973  0.00  0.00     0.041 A 
ENDROOT
BRANCH   3   6
ATOM      6  C   UNL d   1     -41.880-122.996 -49.549  0.00  0.00     0.020 A 
ATOM      7  C   UNL d   1     -42.118-122.522 -48.917  0.00  0.00     0.022 A 
ATOM      8  C   UNL d   1     -41.864-122.699 -48.152  0.00  0.00     0.099 A 
ATOM      9  N   UNL d   1     -42.102-122.225 -47.519  0.00  0.00    -0.241 NA
ATOM     10  C   UNL d   1     -41.376-123.345 -48.020  0.00  0.00     0.099 A 
ATOM     11  C   UNL d   1     -41.849-122.413 -46.809  0.00  0.00     0.120 A 
ATOM     12  C   UNL d   1     -41.361-123.059 -46.677  0.00  0.00     0.120 A 
ATOM     13  N   UNL d   1     -41.123-123.520 -47.255  0.00  0.00    -0.241 NA
ATOM     14  C   UNL d   1     -41.139-123.817 -48.652  0.00  0.00     0.021 A 
ATOM     15  C   UNL d   1     -41.392-123.642 -49.417  0.00  0.00     0.003 A 
ENDBRANCH   3   6
BRANCH   1  16
ATOM     16  S   UNL d   1     -43.556-122.747 -50.065  0.00  0.00     0.266 S 
ATOM     17  O   UNL d   1     -43.613-123.574 -50.212  0.00  0.00    -0.203 OA
ATOM     18  O   UNL d   1     -44.230-122.790 -49.562  0.00  0.00    -0.203 OA
ATOM     19  C   UNL d   1     -43.504-121.949 -49.920  0.00  0.00     0.165 C 
ENDBRANCH   1  16
BRANCH   4  20
ATOM     20  C   UNL d   1     -41.877-122.428 -52.368  0.00  0.00     0.020 A 
ATOM     21  C   UNL d   1     -41.422-122.971 -52.759  0.00  0.00     0.004 A 
ATOM     22  C   UNL d   1     -41.156-122.844 -53.544  0.00  0.00     0.024 A 
ATOM     23  C   UNL d   1     -41.366-122.139 -53.926  0.00  0.00     0.094 A 
ATOM     24  C   UNL d   1     -41.834-121.588 -53.513  0.00  0.00     0.024 A 
ATOM     25  C   UNL d   1     -42.085-121.724 -52.755  0.00  0.00     0.004 A 
BRANCH  23  26
ATOM     26  O   UNL d   1     -41.126-122.002 -54.661  0.00  0.00    -0.328 OA
ATOM     27  C   UNL d   1     -41.571-122.274 -55.305  0.00  0.00     0.181 C 
ENDBRANCH  23  26
ENDBRANCH   4  20
TORSDOF 4
ENDMDL
MODEL 3
REMARK VINA RESULT:       0.5      1.370      4.828
REMARK  4 active torsions:
REMARK  status: ('A' for Active; 'I' for Inactive)
REMARK    1  A    between atoms: S_3  and  N_1 
REMARK    2  A    between atoms: C_7  and  C_4 
REMARK    3  A    between atoms: C_12  and  C_5 
REMARK    4  A    between atoms: O_24  and  C_21 
ROOT
ATOM      1  N   UNL d   1     -41.878-121.838 -51.274  0.00  0.00    -0.155 N 
ATOM      2  N   UNL d   1     -41.854-121.796 -52.086  0.00  0.00    -0.156 NA
ATOM      3  C   UNL d   1     -41.820-122.619 -51.056  0.00  0.00     0.096 A 
ATOM      4  C   UNL d   1     -41.780-122.555 -52.373  0.00  0.00     0.103 A 
ATOM      5  C   UNL d   1     -41.758-123.072 -51.742  0.00  0.00     0.041 A 
ENDROOT
BRANCH   3   6
ATOM      6  C   UNL d   1     -41.823-122.912 -50.284  0.00  0.00     0.020 A 
ATOM      7  C   UNL d   1     -42.530-122.953 -49.862  0.00  0.00     0.022 A 
ATOM      8  C   UNL d   1     -42.532-123.246 -49.091  0.00  0.00     0.099 A 
ATOM      9  N   UNL d   1     -43.239-123.287 -48.667  0.00  0.00    -0.241 NA
ATOM     10  C   UNL d   1     -41.832-123.496 -48.745  0.00  0.00     0.099 A 
ATOM     11  C   UNL d   1     -43.213-123.566 -47.943  0.00  0.00     0.120 A 
ATOM     12  C   UNL d   1     -42.513-123.817 -47.597  0.00  0.00     0.120 A 
ATOM     13  N   UNL d   1     -41.835-123.789 -47.973  0.00  0.00    -0.241 NA
ATOM     14  C   UNL d   1     -41.125-123.455 -49.168  0.00  0.00     0.021 A 
ATOM     15  C   UNL d   1     -41.123-123.163 -49.939  0.00  0.00     0.003 A 
ENDBRANCH   3   6
BRANCH   1  16
ATOM     16  S   UNL d   1     -41.949-121.210 -50.758  0.00  0.00     0.266 S 
ATOM     17  O   UNL d   1     -42.787-121.296 -50.768  0.00  0.00    -0.203 OA
ATOM     18  O   UNL d   1     -42.022-120.562 -50.225  0.00  0.00    -0.203 OA
ATOM     19  C   UNL d   1     -41.141-121.124 -50.746  0.00  0.00     0.165 C 
ENDBRANCH   1  16
BRANCH   4  20
ATOM     20  C   UNL d   1     -41.734-122.770 -53.156  0.00  0.00     0.020 A 
ATOM     21  C   UNL d   1     -42.216-122.434 -53.713  0.00  0.00     0.004 A 
ATOM     22  C   UNL d   1     -42.176-122.650 -54.522  0.00  0.00     0.024 A 
ATOM     23  C   UNL d   1     -41.625-123.224 -54.754  0.00  0.00     0.094 A 
ATOM     24  C   UNL d   1     -41.135-123.562 -54.171  0.00  0.00     0.024 A 
ATOM     25  C   UNL d   1     -41.185-123.344 -53.393  0.00  0.00     0.004 A 
BRANCH  23  26
ATOM     26  O   UNL d   1     -41.573-123.439 -55.507  0.00  0.00    -0.328 OA
ATOM     27  C   UNL d   1     -41.670-122.878 -56.110  0.00  0.00     0.181 C 
ENDBRANCH  23  26
ENDBRANCH   4  20
TORSDOF 4
ENDMDL
