MODEL 1
REMARK VINA RESULT:      -2.9      0.000      0.000
REMARK  6 active torsions:
REMARK  status: ('A' for Active; 'I' for Inactive)
REMARK    1  A    between atoms: C_2  and  S_1 
REMARK    2  A    between atoms: N_3  and  S_1 
REMARK    3  A    between atoms: C_5  and  C_6 
REMARK    4  A    between atoms: O_13  and  C_5 
REMARK    5  A    between atoms: C_22  and  O_13 
REMARK    6  A    between atoms: C_21  and  C_22 
ROOT
ATOM      1  C   UNL d   1     -41.747-122.739 -53.562  0.00  0.00     0.104 A 
ATOM      2  C   UNL d   1     -41.956-122.367 -52.856  0.00  0.00     0.018 A 
ATOM      3  C   UNL d   1     -41.746-122.704 -52.132  0.00  0.00     0.064 A 
ATOM      4  C   UNL d   1     -41.331-123.444 -53.540  0.00  0.00     0.012 A 
ATOM      5  C   UNL d   1     -41.327-123.415 -52.113  0.00  0.00     0.005 A 
ATOM      6  C   UNL d   1     -41.123-123.778 -52.822  0.00  0.00     0.001 A 
ATOM      7  C   UNL d   1     -41.123-123.816 -54.245  0.00  0.00     0.001 C 
ENDROOT
BRANCH   3   8
ATOM      8  C   UNL d   1     -41.955-122.332 -51.426  0.00  0.00     0.300 C 
ATOM      9  O   UNL d   1     -42.039-121.509 -51.406  0.00  0.00    -0.259 OA
BRANCH   8  10
ATOM     10  O   UNL d   1     -42.078-122.776 -50.745  0.00  0.00    -0.271 OA
BRANCH  10  11
ATOM     11  C   UNL d   1     -41.932-122.445 -50.008  0.00  0.00     0.126 C 
BRANCH  11  12
ATOM     12  C   UNL d   1     -42.231-122.801 -49.325  0.00  0.00     0.027 A 
ATOM     13  C   UNL d   1     -41.806-122.769 -48.631  0.00  0.00     0.028 A 
ATOM     14  C   UNL d   1     -42.100-123.123 -47.945  0.00  0.00     0.119 A 
ATOM     15  O   UNL d   1     -41.802-123.182 -47.171  0.00  0.00    -0.300 OA
ATOM     16  C   UNL d   1     -42.830-123.512 -47.969  0.00  0.00     0.119 A 
ATOM     17  C   UNL d   1     -42.354-123.610 -46.721  0.00  0.00     0.304 A 
ATOM     18  O   UNL d   1     -42.984-123.811 -47.213  0.00  0.00    -0.300 OA
ATOM     19  C   UNL d   1     -43.265-123.546 -48.676  0.00  0.00     0.026 A 
ATOM     20  C   UNL d   1     -42.960-123.188 -49.354  0.00  0.00     0.004 A 
ENDBRANCH  11  12
ENDBRANCH  10  11
ENDBRANCH   8  10
ENDBRANCH   3   8
BRANCH   1  21
ATOM     21  S   UNL d   1     -41.956-122.403 -54.283  0.00  0.00     0.271 S 
ATOM     22  O   UNL d   1     -41.384-121.806 -54.171  0.00  0.00    -0.200 OA
ATOM     23  O   UNL d   1     -42.604-123.079 -54.410  0.00  0.00    -0.200 OA
BRANCH  21  24
ATOM     24  N   UNL d   1     -42.202-122.108 -55.008  0.00  0.00    -0.229 N 
ATOM     25  C   UNL d   1     -41.842-121.441 -55.329  0.00  0.00     0.092 A 
ATOM     26  C   UNL d   1     -42.095-121.150 -56.059  0.00  0.00     0.020 A 
ATOM     27  C   UNL d   1     -42.702-121.524 -56.463  0.00  0.00     0.003 A 
ATOM     28  C   UNL d   1     -43.058-122.189 -56.140  0.00  0.00     0.020 A 
ATOM     29  C   UNL d   1     -42.811-122.480 -55.418  0.00  0.00     0.092 A 
ENDBRANCH  21  24
ENDBRANCH   1  21
TORSDOF 6
ENDMDL
MODEL 2
REMARK VINA RESULT:      -2.2      1.934      6.208
REMARK  6 active torsions:
REMARK  status: ('A' for Active; 'I' for Inactive)
REMARK    1  A    between atoms: C_2  and  S_1 
REMARK    2  A    between atoms: N_3  and  S_1 
REMARK    3  A    between atoms: C_5  and  C_6 
REMARK    4  A    between atoms: O_13  and  C_5 
REMARK    5  A    between atoms: C_22  and  O_13 
REMARK    6  A    between atoms: C_21  and  C_22 
ROOT
ATOM      1  C   UNL d   1     -42.365-122.831 -49.757  0.00  0.00     0.104 A 
ATOM      2  C   UNL d   1     -41.914-123.126 -50.381  0.00  0.00     0.018 A 
ATOM      3  C   UNL d   1     -42.039-122.848 -51.150  0.00  0.00     0.064 A 
ATOM      4  C   UNL d   1     -42.935-122.264 -49.903  0.00  0.00     0.012 A 
ATOM      5  C   UNL d   1     -42.615-122.276 -51.294  0.00  0.00     0.005 A 
ATOM      6  C   UNL d   1     -43.059-121.989 -50.664  0.00  0.00     0.001 A 
ATOM      7  C   UNL d   1     -43.386-121.969 -49.279  0.00  0.00     0.001 C 
ENDROOT
BRANCH   3   8
ATOM      8  C   UNL d   1     -41.588-123.143 -51.775  0.00  0.00     0.300 C 
ATOM      9  O   UNL d   1     -41.122-123.817 -51.662  0.00  0.00    -0.259 OA
BRANCH   8  10
ATOM     10  O   UNL d   1     -41.601-122.768 -52.507  0.00  0.00    -0.271 OA
BRANCH  10  11
ATOM     11  C   UNL d   1     -41.292-123.147 -53.166  0.00  0.00     0.126 C 
BRANCH  11  12
ATOM     12  C   UNL d   1     -41.558-122.951 -53.923  0.00  0.00     0.027 A 
ATOM     13  C   UNL d   1     -41.649-122.169 -54.132  0.00  0.00     0.028 A 
ATOM     14  C   UNL d   1     -41.916-121.967 -54.887  0.00  0.00     0.119 A 
ATOM     15  O   UNL d   1     -42.061-121.235 -55.254  0.00  0.00    -0.300 OA
ATOM     16  C   UNL d   1     -42.089-122.566 -55.430  0.00  0.00     0.119 A 
ATOM     17  C   UNL d   1     -42.324-121.389 -56.027  0.00  0.00     0.304 A 
ATOM     18  O   UNL d   1     -42.341-122.207 -56.132  0.00  0.00    -0.300 OA
ATOM     19  C   UNL d   1     -41.997-123.364 -55.219  0.00  0.00     0.026 A 
ATOM     20  C   UNL d   1     -41.730-123.552 -54.462  0.00  0.00     0.004 A 
ENDBRANCH  11  12
ENDBRANCH  10  11
ENDBRANCH   8  10
ENDBRANCH   3   8
BRANCH   1  21
ATOM     21  S   UNL d   1     -42.240-123.108 -48.992  0.00  0.00     0.271 S 
ATOM     22  O   UNL d   1     -42.798-123.715 -49.120  0.00  0.00    -0.200 OA
ATOM     23  O   UNL d   1     -41.609-122.421 -48.847  0.00  0.00    -0.200 OA
BRANCH  21  24
ATOM     24  N   UNL d   1     -42.079-123.342 -48.223  0.00  0.00    -0.229 N 
ATOM     25  C   UNL d   1     -41.301-123.421 -47.966  0.00  0.00     0.092 A 
ATOM     26  C   UNL d   1     -41.146-123.658 -47.191  0.00  0.00     0.020 A 
ATOM     27  C   UNL d   1     -41.767-123.814 -46.678  0.00  0.00     0.003 A 
ATOM     28  C   UNL d   1     -42.540-123.735 -46.937  0.00  0.00     0.020 A 
ATOM     29  C   UNL d   1     -42.697-123.501 -47.703  0.00  0.00     0.092 A 
ENDBRANCH  21  24
ENDBRANCH   1  21
TORSDOF 6
ENDMDL
