MODEL 1
REMARK VINA RESULT:      89.1      0.000      0.000
REMARK  5 active torsions:
REMARK  status: ('A' for Active; 'I' for Inactive)
REMARK    1  A    between atoms: S_13  and  C_7 
REMARK    2  A    between atoms: C_22  and  C_10 
REMARK    3  A    between atoms: C_11  and  C_16 
REMARK       I    between atoms: N_12  and  C_11 
REMARK    4  A    between atoms: C_16  and  S_13 
REMARK    5  A    between atoms: C_23  and  C_22 
ROOT
ATOM      1  N   UNL d   1      60.295  49.694  52.854  0.00  0.00    -0.224 N 
ATOM      2  N   UNL d   1      58.861  49.701  52.905  0.00  0.00    -0.241 N 
ATOM      3  C   UNL d   1      59.587  49.698  53.294  0.00  0.00     0.343 A 
ATOM      4  C   UNL d   1      58.843  49.700  52.078  0.00  0.00     0.160 A 
ATOM      5  C   UNL d   1      60.270  49.693  52.031  0.00  0.00     0.273 A 
ATOM      6  C   UNL d   1      59.544  49.696  51.643  0.00  0.00     0.115 A 
ATOM      7  C   UNL d   1      59.518  49.694  50.820  0.00  0.00     0.120 A 
ATOM      8  N   UNL d   1      58.112  49.702  51.684  0.00  0.00    -0.209 NA
ATOM      9  N   UNL d   1      58.796  49.697  50.430  0.00  0.00    -0.220 NA
ATOM     10  C   UNL d   1      58.087  49.701  50.861  0.00  0.00     0.165 A 
ATOM     11  O   UNL d   1      59.614  49.699  54.119  0.00  0.00    -0.245 OA
ATOM     12  O   UNL d   1      60.973  49.689  51.600  0.00  0.00    -0.266 OA
ATOM     13  C   UNL d   1      61.014  49.691  53.246  0.00  0.00     0.107 C 
ATOM     14  C   UNL d   1      58.160  49.705  53.340  0.00  0.00     0.105 C 
ENDROOT
BRANCH   7  15
ATOM     15  S   UNL d   1      60.221  49.690  50.388  0.00  0.00    -0.062 SA
BRANCH  15  16
ATOM     16  C   UNL d   1      60.464  49.004  49.999  0.00  0.00     0.098 C 
BRANCH  16  17
ATOM     17  C   UNL d   1      61.265  48.843  49.904  0.00  0.00     0.271 C 
ATOM     18  N   UNL d   1      61.529  48.057  49.899  0.00  0.00    -0.272 N 
ATOM     19  C   UNL d   1      62.385  47.987  49.793  0.00  0.00     0.083 A 
ATOM     20  C   UNL d   1      60.989  47.561  49.987  0.00  0.00     0.083 A 
ATOM     21  C   UNL d   1      62.846  47.431  49.756  0.00  0.00     0.019 A 
ATOM     22  C   UNL d   1      62.659  46.614  49.810  0.00  0.00     0.002 A 
ATOM     23  C   UNL d   1      61.850  46.277  49.925  0.00  0.00     0.002 A 
ATOM     24  C   UNL d   1      61.076  46.714  50.007  0.00  0.00     0.019 A 
ATOM     25  O   UNL d   1      61.805  49.461  49.812  0.00  0.00    -0.266 OA
ENDBRANCH  16  17
ENDBRANCH  15  16
ENDBRANCH   7  15
BRANCH  10  26
ATOM     26  C   UNL d   1      57.362  49.704  50.467  0.00  0.00     0.039 C 
BRANCH  26  27
ATOM     27  C   UNL d   1      57.047  48.994  50.180  0.00  0.00     0.003 C 
ATOM     28  C   UNL d   1      56.267  48.951  49.943  0.00  0.00     0.000 C 
ENDBRANCH  26  27
ENDBRANCH  10  26
TORSDOF 5
ENDMDL
