MODEL 1
REMARK VINA RESULT:      -3.2      0.000      0.000
REMARK  5 active torsions:
REMARK  status: ('A' for Active; 'I' for Inactive)
REMARK    1  A    between atoms: C_6  and  C_1 
REMARK    2  A    between atoms: C_7  and  C_5 
REMARK       I    between atoms: N_13  and  C_6 
REMARK    3  A    between atoms: C_8  and  C_12 
REMARK    4  A    between atoms: N_9  and  N_13 
REMARK    5  A    between atoms: C_12  and  N_9 
ROOT
ATOM      1  C   UNL d   1     -41.795-121.933 -51.688  0.00  0.00     0.164 A 
ATOM      2  C   UNL d   1     -41.320-122.396 -51.191  0.00  0.00     0.047 A 
ATOM      3  N   UNL d   1     -42.841-121.978 -50.723  0.00  0.00    -0.148 NA
ATOM      4  N   UNL d   1     -42.554-121.723 -51.457  0.00  0.00    -0.143 NA
ATOM      5  C   UNL d   1     -42.366-122.440 -50.227  0.00  0.00     0.105 A 
ENDROOT
BRANCH   1   6
ATOM      6  C   UNL d   1     -41.499-121.684 -52.419  0.00  0.00     0.316 C 
ATOM      7  N   UNL d   1     -41.476-122.237 -53.223  0.00  0.00    -0.104 NA
ATOM      8  O   UNL d   1     -41.198-120.916 -52.492  0.00  0.00    -0.262 OA
BRANCH   7   9
ATOM      9  N   UNL d   1     -41.146-122.052 -54.161  0.00  0.00    -0.143 NA
BRANCH   9  10
ATOM     10  C   UNL d   1     -41.357-122.580 -54.813  0.00  0.00     0.129 C 
BRANCH  10  11
ATOM     11  C   UNL d   1     -41.930-122.321 -55.416  0.00  0.00     0.050 A 
ATOM     12  S   UNL d   1     -42.535-122.750 -55.572  0.00  0.00    -0.085 SA
ATOM     13  C   UNL d   1     -43.035-122.523 -56.099  0.00  0.00     0.035 A 
ATOM     14  C   UNL d   1     -42.930-121.867 -56.469  0.00  0.00     0.007 A 
ATOM     15  C   UNL d   1     -41.825-121.665 -55.786  0.00  0.00     0.009 A 
ENDBRANCH  10  11
ENDBRANCH   9  10
ENDBRANCH   7   9
ENDBRANCH   1   6
BRANCH   5  16
ATOM     16  C   UNL d   1     -42.459-122.784 -49.483  0.00  0.00     0.019 A 
ATOM     17  C   UNL d   1     -41.869-122.691 -48.915  0.00  0.00     0.002 A 
ATOM     18  C   UNL d   1     -41.960-123.035 -48.168  0.00  0.00     0.000 A 
ATOM     19  C   UNL d   1     -41.373-122.945 -47.597  0.00  0.00     0.000 A 
ATOM     20  C   UNL d   1     -42.646-123.473 -47.995  0.00  0.00     0.000 A 
ATOM     21  C   UNL d   1     -41.463-123.287 -46.856  0.00  0.00     0.000 A 
ATOM     22  C   UNL d   1     -42.144-123.724 -46.676  0.00  0.00     0.000 A 
ATOM     23  C   UNL d   1     -42.734-123.817 -47.244  0.00  0.00     0.000 A 
ATOM     24  C   UNL d   1     -43.224-123.558 -48.565  0.00  0.00     0.000 A 
ATOM     25  C   UNL d   1     -43.130-123.214 -49.309  0.00  0.00     0.002 A 
ENDBRANCH   5  16
TORSDOF 5
ENDMDL
MODEL 2
REMARK VINA RESULT:      -0.5      1.945      6.357
REMARK  5 active torsions:
REMARK  status: ('A' for Active; 'I' for Inactive)
REMARK    1  A    between atoms: C_6  and  C_1 
REMARK    2  A    between atoms: C_7  and  C_5 
REMARK       I    between atoms: N_13  and  C_6 
REMARK    3  A    between atoms: C_8  and  C_12 
REMARK    4  A    between atoms: N_9  and  N_13 
REMARK    5  A    between atoms: C_12  and  N_9 
ROOT
ATOM      1  C   UNL d   1     -41.307-122.145 -51.081  0.00  0.00     0.164 A 
ATOM      2  C   UNL d   1     -41.507-122.835 -51.494  0.00  0.00     0.047 A 
ATOM      3  N   UNL d   1     -41.262-121.427 -52.309  0.00  0.00    -0.148 NA
ATOM      4  N   UNL d   1     -41.184-121.441 -51.485  0.00  0.00    -0.143 NA
ATOM      5  C   UNL d   1     -41.462-122.117 -52.722  0.00  0.00     0.105 A 
ENDROOT
BRANCH   1   6
ATOM      6  C   UNL d   1     -41.232-122.170 -50.258  0.00  0.00     0.316 C 
ATOM      7  N   UNL d   1     -41.213-122.990 -49.729  0.00  0.00    -0.104 NA
ATOM      8  O   UNL d   1     -41.168-121.460 -49.837  0.00  0.00    -0.262 OA
BRANCH   7   9
ATOM      9  N   UNL d   1     -41.126-123.151 -48.735  0.00  0.00    -0.143 NA
BRANCH   9  10
ATOM     10  C   UNL d   1     -41.534-123.817 -48.360  0.00  0.00     0.129 C 
BRANCH  10  11
ATOM     11  C   UNL d   1     -42.177-123.669 -47.791  0.00  0.00     0.050 A 
ATOM     12  S   UNL d   1     -42.898-123.775 -47.998  0.00  0.00    -0.085 SA
ATOM     13  C   UNL d   1     -43.459-123.646 -47.500  0.00  0.00     0.035 A 
ATOM     14  C   UNL d   1     -43.299-123.411 -46.796  0.00  0.00     0.007 A 
ATOM     15  C   UNL d   1     -42.016-123.434 -47.086  0.00  0.00     0.009 A 
ENDBRANCH  10  11
ENDBRANCH   9  10
ENDBRANCH   7   9
ENDBRANCH   1   6
BRANCH   5  16
ATOM     16  C   UNL d   1     -41.584-122.309 -53.515  0.00  0.00     0.019 A 
ATOM     17  C   UNL d   1     -42.087-121.844 -53.973  0.00  0.00     0.002 A 
ATOM     18  C   UNL d   1     -42.212-122.034 -54.769  0.00  0.00     0.000 A 
ATOM     19  C   UNL d   1     -42.712-121.572 -55.231  0.00  0.00     0.000 A 
ATOM     20  C   UNL d   1     -41.829-122.694 -55.101  0.00  0.00     0.000 A 
ATOM     21  C   UNL d   1     -42.836-121.761 -56.021  0.00  0.00     0.000 A 
ATOM     22  C   UNL d   1     -42.459-122.417 -56.359  0.00  0.00     0.000 A 
ATOM     23  C   UNL d   1     -41.956-122.883 -55.900  0.00  0.00     0.000 A 
ATOM     24  C   UNL d   1     -41.334-123.148 -54.637  0.00  0.00     0.000 A 
ATOM     25  C   UNL d   1     -41.212-122.955 -53.844  0.00  0.00     0.002 A 
ENDBRANCH   5  16
TORSDOF 5
ENDMDL
