MODEL 1
REMARK VINA RESULT:      15.9      0.000      0.000
REMARK  4 active torsions:
REMARK  status: ('A' for Active; 'I' for Inactive)
REMARK    1  A    between atoms: C_7  and  N_1 
REMARK    2  A    between atoms: C_8  and  C_7 
REMARK       I    between atoms: N_11  and  C_8 
REMARK    3  A    between atoms: C_13  and  N_11 
REMARK    4  A    between atoms: C_15  and  C_13 
ROOT
ATOM      1  C   UNL d   1      45.587 -15.468  44.794  0.00  0.00     0.148 C 
ENDROOT
BRANCH   1   2
ATOM      2  N   UNL d   1      45.303 -14.700  44.691  0.00  0.00    -0.235 N 
ATOM      3  C   UNL d   1      45.835 -14.065  44.669  0.00  0.00     0.273 A 
ATOM      4  C   UNL d   1      45.554 -13.304  44.567  0.00  0.00     0.086 A 
ATOM      5  O   UNL d   1      46.646 -14.203  44.751  0.00  0.00    -0.266 OA
ATOM      6  C   UNL d   1      46.090 -12.668  44.546  0.00  0.00     0.012 C 
ATOM      7  S   UNL d   1      44.753 -13.158  44.486  0.00  0.00    -0.077 SA
ATOM      8  C   UNL d   1      44.223 -13.784  44.507  0.00  0.00     0.086 A 
ATOM      9  C   UNL d   1      44.491 -14.558  44.609  0.00  0.00     0.273 A 
ATOM     10  C   UNL d   1      43.415 -13.644  44.426  0.00  0.00     0.012 C 
ATOM     11  O   UNL d   1      43.961 -15.188  44.630  0.00  0.00    -0.266 OA
ENDBRANCH   1   2
BRANCH   1  12
ATOM     12  C   UNL d   1      45.952 -15.857  44.167  0.00  0.00     0.297 C 
ATOM     13  N   UNL d   1      46.115 -16.661  44.210  0.00  0.00    -0.205 NA
ATOM     14  O   UNL d   1      46.155 -15.434  43.488  0.00  0.00    -0.264 OA
BRANCH  13  15
ATOM     15  C   UNL d   1      46.478 -17.055  43.590  0.00  0.00     0.102 C 
BRANCH  15  16
ATOM     16  C   UNL d   1      46.411 -17.874  43.508  0.00  0.00     0.019 A 
ATOM     17  C   UNL d   1      46.396 -18.352  44.180  0.00  0.00     0.004 A 
ATOM     18  C   UNL d   1      46.329 -19.174  44.101  0.00  0.00     0.030 A 
ATOM     19  C   UNL d   1      46.279 -19.506  43.352  0.00  0.00     0.140 A 
ATOM     20  C   UNL d   1      46.294 -19.029  42.679  0.00  0.00     0.030 A 
ATOM     21  F   UNL d   1      46.212 -20.327  43.263  0.00  0.00    -0.204 F 
ATOM     22  C   UNL d   1      46.361 -18.204  42.755  0.00  0.00     0.004 A 
ENDBRANCH  15  16
ENDBRANCH  13  15
ENDBRANCH   1  12
TORSDOF 4
ENDMDL
