MODEL 1
REMARK VINA RESULT:      62.6      0.000      0.000
REMARK  3 active torsions:
REMARK  status: ('A' for Active; 'I' for Inactive)
REMARK    1  A    between atoms: C_9  and  C_4 
REMARK       I    between atoms: C_6  and  N_8 
REMARK    2  A    between atoms: C_13  and  C_6 
REMARK    3  A    between atoms: N_8  and  C_16 
ROOT
ATOM      1  C   UNL d   1      59.406  49.674  50.951  0.00  0.00     0.019 A 
ATOM      2  C   UNL d   1      59.377  49.645  50.134  0.00  0.00     0.003 A 
ATOM      3  C   UNL d   1      58.718  49.705  51.393  0.00  0.00     0.003 A 
ATOM      4  C   UNL d   1      57.952  49.677  50.193  0.00  0.00     0.085 A 
ATOM      5  C   UNL d   1      57.986  49.706  51.010  0.00  0.00     0.019 A 
ATOM      6  C   UNL d   1      58.649  49.646  49.753  0.00  0.00     0.019 A 
ENDROOT
BRANCH   1   7
ATOM      7  C   UNL d   1      60.141  49.673  51.338  0.00  0.00     0.101 A 
ATOM      8  N   UNL d   1      60.854  49.705  50.946  0.00  0.00    -0.221 NA
ATOM      9  C   UNL d   1      61.459  49.694  51.505  0.00  0.00     0.179 A 
ATOM     10  N   UNL d   1      61.124  49.655  52.251  0.00  0.00    -0.282 N 
ATOM     11  S   UNL d   1      62.283  49.707  51.595  0.00  0.00    -0.048 SA
ATOM     12  C   UNL d   1      60.299  49.642  52.148  0.00  0.00     0.101 A 
ATOM     13  C   UNL d   1      61.730  49.644  52.811  0.00  0.00     0.089 A 
ATOM     14  C   UNL d   1      62.446  49.676  52.399  0.00  0.00     0.057 A 
ENDBRANCH   1   7
BRANCH   4  15
ATOM     15  N   UNL d   1      57.216  49.678  49.806  0.00  0.00    -0.208 NA
ATOM     16  C   UNL d   1      56.761  48.982  49.763  0.00  0.00     0.279 C 
ATOM     17  O   UNL d   1      56.041  48.979  49.386  0.00  0.00    -0.265 OA
BRANCH  16  18
ATOM     18  C   UNL d   1      57.051  48.293  50.111  0.00  0.00     0.058 A 
ATOM     19  C   UNL d   1      56.700  47.562  49.949  0.00  0.00     0.005 A 
ATOM     20  C   UNL d   1      57.110  46.986  50.374  0.00  0.00     0.000 A 
ATOM     21  C   UNL d   1      57.707  47.346  50.796  0.00  0.00     0.000 A 
ATOM     22  C   UNL d   1      57.677  48.161  50.637  0.00  0.00     0.005 A 
ENDBRANCH  16  18
ENDBRANCH   4  15
TORSDOF 3
ENDMDL
