MODEL 1
REMARK VINA RESULT:       1.9      0.000      0.000
REMARK  4 active torsions:
REMARK  status: ('A' for Active; 'I' for Inactive)
REMARK       I    between atoms: C_2  and  N_1 
REMARK       I    between atoms: N_8  and  C_2 
REMARK    1  A    between atoms: C_14  and  N_8 
REMARK    2  A    between atoms: C_15  and  N_8 
REMARK    3  A    between atoms: C_17  and  C_14 
REMARK    4  A    between atoms: C_16  and  C_15 
ROOT
ATOM      1  N   UNL d   1     -41.540-122.487 -51.852  0.00  0.00    -0.259 N 
ATOM      2  C   UNL d   1     -41.727-123.012 -52.460  0.00  0.00     0.339 C 
ATOM      3  S   UNL d   1     -41.163-121.428 -50.635  0.00  0.00    -0.084 SA
ATOM      4  C   UNL d   1     -41.465-122.754 -51.076  0.00  0.00     0.074 A 
ATOM      5  C   UNL d   1     -41.426-121.683 -52.025  0.00  0.00     0.074 A 
ATOM      6  C   UNL d   1     -41.278-122.235 -50.463  0.00  0.00     0.046 A 
ATOM      7  C   UNL d   1     -41.238-121.160 -51.410  0.00  0.00     0.046 A 
ATOM      8  N   UNL d   1     -41.803-122.744 -53.237  0.00  0.00    -0.258 N 
ATOM      9  O   UNL d   1     -41.842-123.816 -52.291  0.00  0.00    -0.245 OA
ATOM     10  C   UNL d   1     -41.579-123.559 -50.905  0.00  0.00     0.018 A 
ATOM     11  C   UNL d   1     -41.499-121.411 -52.790  0.00  0.00     0.018 A 
ATOM     12  C   UNL d   1     -41.124-120.360 -51.575  0.00  0.00     0.008 A 
ATOM     13  C   UNL d   1     -41.201-122.492 -49.688  0.00  0.00     0.008 A 
ATOM     14  C   UNL d   1     -41.385-120.607 -52.961  0.00  0.00     0.002 A 
ATOM     15  C   UNL d   1     -41.503-123.817 -50.131  0.00  0.00     0.002 A 
ATOM     16  C   UNL d   1     -41.318-123.300 -49.528  0.00  0.00     0.001 A 
ATOM     17  C   UNL d   1     -41.199-120.092 -52.352  0.00  0.00     0.001 A 
ENDROOT
BRANCH   8  18
ATOM     18  C   UNL d   1     -41.688-121.938 -53.408  0.00  0.00     0.085 C 
BRANCH  18  19
ATOM     19  C   UNL d   1     -42.165-121.583 -53.962  0.00  0.00     0.019 C 
ATOM     20  C   UNL d   1     -41.888-121.520 -54.738  0.00  0.00     0.002 C 
ENDBRANCH  18  19
ENDBRANCH   8  18
BRANCH   8  21
ATOM     21  C   UNL d   1     -41.990-123.274 -53.838  0.00  0.00     0.085 C 
BRANCH  21  22
ATOM     22  C   UNL d   1     -41.435-123.448 -54.432  0.00  0.00     0.019 C 
ATOM     23  C   UNL d   1     -41.678-123.696 -55.168  0.00  0.00     0.002 C 
ENDBRANCH  21  22
ENDBRANCH   8  21
TORSDOF 4
ENDMDL
MODEL 2
REMARK VINA RESULT:       2.4      0.876      3.136
REMARK  4 active torsions:
REMARK  status: ('A' for Active; 'I' for Inactive)
REMARK       I    between atoms: C_2  and  N_1 
REMARK       I    between atoms: N_8  and  C_2 
REMARK    1  A    between atoms: C_14  and  N_8 
REMARK    2  A    between atoms: C_15  and  N_8 
REMARK    3  A    between atoms: C_17  and  C_14 
REMARK    4  A    between atoms: C_16  and  C_15 
ROOT
ATOM      1  N   UNL d   1     -41.528-122.430 -52.557  0.00  0.00    -0.259 N 
ATOM      2  C   UNL d   1     -41.672-123.051 -52.035  0.00  0.00     0.339 C 
ATOM      3  S   UNL d   1     -41.238-121.177 -53.602  0.00  0.00    -0.084 SA
ATOM      4  C   UNL d   1     -41.509-122.561 -53.370  0.00  0.00     0.074 A 
ATOM      5  C   UNL d   1     -41.402-121.665 -52.260  0.00  0.00     0.074 A 
ATOM      6  C   UNL d   1     -41.365-121.945 -53.899  0.00  0.00     0.046 A 
ATOM      7  C   UNL d   1     -41.257-121.044 -52.789  0.00  0.00     0.046 A 
ATOM      8  N   UNL d   1     -41.692-122.919 -51.220  0.00  0.00    -0.258 N 
ATOM      9  O   UNL d   1     -41.799-123.817 -52.328  0.00  0.00    -0.245 OA
ATOM     10  C   UNL d   1     -41.636-123.328 -53.665  0.00  0.00     0.018 A 
ATOM     11  C   UNL d   1     -41.419-121.526 -51.456  0.00  0.00     0.018 A 
ATOM     12  C   UNL d   1     -41.131-120.282 -52.500  0.00  0.00     0.008 A 
ATOM     13  C   UNL d   1     -41.344-122.067 -54.709  0.00  0.00     0.008 A 
ATOM     14  C   UNL d   1     -41.292-120.761 -51.160  0.00  0.00     0.002 A 
ATOM     15  C   UNL d   1     -41.615-123.451 -54.476  0.00  0.00     0.002 A 
ATOM     16  C   UNL d   1     -41.472-122.838 -54.994  0.00  0.00     0.001 A 
ATOM     17  C   UNL d   1     -41.150-120.149 -51.686  0.00  0.00     0.001 A 
ENDROOT
BRANCH   8  18
ATOM     18  C   UNL d   1     -41.564-122.152 -50.924  0.00  0.00     0.085 C 
BRANCH  18  19
ATOM     19  C   UNL d   1     -41.130-122.060 -50.244  0.00  0.00     0.019 C 
ATOM     20  C   UNL d   1     -41.524-121.853 -49.548  0.00  0.00     0.002 C 
ENDBRANCH  18  19
ENDBRANCH   8  18
BRANCH   8  21
ATOM     21  C   UNL d   1     -41.836-123.544 -50.705  0.00  0.00     0.085 C 
BRANCH  21  22
ATOM     22  C   UNL d   1     -42.612-123.816 -50.583  0.00  0.00     0.019 C 
ATOM     23  C   UNL d   1     -42.954-123.777 -49.846  0.00  0.00     0.002 C 
ENDBRANCH  21  22
ENDBRANCH   8  21
TORSDOF 4
ENDMDL
MODEL 3
REMARK VINA RESULT:       3.1      1.045      2.521
REMARK  4 active torsions:
REMARK  status: ('A' for Active; 'I' for Inactive)
REMARK       I    between atoms: C_2  and  N_1 
REMARK       I    between atoms: N_8  and  C_2 
REMARK    1  A    between atoms: C_14  and  N_8 
REMARK    2  A    between atoms: C_15  and  N_8 
REMARK    3  A    between atoms: C_17  and  C_14 
REMARK    4  A    between atoms: C_16  and  C_15 
ROOT
ATOM      1  N   UNL d   1     -41.377-121.681 -52.705  0.00  0.00    -0.259 N 
ATOM      2  C   UNL d   1     -41.493-121.706 -53.521  0.00  0.00     0.339 C 
ATOM      3  S   UNL d   1     -41.145-121.638 -51.065  0.00  0.00    -0.084 SA
ATOM      4  C   UNL d   1     -41.308-120.960 -52.313  0.00  0.00     0.074 A 
ATOM      5  C   UNL d   1     -41.330-122.390 -52.276  0.00  0.00     0.074 A 
ATOM      6  C   UNL d   1     -41.192-120.927 -51.497  0.00  0.00     0.046 A 
ATOM      7  C   UNL d   1     -41.214-122.360 -51.456  0.00  0.00     0.046 A 
ATOM      8  N   UNL d   1     -41.562-122.428 -53.914  0.00  0.00    -0.258 N 
ATOM      9  O   UNL d   1     -41.541-120.999 -53.954  0.00  0.00    -0.245 OA
ATOM     10  C   UNL d   1     -41.356-120.252 -52.744  0.00  0.00     0.018 A 
ATOM     11  C   UNL d   1     -41.398-123.109 -52.656  0.00  0.00     0.018 A 
ATOM     12  C   UNL d   1     -41.167-123.061 -51.024  0.00  0.00     0.008 A 
ATOM     13  C   UNL d   1     -41.123-120.214 -51.099  0.00  0.00     0.008 A 
ATOM     14  C   UNL d   1     -41.351-123.817 -52.226  0.00  0.00     0.002 A 
ATOM     15  C   UNL d   1     -41.286-119.537 -52.347  0.00  0.00     0.002 A 
ATOM     16  C   UNL d   1     -41.171-119.511 -51.540  0.00  0.00     0.001 A 
ATOM     17  C   UNL d   1     -41.236-123.784 -51.415  0.00  0.00     0.001 A 
ENDROOT
BRANCH   8  18
ATOM     18  C   UNL d   1     -41.515-123.138 -53.481  0.00  0.00     0.085 C 
BRANCH  18  19
ATOM     19  C   UNL d   1     -41.258-123.811 -53.858  0.00  0.00     0.019 C 
ATOM     20  C   UNL d   1     -41.157-123.790 -54.677  0.00  0.00     0.002 C 
ENDBRANCH  18  19
ENDBRANCH   8  18
BRANCH   8  21
ATOM     21  C   UNL d   1     -41.678-122.445 -54.728  0.00  0.00     0.085 C 
BRANCH  21  22
ATOM     22  C   UNL d   1     -42.379-122.144 -55.059  0.00  0.00     0.019 C 
ATOM     23  C   UNL d   1     -42.425-121.979 -55.854  0.00  0.00     0.002 C 
ENDBRANCH  21  22
ENDBRANCH   8  21
TORSDOF 4
ENDMDL
