MODEL 1
REMARK VINA RESULT:      82.7      0.000      0.000
REMARK  4 active torsions:
REMARK  status: ('A' for Active; 'I' for Inactive)
REMARK    1  A    between atoms: N_2  and  S_1 
REMARK    2  A    between atoms: C_4  and  S_1 
REMARK    3  A    between atoms: C_3  and  C_9 
REMARK       I    between atoms: N_5  and  C_3 
REMARK    4  A    between atoms: C_6  and  N_5 
ROOT
ATOM      1  C   UNL d   1      58.193  49.358  52.110  0.00  0.00     0.104 A 
ATOM      2  C   UNL d   1      57.070  49.223  52.982  0.00  0.00     0.059 A 
ATOM      3  C   UNL d   1      57.878  49.155  52.850  0.00  0.00     0.018 A 
ATOM      4  C   UNL d   1      57.698  49.628  51.510  0.00  0.00     0.013 A 
ATOM      5  C   UNL d   1      56.574  49.493  52.382  0.00  0.00     0.005 A 
ATOM      6  C   UNL d   1      56.892  49.696  51.640  0.00  0.00     0.001 A 
ENDROOT
BRANCH   1   7
ATOM      7  S   UNL d   1      58.997  49.290  51.981  0.00  0.00     0.271 S 
ATOM      8  O   UNL d   1      58.751  49.701  51.334  0.00  0.00    -0.200 OA
ATOM      9  O   UNL d   1      59.294  48.868  52.629  0.00  0.00    -0.200 OA
BRANCH   7  10
ATOM     10  N   UNL d   1      59.790  49.271  51.767  0.00  0.00    -0.229 N 
ATOM     11  C   UNL d   1      60.332  49.663  52.274  0.00  0.00     0.092 A 
ATOM     12  C   UNL d   1      61.051  49.707  52.177  0.00  0.00     0.020 A 
ATOM     13  C   UNL d   1      61.604  49.418  51.584  0.00  0.00     0.002 A 
ATOM     14  C   UNL d   1      61.520  49.019  50.960  0.00  0.00     0.002 A 
ATOM     15  C   UNL d   1      60.793  48.724  50.654  0.00  0.00     0.020 A 
ATOM     16  C   UNL d   1      59.992  48.840  51.026  0.00  0.00     0.092 A 
ENDBRANCH   7  10
ENDBRANCH   1   7
BRANCH   2  17
ATOM     17  C   UNL d   1      56.755  49.020  53.721  0.00  0.00     0.281 C 
ATOM     18  N   UNL d   1      57.035  49.401  54.398  0.00  0.00    -0.187 NA
ATOM     19  O   UNL d   1      56.171  48.446  53.766  0.00  0.00    -0.265 OA
BRANCH  18  20
ATOM     20  C   UNL d   1      56.720  49.197  55.128  0.00  0.00     0.194 A 
ATOM     21  N   UNL d   1      56.357  49.708  55.665  0.00  0.00    -0.106 NA
ATOM     22  O   UNL d   1      56.125  49.267  56.318  0.00  0.00    -0.207 OA
ATOM     23  C   UNL d   1      56.345  48.480  56.187  0.00  0.00     0.153 A 
ATOM     24  C   UNL d   1      56.710  48.435  55.458  0.00  0.00     0.070 A 
ENDBRANCH  18  20
ENDBRANCH   2  17
TORSDOF 4
ENDMDL
