MODEL 1
REMARK VINA RESULT:      -2.1      0.000      0.000
REMARK  8 active torsions:
REMARK  status: ('A' for Active; 'I' for Inactive)
REMARK    1  A    between atoms: C_6  and  C_1 
REMARK    2  A    between atoms: C_7  and  C_3 
REMARK       I    between atoms: N_10  and  C_6 
REMARK    3  A    between atoms: O_12  and  C_7 
REMARK    4  A    between atoms: C_20  and  N_10 
REMARK    5  A    between atoms: C_23  and  O_12 
REMARK    6  A    between atoms: O_21  and  C_14 
REMARK    7  A    between atoms: C_15  and  C_22 
REMARK    8  A    between atoms: C_22  and  C_20 
ROOT
ATOM      1  C   UNL d   1      32.863  21.270 -21.443  0.00  0.00     0.075 A 
ATOM      2  C   UNL d   1      32.615  22.054 -21.379  0.00  0.00     0.027 A 
ATOM      3  C   UNL d   1      32.585  22.253 -20.582  0.00  0.00     0.121 A 
ATOM      4  N   UNL d   1      32.817  21.582 -20.143  0.00  0.00    -0.349 N 
ATOM      5  C   UNL d   1      32.986  20.980 -20.678  0.00  0.00     0.061 A 
ATOM      6  C   UNL d   1      32.430  22.554 -22.008  0.00  0.00     0.002 C 
ATOM      7  C   UNL d   1      33.238  20.214 -20.486  0.00  0.00     0.019 C 
ATOM      8  H   UNL d   1      32.865  21.535 -19.321  0.00  0.00     0.166 HD
ENDROOT
BRANCH   1   9
ATOM      9  C   UNL d   1      32.967  20.851 -22.142  0.00  0.00     0.281 C 
ATOM     10  O   UNL d   1      33.123  21.251 -22.844  0.00  0.00    -0.265 OA
ATOM     11  N   UNL d   1      32.918  20.027 -22.145  0.00  0.00    -0.206 NA
BRANCH  11  12
ATOM     12  C   UNL d   1      33.022  19.608 -22.844  0.00  0.00     0.102 C 
BRANCH  12  13
ATOM     13  C   UNL d   1      33.221  18.811 -22.823  0.00  0.00     0.021 C 
BRANCH  13  14
ATOM     14  C   UNL d   1      32.805  18.267 -23.272  0.00  0.00     0.002 A 
ATOM     15  C   UNL d   1      32.538  18.459 -24.034  0.00  0.00     0.002 A 
ATOM     16  C   UNL d   1      32.122  17.915 -24.482  0.00  0.00     0.024 A 
ATOM     17  C   UNL d   1      31.961  17.159 -24.177  0.00  0.00     0.094 A 
ATOM     18  C   UNL d   1      32.222  16.955 -23.419  0.00  0.00     0.024 A 
ATOM     19  C   UNL d   1      32.644  17.510 -22.968  0.00  0.00     0.002 A 
BRANCH  17  20
ATOM     20  O   UNL d   1      31.542  16.611 -24.629  0.00  0.00    -0.328 OA
ATOM     21  C   UNL d   1      31.458  15.833 -24.363  0.00  0.00     0.181 C 
ENDBRANCH  17  20
ENDBRANCH  13  14
ENDBRANCH  12  13
ENDBRANCH  11  12
ENDBRANCH   1   9
BRANCH   3  22
ATOM     22  C   UNL d   1      32.365  22.984 -20.260  0.00  0.00     0.316 C 
ATOM     23  O   UNL d   1      31.703  23.383 -20.545  0.00  0.00    -0.257 OA
BRANCH  22  24
ATOM     24  O   UNL d   1      32.817  23.305 -19.653  0.00  0.00    -0.270 OA
BRANCH  24  25
ATOM     25  C   UNL d   1      32.442  23.621 -18.988  0.00  0.00     0.126 C 
ATOM     26  C   UNL d   1      32.850  23.700 -18.281  0.00  0.00     0.029 C 
ENDBRANCH  24  25
ENDBRANCH  22  24
ENDBRANCH   3  22
TORSDOF 8
ENDMDL
MODEL 2
REMARK VINA RESULT:      -0.9      0.985      1.430
REMARK  8 active torsions:
REMARK  status: ('A' for Active; 'I' for Inactive)
REMARK    1  A    between atoms: C_6  and  C_1 
REMARK    2  A    between atoms: C_7  and  C_3 
REMARK       I    between atoms: N_10  and  C_6 
REMARK    3  A    between atoms: O_12  and  C_7 
REMARK    4  A    between atoms: C_20  and  N_10 
REMARK    5  A    between atoms: C_23  and  O_12 
REMARK    6  A    between atoms: O_21  and  C_14 
REMARK    7  A    between atoms: C_15  and  C_22 
REMARK    8  A    between atoms: C_22  and  C_20 
ROOT
ATOM      1  C   UNL d   1      32.978  20.377 -22.311  0.00  0.00     0.075 A 
ATOM      2  C   UNL d   1      32.905  21.196 -22.372  0.00  0.00     0.027 A 
ATOM      3  C   UNL d   1      33.009  21.522 -21.624  0.00  0.00     0.121 A 
ATOM      4  N   UNL d   1      33.150  20.896 -21.090  0.00  0.00    -0.349 N 
ATOM      5  C   UNL d   1      33.129  20.193 -21.519  0.00  0.00     0.061 A 
ATOM      6  C   UNL d   1      32.753  21.616 -23.065  0.00  0.00     0.002 C 
ATOM      7  C   UNL d   1      33.241  19.433 -21.211  0.00  0.00     0.019 C 
ATOM      8  H   UNL d   1      33.284  20.972 -20.280  0.00  0.00     0.166 HD
ENDROOT
BRANCH   1   9
ATOM      9  C   UNL d   1      32.913  19.838 -22.928  0.00  0.00     0.281 C 
ATOM     10  O   UNL d   1      33.175  20.039 -23.682  0.00  0.00    -0.265 OA
ATOM     11  N   UNL d   1      32.584  19.092 -22.797  0.00  0.00    -0.206 NA
BRANCH  11  12
ATOM     12  C   UNL d   1      32.519  18.553 -23.414  0.00  0.00     0.102 C 
BRANCH  12  13
ATOM     13  C   UNL d   1      32.443  17.750 -23.256  0.00  0.00     0.021 C 
BRANCH  13  14
ATOM     14  C   UNL d   1      31.950  17.282 -23.714  0.00  0.00     0.002 A 
ATOM     15  C   UNL d   1      31.527  17.605 -24.349  0.00  0.00     0.002 A 
ATOM     16  C   UNL d   1      31.035  17.136 -24.805  0.00  0.00     0.024 A 
ATOM     17  C   UNL d   1      30.954  16.327 -24.636  0.00  0.00     0.094 A 
ATOM     18  C   UNL d   1      31.371  15.993 -24.005  0.00  0.00     0.024 A 
ATOM     19  C   UNL d   1      31.869  16.472 -23.544  0.00  0.00     0.002 A 
BRANCH  17  20
ATOM     20  O   UNL d   1      30.458  15.856 -25.097  0.00  0.00    -0.328 OA
ATOM     21  C   UNL d   1      29.648  15.821 -24.929  0.00  0.00     0.181 C 
ENDBRANCH  17  20
ENDBRANCH  13  14
ENDBRANCH  12  13
ENDBRANCH  11  12
ENDBRANCH   1   9
BRANCH   3  22
ATOM     22  C   UNL d   1      32.982  22.325 -21.425  0.00  0.00     0.316 C 
ATOM     23  O   UNL d   1      33.239  22.897 -21.960  0.00  0.00    -0.257 OA
BRANCH  22  24
ATOM     24  O   UNL d   1      32.696  22.545 -20.686  0.00  0.00    -0.270 OA
BRANCH  24  25
ATOM     25  C   UNL d   1      32.650  23.346 -20.486  0.00  0.00     0.126 C 
ATOM     26  C   UNL d   1      32.134  23.597 -19.901  0.00  0.00     0.029 C 
ENDBRANCH  24  25
ENDBRANCH  22  24
ENDBRANCH   3  22
TORSDOF 8
ENDMDL
