MODEL 1
REMARK VINA RESULT:      45.8      0.000      0.000
REMARK  5 active torsions:
REMARK  status: ('A' for Active; 'I' for Inactive)
REMARK    1  A    between atoms: C_7  and  C_1 
REMARK    2  A    between atoms: C_6  and  C_3 
REMARK       I    between atoms: N_8  and  C_6 
REMARK    3  A    between atoms: O_14  and  C_7 
REMARK    4  A    between atoms: C_13  and  N_8 
REMARK    5  A    between atoms: C_15  and  O_14 
ROOT
ATOM      1  C   UNL d   1      58.456  49.274  50.463  0.00  0.00     0.090 A 
ATOM      2  C   UNL d   1      58.754  49.565  51.180  0.00  0.00     0.138 A 
ATOM      3  C   UNL d   1      59.744  49.485  50.333  0.00  0.00     0.089 A 
ATOM      4  C   UNL d   1      59.090  49.227  49.937  0.00  0.00     0.018 A 
ATOM      5  S   UNL d   1      59.551  49.680  51.049  0.00  0.00    -0.061 SA
ATOM      6  N   UNL d   1      58.296  49.701  51.875  0.00  0.00    -0.141 N 
ATOM      7  C   UNL d   1      59.014  48.950  49.129  0.00  0.00     0.001 C 
ENDROOT
BRANCH   3   8
ATOM      8  C   UNL d   1      60.458  49.499  49.943  0.00  0.00     0.285 C 
ATOM      9  N   UNL d   1      61.129  49.312  50.351  0.00  0.00    -0.208 NA
ATOM     10  O   UNL d   1      60.476  49.705  49.134  0.00  0.00    -0.265 OA
BRANCH   9  11
ATOM     11  C   UNL d   1      61.091  49.112  51.148  0.00  0.00     0.085 A 
ATOM     12  C   UNL d   1      60.882  48.406  51.390  0.00  0.00     0.019 A 
ATOM     13  C   UNL d   1      60.862  48.268  52.176  0.00  0.00     0.002 A 
ATOM     14  C   UNL d   1      61.039  48.792  52.735  0.00  0.00     0.000 A 
ATOM     15  C   UNL d   1      61.269  49.564  52.533  0.00  0.00     0.002 A 
ATOM     16  C   UNL d   1      61.288  49.704  51.700  0.00  0.00     0.019 A 
ENDBRANCH   9  11
ENDBRANCH   3   8
BRANCH   1  17
ATOM     17  C   UNL d   1      57.683  49.075  50.320  0.00  0.00     0.302 C 
ATOM     18  O   UNL d   1      57.456  48.272  50.247  0.00  0.00    -0.259 OA
BRANCH  17  19
ATOM     19  O   UNL d   1      57.099  49.652  50.242  0.00  0.00    -0.271 OA
BRANCH  19  20
ATOM     20  C   UNL d   1      56.440  49.483  49.783  0.00  0.00     0.126 C 
ATOM     21  C   UNL d   1      56.520  48.962  49.149  0.00  0.00     0.029 C 
ENDBRANCH  19  20
ENDBRANCH  17  19
ENDBRANCH   1  17
TORSDOF 5
ENDMDL
MODEL 2
REMARK VINA RESULT:      48.6      1.212      3.943
REMARK  5 active torsions:
REMARK  status: ('A' for Active; 'I' for Inactive)
REMARK    1  A    between atoms: C_7  and  C_1 
REMARK    2  A    between atoms: C_6  and  C_3 
REMARK       I    between atoms: N_8  and  C_6 
REMARK    3  A    between atoms: O_14  and  C_7 
REMARK    4  A    between atoms: C_13  and  N_8 
REMARK    5  A    between atoms: C_15  and  O_14 
ROOT
ATOM      1  C   UNL d   1      60.151  49.411  50.877  0.00  0.00     0.090 A 
ATOM      2  C   UNL d   1      59.731  49.533  50.172  0.00  0.00     0.138 A 
ATOM      3  C   UNL d   1      58.884  49.598  51.162  0.00  0.00     0.089 A 
ATOM      4  C   UNL d   1      59.605  49.455  51.495  0.00  0.00     0.018 A 
ATOM      5  S   UNL d   1      58.957  49.643  50.400  0.00  0.00    -0.061 SA
ATOM      6  N   UNL d   1      60.072  49.534  49.400  0.00  0.00    -0.141 N 
ATOM      7  C   UNL d   1      59.817  49.359  52.320  0.00  0.00     0.001 C 
ENDROOT
BRANCH   3   8
ATOM      8  C   UNL d   1      58.235  49.668  51.649  0.00  0.00     0.285 C 
ATOM      9  N   UNL d   1      57.500  49.704  51.316  0.00  0.00    -0.208 NA
ATOM     10  O   UNL d   1      58.348  49.701  52.475  0.00  0.00    -0.265 OA
BRANCH   9  11
ATOM     11  C   UNL d   1      57.410  49.671  50.499  0.00  0.00     0.085 A 
ATOM     12  C   UNL d   1      58.012  49.611  50.015  0.00  0.00     0.019 A 
ATOM     13  C   UNL d   1      57.864  49.582  49.231  0.00  0.00     0.002 A 
ATOM     14  C   UNL d   1      57.151  49.609  48.901  0.00  0.00     0.000 A 
ATOM     15  C   UNL d   1      56.469  49.673  49.372  0.00  0.00     0.002 A 
ATOM     16  C   UNL d   1      56.632  49.703  50.200  0.00  0.00     0.019 A 
ENDBRANCH   9  11
ENDBRANCH   3   8
BRANCH   1  17
ATOM     17  C   UNL d   1      60.948  49.276  50.934  0.00  0.00     0.302 C 
ATOM     18  O   UNL d   1      61.471  49.558  50.344  0.00  0.00    -0.259 OA
BRANCH  17  19
ATOM     19  O   UNL d   1      61.268  48.860  51.570  0.00  0.00    -0.271 OA
BRANCH  19  20
ATOM     20  C   UNL d   1      61.835  49.230  52.035  0.00  0.00     0.126 C 
ATOM     21  C   UNL d   1      62.532  49.489  51.680  0.00  0.00     0.029 C 
ENDBRANCH  19  20
ENDBRANCH  17  19
ENDBRANCH   1  17
TORSDOF 5
ENDMDL
