MODEL 1
REMARK VINA RESULT:      -3.4      0.000      0.000
REMARK  3 active torsions:
REMARK  status: ('A' for Active; 'I' for Inactive)
REMARK    1  A    between atoms: C_6  and  C_2 
REMARK    2  A    between atoms: O_7  and  C_6 
REMARK    3  A    between atoms: C_8  and  O_7 
ROOT
ATOM      1  N   UNL d   1      32.514  18.870 -23.429  0.00  0.00    -0.224 NA
ATOM      2  C   UNL d   1      32.925  19.039 -22.728  0.00  0.00     0.188 A 
ATOM      3  N   UNL d   1      33.240  18.318 -22.465  0.00  0.00    -0.224 NA
ATOM      4  C   UNL d   1      32.577  18.075 -23.587  0.00  0.00     0.101 A 
ATOM      5  C   UNL d   1      33.030  17.732 -22.987  0.00  0.00     0.101 A 
ATOM      6  C   UNL d   1      32.296  17.592 -24.186  0.00  0.00     0.021 A 
ATOM      7  C   UNL d   1      33.189  16.913 -23.001  0.00  0.00     0.021 A 
ATOM      8  C   UNL d   1      32.895  16.473 -23.606  0.00  0.00     0.002 A 
ATOM      9  C   UNL d   1      32.443  16.817 -24.206  0.00  0.00     0.002 A 
ENDROOT
BRANCH   2  10
ATOM     10  C   UNL d   1      32.878  19.820 -22.548  0.00  0.00     0.161 C 
BRANCH  10  11
ATOM     11  O   UNL d   1      32.990  20.082 -21.760  0.00  0.00    -0.302 OA
BRANCH  11  12
ATOM     12  C   UNL d   1      32.829  20.870 -21.543  0.00  0.00     0.100 A 
ATOM     13  C   UNL d   1      33.241  21.482 -21.899  0.00  0.00     0.025 A 
ATOM     14  C   UNL d   1      33.101  22.272 -21.703  0.00  0.00     0.002 A 
ATOM     15  C   UNL d   1      32.526  22.417 -21.130  0.00  0.00     0.000 A 
ATOM     16  C   UNL d   1      32.111  21.804 -20.771  0.00  0.00     0.002 A 
ATOM     17  C   UNL d   1      32.365  23.205 -20.914  0.00  0.00     0.000 C 
ATOM     18  C   UNL d   1      32.254  21.020 -20.970  0.00  0.00     0.025 A 
ENDBRANCH  11  12
ENDBRANCH  10  11
ENDBRANCH   2  10
TORSDOF 3
ENDMDL
MODEL 2
REMARK VINA RESULT:      -2.4      1.051      4.692
REMARK  3 active torsions:
REMARK  status: ('A' for Active; 'I' for Inactive)
REMARK    1  A    between atoms: C_6  and  C_2 
REMARK    2  A    between atoms: O_7  and  C_6 
REMARK    3  A    between atoms: C_8  and  O_7 
ROOT
ATOM      1  N   UNL d   1      33.177  20.955 -22.195  0.00  0.00    -0.224 NA
ATOM      2  C   UNL d   1      32.659  20.315 -22.094  0.00  0.00     0.188 A 
ATOM      3  N   UNL d   1      32.109  20.550 -21.520  0.00  0.00    -0.224 NA
ATOM      4  C   UNL d   1      32.951  21.558 -21.700  0.00  0.00     0.101 A 
ATOM      5  C   UNL d   1      32.285  21.306 -21.279  0.00  0.00     0.101 A 
ATOM      6  C   UNL d   1      33.240  22.311 -21.554  0.00  0.00     0.021 A 
ATOM      7  C   UNL d   1      31.927  21.813 -20.723  0.00  0.00     0.021 A 
ATOM      8  C   UNL d   1      32.240  22.544 -20.608  0.00  0.00     0.002 A 
ATOM      9  C   UNL d   1      32.906  22.797 -21.029  0.00  0.00     0.002 A 
ENDROOT
BRANCH   2  10
ATOM     10  C   UNL d   1      32.861  19.703 -22.574  0.00  0.00     0.161 C 
BRANCH  10  11
ATOM     11  O   UNL d   1      32.288  19.135 -22.802  0.00  0.00    -0.302 OA
BRANCH  11  12
ATOM     12  C   UNL d   1      32.496  18.484 -23.278  0.00  0.00     0.100 A 
ATOM     13  C   UNL d   1      33.012  17.917 -22.990  0.00  0.00     0.025 A 
ATOM     14  C   UNL d   1      33.234  17.263 -23.441  0.00  0.00     0.002 A 
ATOM     15  C   UNL d   1      32.912  17.205 -24.198  0.00  0.00     0.000 A 
ATOM     16  C   UNL d   1      32.394  17.772 -24.490  0.00  0.00     0.002 A 
ATOM     17  C   UNL d   1      33.120  16.554 -24.674  0.00  0.00     0.000 C 
ATOM     18  C   UNL d   1      32.176  18.422 -24.037  0.00  0.00     0.025 A 
ENDBRANCH  11  12
ENDBRANCH  10  11
ENDBRANCH   2  10
TORSDOF 3
ENDMDL
MODEL 3
REMARK VINA RESULT:      -1.6      2.839      4.100
REMARK  3 active torsions:
REMARK  status: ('A' for Active; 'I' for Inactive)
REMARK    1  A    between atoms: C_6  and  C_2 
REMARK    2  A    between atoms: O_7  and  C_6 
REMARK    3  A    between atoms: C_8  and  O_7 
ROOT
ATOM      1  N   UNL d   1      29.915  16.892 -24.396  0.00  0.00    -0.224 NA
ATOM      2  C   UNL d   1      30.661  16.636 -24.139  0.00  0.00     0.188 A 
ATOM      3  N   UNL d   1      30.521  16.052 -23.566  0.00  0.00    -0.224 NA
ATOM      4  C   UNL d   1      29.341  16.479 -23.995  0.00  0.00     0.101 A 
ATOM      5  C   UNL d   1      29.719  15.956 -23.478  0.00  0.00     0.101 A 
ATOM      6  C   UNL d   1      28.522  16.487 -24.009  0.00  0.00     0.021 A 
ATOM      7  C   UNL d   1      29.267  15.455 -22.988  0.00  0.00     0.021 A 
ATOM      8  C   UNL d   1      28.466  15.493 -23.032  0.00  0.00     0.002 A 
ATOM      9  C   UNL d   1      28.088  16.016 -23.549  0.00  0.00     0.002 A 
ENDROOT
BRANCH   2  10
ATOM     10  C   UNL d   1      31.248  17.029 -24.521  0.00  0.00     0.161 C 
BRANCH  10  11
ATOM     11  O   UNL d   1      31.938  17.267 -24.109  0.00  0.00    -0.302 OA
BRANCH  11  12
ATOM     12  C   UNL d   1      32.268  18.023 -24.226  0.00  0.00     0.100 A 
ATOM     13  C   UNL d   1      32.404  18.512 -23.584  0.00  0.00     0.025 A 
ATOM     14  C   UNL d   1      32.729  19.265 -23.672  0.00  0.00     0.002 A 
ATOM     15  C   UNL d   1      32.912  19.504 -24.440  0.00  0.00     0.000 A 
ATOM     16  C   UNL d   1      32.776  19.016 -25.088  0.00  0.00     0.002 A 
ATOM     17  C   UNL d   1      33.241  20.260 -24.557  0.00  0.00     0.000 C 
ATOM     18  C   UNL d   1      32.452  18.266 -24.993  0.00  0.00     0.025 A 
ENDBRANCH  11  12
ENDBRANCH  10  11
ENDBRANCH   2  10
TORSDOF 3
ENDMDL
MODEL 4
REMARK VINA RESULT:      -1.5      2.792      5.144
REMARK  3 active torsions:
REMARK  status: ('A' for Active; 'I' for Inactive)
REMARK    1  A    between atoms: C_6  and  C_2 
REMARK    2  A    between atoms: O_7  and  C_6 
REMARK    3  A    between atoms: C_8  and  O_7 
ROOT
ATOM      1  N   UNL d   1      31.759  18.014 -23.432  0.00  0.00    -0.224 NA
ATOM      2  C   UNL d   1      31.600  17.573 -24.117  0.00  0.00     0.188 A 
ATOM      3  N   UNL d   1      32.020  17.939 -24.732  0.00  0.00    -0.224 NA
ATOM      4  C   UNL d   1      32.258  18.626 -23.623  0.00  0.00     0.101 A 
ATOM      5  C   UNL d   1      32.421  18.579 -24.433  0.00  0.00     0.101 A 
ATOM      6  C   UNL d   1      32.603  19.233 -23.193  0.00  0.00     0.021 A 
ATOM      7  C   UNL d   1      32.923  19.140 -24.791  0.00  0.00     0.021 A 
ATOM      8  C   UNL d   1      33.241  19.721 -24.335  0.00  0.00     0.002 A 
ATOM      9  C   UNL d   1      33.079  19.768 -23.526  0.00  0.00     0.002 A 
ENDROOT
BRANCH   2  10
ATOM     10  C   UNL d   1      31.107  16.959 -23.955  0.00  0.00     0.161 C 
BRANCH  10  11
ATOM     11  O   UNL d   1      30.414  16.840 -24.412  0.00  0.00    -0.302 OA
BRANCH  11  12
ATOM     12  C   UNL d   1      29.736  16.491 -24.077  0.00  0.00     0.100 A 
ATOM     13  C   UNL d   1      29.002  16.834 -24.194  0.00  0.00     0.025 A 
ATOM     14  C   UNL d   1      28.314  16.508 -23.874  0.00  0.00     0.002 A 
ATOM     15  C   UNL d   1      28.400  15.819 -23.429  0.00  0.00     0.000 A 
ATOM     16  C   UNL d   1      29.136  15.472 -23.310  0.00  0.00     0.002 A 
ATOM     17  C   UNL d   1      27.722  15.470 -23.094  0.00  0.00     0.000 C 
ATOM     18  C   UNL d   1      29.818  15.801 -23.631  0.00  0.00     0.025 A 
ENDBRANCH  11  12
ENDBRANCH  10  11
ENDBRANCH   2  10
TORSDOF 3
ENDMDL
MODEL 5
REMARK VINA RESULT:      -1.5      3.322      4.670
REMARK  3 active torsions:
REMARK  status: ('A' for Active; 'I' for Inactive)
REMARK    1  A    between atoms: C_6  and  C_2 
REMARK    2  A    between atoms: O_7  and  C_6 
REMARK    3  A    between atoms: C_8  and  O_7 
ROOT
ATOM      1  N   UNL d   1      32.777  23.325 -21.112  0.00  0.00    -0.224 NA
ATOM      2  C   UNL d   1      33.040  22.715 -20.614  0.00  0.00     0.188 A 
ATOM      3  N   UNL d   1      33.156  22.053 -21.100  0.00  0.00    -0.224 NA
ATOM      4  C   UNL d   1      32.735  23.044 -21.874  0.00  0.00     0.101 A 
ATOM      5  C   UNL d   1      32.971  22.252 -21.866  0.00  0.00     0.101 A 
ATOM      6  C   UNL d   1      32.518  23.378 -22.590  0.00  0.00     0.021 A 
ATOM      7  C   UNL d   1      32.984  21.814 -22.575  0.00  0.00     0.021 A 
ATOM      8  C   UNL d   1      32.764  22.177 -23.258  0.00  0.00     0.002 A 
ATOM      9  C   UNL d   1      32.527  22.969 -23.265  0.00  0.00     0.002 A 
ENDROOT
BRANCH   2  10
ATOM     10  C   UNL d   1      33.091  22.967 -19.853  0.00  0.00     0.161 C 
BRANCH  10  11
ATOM     11  O   UNL d   1      33.131  22.414 -19.225  0.00  0.00    -0.302 OA
BRANCH  11  12
ATOM     12  C   UNL d   1      33.106  22.665 -18.431  0.00  0.00     0.100 A 
ATOM     13  C   UNL d   1      33.240  22.126 -17.829  0.00  0.00     0.025 A 
ATOM     14  C   UNL d   1      33.221  22.349 -17.034  0.00  0.00     0.002 A 
ATOM     15  C   UNL d   1      33.059  23.141 -16.874  0.00  0.00     0.000 A 
ATOM     16  C   UNL d   1      32.923  23.685 -17.476  0.00  0.00     0.002 A 
ATOM     17  C   UNL d   1      33.033  23.392 -16.080  0.00  0.00     0.000 C 
ATOM     18  C   UNL d   1      32.944  23.457 -18.265  0.00  0.00     0.025 A 
ENDBRANCH  11  12
ENDBRANCH  10  11
ENDBRANCH   2  10
TORSDOF 3
ENDMDL
MODEL 6
REMARK VINA RESULT:      -1.2      3.498      5.594
REMARK  3 active torsions:
REMARK  status: ('A' for Active; 'I' for Inactive)
REMARK    1  A    between atoms: C_6  and  C_2 
REMARK    2  A    between atoms: O_7  and  C_6 
REMARK    3  A    between atoms: C_8  and  O_7 
ROOT
ATOM      1  N   UNL d   1      33.201  22.319 -18.962  0.00  0.00    -0.224 NA
ATOM      2  C   UNL d   1      32.688  22.603 -19.549  0.00  0.00     0.188 A 
ATOM      3  N   UNL d   1      32.127  23.072 -19.159  0.00  0.00    -0.224 NA
ATOM      4  C   UNL d   1      32.961  22.605 -18.241  0.00  0.00     0.101 A 
ATOM      5  C   UNL d   1      32.291  23.075 -18.363  0.00  0.00     0.101 A 
ATOM      6  C   UNL d   1      33.240  22.519 -17.475  0.00  0.00     0.021 A 
ATOM      7  C   UNL d   1      31.918  23.446 -17.717  0.00  0.00     0.021 A 
ATOM      8  C   UNL d   1      32.222  23.337 -16.981  0.00  0.00     0.002 A 
ATOM      9  C   UNL d   1      32.892  22.868 -16.858  0.00  0.00     0.002 A 
ENDROOT
BRANCH   2  10
ATOM     10  C   UNL d   1      32.904  22.334 -20.275  0.00  0.00     0.161 C 
BRANCH  10  11
ATOM     11  O   UNL d   1      32.342  22.287 -20.895  0.00  0.00    -0.302 OA
BRANCH  11  12
ATOM     12  C   UNL d   1      32.570  22.394 -21.689  0.00  0.00     0.100 A 
ATOM     13  C   UNL d   1      32.467  23.123 -22.047  0.00  0.00     0.025 A 
ATOM     14  C   UNL d   1      32.685  23.256 -22.832  0.00  0.00     0.002 A 
ATOM     15  C   UNL d   1      33.011  22.618 -23.241  0.00  0.00     0.000 A 
ATOM     16  C   UNL d   1      33.115  21.885 -22.884  0.00  0.00     0.002 A 
ATOM     17  C   UNL d   1      33.239  22.725 -24.035  0.00  0.00     0.000 C 
ATOM     18  C   UNL d   1      32.897  21.758 -22.102  0.00  0.00     0.025 A 
ENDBRANCH  11  12
ENDBRANCH  10  11
ENDBRANCH   2  10
TORSDOF 3
ENDMDL
