MODEL 1
REMARK VINA RESULT:      -6.0      0.000      0.000
REMARK  6 active torsions:
REMARK  status: ('A' for Active; 'I' for Inactive)
REMARK    1  A    between atoms: N_2  and  S_1 
REMARK    2  A    between atoms: C_6  and  S_1 
REMARK    3  A    between atoms: S_9  and  C_3 
REMARK    4  A    between atoms: N_4  and  C_10 
REMARK    5  A    between atoms: C_19  and  S_9 
REMARK    6  A    between atoms: C_21  and  C_19 
ROOT
ATOM      1  N   UNL d   1     -39.906  14.893  20.368  0.00  0.00    -0.208 N 
ATOM      2  C   UNL d   1     -40.126  14.545  19.645  0.00  0.00     0.189 A 
ATOM      3  N   UNL d   1     -40.902  14.266  19.718  0.00  0.00    -0.219 NA
ATOM      4  C   UNL d   1     -40.552  14.826  20.889  0.00  0.00     0.114 A 
ATOM      5  C   UNL d   1     -41.161  14.442  20.485  0.00  0.00     0.121 A 
ENDROOT
BRANCH   1   6
ATOM      6  S   UNL d   1     -39.172  15.241  20.535  0.00  0.00     0.273 S 
ATOM      7  O   UNL d   1     -39.333  15.779  19.940  0.00  0.00    -0.200 OA
ATOM      8  O   UNL d   1     -38.514  15.742  20.514  0.00  0.00    -0.200 OA
BRANCH   6   9
ATOM      9  C   UNL d   1     -38.993  14.707  21.140  0.00  0.00     0.104 A 
ATOM     10  C   UNL d   1     -39.290  14.837  21.895  0.00  0.00     0.015 A 
ATOM     11  C   UNL d   1     -39.113  14.305  22.503  0.00  0.00     0.024 A 
ATOM     12  C   UNL d   1     -38.638  13.650  22.338  0.00  0.00     0.127 A 
ATOM     13  C   UNL d   1     -38.344  13.526  21.579  0.00  0.00     0.024 A 
ATOM     14  C   UNL d   1     -38.520  14.055  20.973  0.00  0.00     0.015 A 
BRANCH  12  15
ATOM     15  N   UNL d   1     -38.458  13.111  22.951  0.00  0.00    -0.114 N 
ATOM     16  O   UNL d   1     -38.805  13.212  23.697  0.00  0.00    -0.532 OA
ATOM     17  O   UNL d   1     -37.941  12.486  22.814  0.00  0.00    -0.532 OA
ENDBRANCH  12  15
ENDBRANCH   6   9
ENDBRANCH   1   6
BRANCH   2  18
ATOM     18  S   UNL d   1     -39.647  14.488  18.966  0.00  0.00    -0.049 SA
BRANCH  18  19
ATOM     19  C   UNL d   1     -39.935  14.110  18.291  0.00  0.00     0.038 C 
BRANCH  19  20
ATOM     20  C   UNL d   1     -39.440  13.998  17.642  0.00  0.00     0.007 A 
ATOM     21  C   UNL d   1     -39.402  14.560  17.042  0.00  0.00     0.003 A 
ATOM     22  C   UNL d   1     -38.897  14.432  16.391  0.00  0.00     0.030 A 
ATOM     23  C   UNL d   1     -38.438  13.747  16.351  0.00  0.00     0.140 A 
ATOM     24  C   UNL d   1     -38.473  13.185  16.948  0.00  0.00     0.030 A 
ATOM     25  F   UNL d   1     -37.940  13.627  15.705  0.00  0.00    -0.204 F 
ATOM     26  C   UNL d   1     -38.969  13.305  17.590  0.00  0.00     0.003 A 
ENDBRANCH  19  20
ENDBRANCH  18  19
ENDBRANCH   2  18
TORSDOF 6
ENDMDL
MODEL 2
REMARK VINA RESULT:      -5.3      7.096      8.551
REMARK  6 active torsions:
REMARK  status: ('A' for Active; 'I' for Inactive)
REMARK    1  A    between atoms: N_2  and  S_1 
REMARK    2  A    between atoms: C_6  and  S_1 
REMARK    3  A    between atoms: S_9  and  C_3 
REMARK    4  A    between atoms: N_4  and  C_10 
REMARK    5  A    between atoms: C_19  and  S_9 
REMARK    6  A    between atoms: C_21  and  C_19 
ROOT
ATOM      1  N   UNL d   1     -46.911  13.024  23.176  0.00  0.00    -0.208 N 
ATOM      2  C   UNL d   1     -46.258  12.543  22.993  0.00  0.00     0.189 A 
ATOM      3  N   UNL d   1     -46.390  11.792  23.315  0.00  0.00    -0.219 NA
ATOM      4  C   UNL d   1     -47.449  12.564  23.615  0.00  0.00     0.114 A 
ATOM      5  C   UNL d   1     -47.125  11.810  23.698  0.00  0.00     0.121 A 
ENDROOT
BRANCH   1   6
ATOM      6  S   UNL d   1     -47.006  13.818  22.959  0.00  0.00     0.273 S 
ATOM      7  O   UNL d   1     -46.283  13.964  23.314  0.00  0.00    -0.200 OA
ATOM      8  O   UNL d   1     -46.875  14.630  22.858  0.00  0.00    -0.200 OA
BRANCH   6   9
ATOM      9  C   UNL d   1     -47.737  13.691  22.596  0.00  0.00     0.104 A 
ATOM     10  C   UNL d   1     -47.762  13.485  21.801  0.00  0.00     0.015 A 
ATOM     11  C   UNL d   1     -48.492  13.357  21.434  0.00  0.00     0.024 A 
ATOM     12  C   UNL d   1     -49.184  13.438  21.876  0.00  0.00     0.127 A 
ATOM     13  C   UNL d   1     -49.151  13.644  22.672  0.00  0.00     0.024 A 
ATOM     14  C   UNL d   1     -48.426  13.772  23.039  0.00  0.00     0.015 A 
BRANCH  12  15
ATOM     15  N   UNL d   1     -49.923  13.308  21.506  0.00  0.00    -0.114 N 
ATOM     16  O   UNL d   1     -50.207  12.535  21.422  0.00  0.00    -0.532 OA
ATOM     17  O   UNL d   1     -50.364  13.946  21.229  0.00  0.00    -0.532 OA
ENDBRANCH  12  15
ENDBRANCH   6   9
ENDBRANCH   1   6
BRANCH   2  18
ATOM     18  S   UNL d   1     -45.586  12.779  22.559  0.00  0.00    -0.049 SA
BRANCH  18  19
ATOM     19  C   UNL d   1     -45.020  12.218  22.344  0.00  0.00     0.038 C 
BRANCH  19  20
ATOM     20  C   UNL d   1     -44.309  12.463  22.007  0.00  0.00     0.007 A 
ATOM     21  C   UNL d   1     -44.297  13.071  21.452  0.00  0.00     0.003 A 
ATOM     22  C   UNL d   1     -43.570  13.308  21.120  0.00  0.00     0.030 A 
ATOM     23  C   UNL d   1     -42.869  12.935  21.346  0.00  0.00     0.140 A 
ATOM     24  C   UNL d   1     -42.878  12.329  21.899  0.00  0.00     0.030 A 
ATOM     25  F   UNL d   1     -42.153  13.175  21.013  0.00  0.00    -0.204 F 
ATOM     26  C   UNL d   1     -43.590  12.091  22.229  0.00  0.00     0.003 A 
ENDBRANCH  19  20
ENDBRANCH  18  19
ENDBRANCH   2  18
TORSDOF 6
ENDMDL
MODEL 3
REMARK VINA RESULT:      -5.0      2.433      4.615
REMARK  6 active torsions:
REMARK  status: ('A' for Active; 'I' for Inactive)
REMARK    1  A    between atoms: N_2  and  S_1 
REMARK    2  A    between atoms: C_6  and  S_1 
REMARK    3  A    between atoms: S_9  and  C_3 
REMARK    4  A    between atoms: N_4  and  C_10 
REMARK    5  A    between atoms: C_19  and  S_9 
REMARK    6  A    between atoms: C_21  and  C_19 
ROOT
ATOM      1  N   UNL d   1     -39.747  14.934  18.544  0.00  0.00    -0.208 N 
ATOM      2  C   UNL d   1     -39.960  14.568  19.260  0.00  0.00     0.189 A 
ATOM      3  N   UNL d   1     -40.703  14.217  19.160  0.00  0.00    -0.219 NA
ATOM      4  C   UNL d   1     -40.364  14.806  18.000  0.00  0.00     0.114 A 
ATOM      5  C   UNL d   1     -40.948  14.365  18.382  0.00  0.00     0.121 A 
ENDROOT
BRANCH   1   6
ATOM      6  S   UNL d   1     -39.045  15.351  18.401  0.00  0.00     0.273 S 
ATOM      7  O   UNL d   1     -39.262  15.852  19.010  0.00  0.00    -0.200 OA
ATOM      8  O   UNL d   1     -38.433  15.907  18.451  0.00  0.00    -0.200 OA
BRANCH   6   9
ATOM      9  C   UNL d   1     -38.809  14.854  17.784  0.00  0.00     0.104 A 
ATOM     10  C   UNL d   1     -39.099  14.987  17.027  0.00  0.00     0.015 A 
ATOM     11  C   UNL d   1     -38.865  14.492  16.406  0.00  0.00     0.024 A 
ATOM     12  C   UNL d   1     -38.343  13.873  16.561  0.00  0.00     0.127 A 
ATOM     13  C   UNL d   1     -38.056  13.746  17.322  0.00  0.00     0.024 A 
ATOM     14  C   UNL d   1     -38.287  14.237  17.940  0.00  0.00     0.015 A 
BRANCH  12  15
ATOM     15  N   UNL d   1     -38.106  13.372  15.934  0.00  0.00    -0.114 N 
ATOM     16  O   UNL d   1     -37.940  12.576  16.089  0.00  0.00    -0.532 OA
ATOM     17  O   UNL d   1     -38.039  13.670  15.170  0.00  0.00    -0.532 OA
ENDBRANCH  12  15
ENDBRANCH   6   9
ENDBRANCH   1   6
BRANCH   2  18
ATOM     18  S   UNL d   1     -39.503  14.559  19.956  0.00  0.00    -0.049 SA
BRANCH  18  19
ATOM     19  C   UNL d   1     -39.844  14.312  20.667  0.00  0.00     0.038 C 
BRANCH  19  20
ATOM     20  C   UNL d   1     -39.365  14.159  21.319  0.00  0.00     0.007 A 
ATOM     21  C   UNL d   1     -38.814  13.548  21.299  0.00  0.00     0.003 A 
ATOM     22  C   UNL d   1     -38.336  13.405  21.967  0.00  0.00     0.030 A 
ATOM     23  C   UNL d   1     -38.416  13.874  22.643  0.00  0.00     0.140 A 
ATOM     24  C   UNL d   1     -38.965  14.484  22.665  0.00  0.00     0.030 A 
ATOM     25  F   UNL d   1     -37.940  13.727  23.300  0.00  0.00    -0.204 F 
ATOM     26  C   UNL d   1     -39.437  14.629  22.011  0.00  0.00     0.003 A 
ENDBRANCH  19  20
ENDBRANCH  18  19
ENDBRANCH   2  18
TORSDOF 6
ENDMDL
MODEL 4
REMARK VINA RESULT:      -4.6      2.579      4.968
REMARK  6 active torsions:
REMARK  status: ('A' for Active; 'I' for Inactive)
REMARK    1  A    between atoms: N_2  and  S_1 
REMARK    2  A    between atoms: C_6  and  S_1 
REMARK    3  A    between atoms: S_9  and  C_3 
REMARK    4  A    between atoms: N_4  and  C_10 
REMARK    5  A    between atoms: C_19  and  S_9 
REMARK    6  A    between atoms: C_21  and  C_19 
ROOT
ATOM      1  N   UNL d   1     -38.711  14.819  18.534  0.00  0.00    -0.208 N 
ATOM      2  C   UNL d   1     -38.555  15.160  19.276  0.00  0.00     0.189 A 
ATOM      3  N   UNL d   1     -38.101  15.843  19.157  0.00  0.00    -0.219 NA
ATOM      4  C   UNL d   1     -38.350  15.295  17.955  0.00  0.00     0.114 A 
ATOM      5  C   UNL d   1     -37.977  15.922  18.341  0.00  0.00     0.121 A 
ENDROOT
BRANCH   1   6
ATOM      6  S   UNL d   1     -39.148  14.128  18.401  0.00  0.00     0.273 S 
ATOM      7  O   UNL d   1     -38.589  13.731  18.847  0.00  0.00    -0.200 OA
ATOM      8  O   UNL d   1     -39.399  13.338  18.409  0.00  0.00    -0.200 OA
BRANCH   6   9
ATOM      9  C   UNL d   1     -39.723  14.511  17.947  0.00  0.00     0.104 A 
ATOM     10  C   UNL d   1     -40.317  14.936  18.323  0.00  0.00     0.015 A 
ATOM     11  C   UNL d   1     -40.894  15.321  17.872  0.00  0.00     0.024 A 
ATOM     12  C   UNL d   1     -40.860  15.271  17.050  0.00  0.00     0.127 A 
ATOM     13  C   UNL d   1     -40.262  14.844  16.680  0.00  0.00     0.024 A 
ATOM     14  C   UNL d   1     -39.687  14.460  17.126  0.00  0.00     0.015 A 
BRANCH  12  15
ATOM     15  N   UNL d   1     -41.443  15.660  16.593  0.00  0.00    -0.114 N 
ATOM     16  O   UNL d   1     -41.255  15.921  15.829  0.00  0.00    -0.532 OA
ATOM     17  O   UNL d   1     -42.196  15.782  16.900  0.00  0.00    -0.532 OA
ENDBRANCH  12  15
ENDBRANCH   6   9
ENDBRANCH   1   6
BRANCH   2  18
ATOM     18  S   UNL d   1     -38.812  14.865  20.012  0.00  0.00    -0.049 SA
BRANCH  18  19
ATOM     19  C   UNL d   1     -38.468  15.146  20.709  0.00  0.00     0.038 C 
BRANCH  19  20
ATOM     20  C   UNL d   1     -38.599  14.748  21.418  0.00  0.00     0.007 A 
ATOM     21  C   UNL d   1     -39.366  14.586  21.671  0.00  0.00     0.003 A 
ATOM     22  C   UNL d   1     -39.483  14.183  22.392  0.00  0.00     0.030 A 
ATOM     23  C   UNL d   1     -38.835  13.949  22.847  0.00  0.00     0.140 A 
ATOM     24  C   UNL d   1     -38.070  14.109  22.597  0.00  0.00     0.030 A 
ATOM     25  F   UNL d   1     -38.958  13.551  23.558  0.00  0.00    -0.204 F 
ATOM     26  C   UNL d   1     -37.948  14.505  21.889  0.00  0.00     0.003 A 
ENDBRANCH  19  20
ENDBRANCH  18  19
ENDBRANCH   2  18
TORSDOF 6
ENDMDL
MODEL 5
REMARK VINA RESULT:      -4.4      2.240      3.153
REMARK  6 active torsions:
REMARK  status: ('A' for Active; 'I' for Inactive)
REMARK    1  A    between atoms: N_2  and  S_1 
REMARK    2  A    between atoms: C_6  and  S_1 
REMARK    3  A    between atoms: S_9  and  C_3 
REMARK    4  A    between atoms: N_4  and  C_10 
REMARK    5  A    between atoms: C_19  and  S_9 
REMARK    6  A    between atoms: C_21  and  C_19 
ROOT
ATOM      1  N   UNL d   1     -39.539  15.355  17.851  0.00  0.00    -0.208 N 
ATOM      2  C   UNL d   1     -38.840  15.128  17.463  0.00  0.00     0.189 A 
ATOM      3  N   UNL d   1     -38.200  15.476  17.857  0.00  0.00    -0.219 NA
ATOM      4  C   UNL d   1     -39.327  15.847  18.489  0.00  0.00     0.114 A 
ATOM      5  C   UNL d   1     -38.505  15.918  18.488  0.00  0.00     0.121 A 
ENDROOT
BRANCH   1   6
ATOM      6  S   UNL d   1     -40.308  15.129  17.638  0.00  0.00     0.273 S 
ATOM      7  O   UNL d   1     -40.136  15.392  16.882  0.00  0.00    -0.200 OA
ATOM      8  O   UNL d   1     -40.997  14.993  17.200  0.00  0.00    -0.200 OA
BRANCH   6   9
ATOM      9  C   UNL d   1     -40.500  14.859  18.395  0.00  0.00     0.104 A 
ATOM     10  C   UNL d   1     -40.314  14.088  18.607  0.00  0.00     0.015 A 
ATOM     11  C   UNL d   1     -40.504  13.814  19.364  0.00  0.00     0.024 A 
ATOM     12  C   UNL d   1     -40.878  14.323  19.894  0.00  0.00     0.127 A 
ATOM     13  C   UNL d   1     -41.062  15.095  19.674  0.00  0.00     0.024 A 
ATOM     14  C   UNL d   1     -40.873  15.369  18.922  0.00  0.00     0.015 A 
BRANCH  12  15
ATOM     15  N   UNL d   1     -41.071  14.047  20.659  0.00  0.00    -0.114 N 
ATOM     16  O   UNL d   1     -40.476  13.986  21.233  0.00  0.00    -0.532 OA
ATOM     17  O   UNL d   1     -41.846  13.839  20.840  0.00  0.00    -0.532 OA
ENDBRANCH  12  15
ENDBRANCH   6   9
ENDBRANCH   1   6
BRANCH   2  18
ATOM     18  S   UNL d   1     -38.793  14.634  16.793  0.00  0.00    -0.049 SA
BRANCH  18  19
ATOM     19  C   UNL d   1     -38.078  14.564  16.385  0.00  0.00     0.038 C 
BRANCH  19  20
ATOM     20  C   UNL d   1     -38.073  14.261  15.619  0.00  0.00     0.007 A 
ATOM     21  C   UNL d   1     -38.185  13.456  15.486  0.00  0.00     0.003 A 
ATOM     22  C   UNL d   1     -38.177  13.164  14.705  0.00  0.00     0.030 A 
ATOM     23  C   UNL d   1     -38.057  13.679  14.071  0.00  0.00     0.140 A 
ATOM     24  C   UNL d   1     -37.945  14.482  14.201  0.00  0.00     0.030 A 
ATOM     25  F   UNL d   1     -38.050  13.384  13.301  0.00  0.00    -0.204 F 
ATOM     26  C   UNL d   1     -37.952  14.775  14.966  0.00  0.00     0.003 A 
ENDBRANCH  19  20
ENDBRANCH  18  19
ENDBRANCH   2  18
TORSDOF 6
ENDMDL
MODEL 6
REMARK VINA RESULT:      -4.0      2.905      4.744
REMARK  6 active torsions:
REMARK  status: ('A' for Active; 'I' for Inactive)
REMARK    1  A    between atoms: N_2  and  S_1 
REMARK    2  A    between atoms: C_6  and  S_1 
REMARK    3  A    between atoms: S_9  and  C_3 
REMARK    4  A    between atoms: N_4  and  C_10 
REMARK    5  A    between atoms: C_19  and  S_9 
REMARK    6  A    between atoms: C_21  and  C_19 
ROOT
ATOM      1  N   UNL d   1     -39.781  15.552  18.645  0.00  0.00    -0.208 N 
ATOM      2  C   UNL d   1     -39.894  15.276  19.421  0.00  0.00     0.189 A 
ATOM      3  N   UNL d   1     -39.225  15.473  19.867  0.00  0.00    -0.219 NA
ATOM      4  C   UNL d   1     -39.036  15.922  18.614  0.00  0.00     0.114 A 
ATOM      5  C   UNL d   1     -38.698  15.871  19.365  0.00  0.00     0.121 A 
ENDROOT
BRANCH   1   6
ATOM      6  S   UNL d   1     -40.317  15.471  18.018  0.00  0.00     0.273 S 
ATOM      7  O   UNL d   1     -40.843  15.918  18.457  0.00  0.00    -0.200 OA
ATOM      8  O   UNL d   1     -40.996  15.530  17.547  0.00  0.00    -0.200 OA
BRANCH   6   9
ATOM      9  C   UNL d   1     -39.799  15.018  17.560  0.00  0.00     0.104 A 
ATOM     10  C   UNL d   1     -39.780  14.203  17.660  0.00  0.00     0.015 A 
ATOM     11  C   UNL d   1     -39.263  13.746  17.203  0.00  0.00     0.024 A 
ATOM     12  C   UNL d   1     -38.775  14.120  16.653  0.00  0.00     0.127 A 
ATOM     13  C   UNL d   1     -38.801  14.937  16.558  0.00  0.00     0.024 A 
ATOM     14  C   UNL d   1     -39.314  15.393  17.011  0.00  0.00     0.015 A 
BRANCH  12  15
ATOM     15  N   UNL d   1     -38.253  13.660  16.190  0.00  0.00    -0.114 N 
ATOM     16  O   UNL d   1     -37.952  13.970  15.483  0.00  0.00    -0.532 OA
ATOM     17  O   UNL d   1     -38.039  12.904  16.437  0.00  0.00    -0.532 OA
ENDBRANCH  12  15
ENDBRANCH   6   9
ENDBRANCH   1   6
BRANCH   2  18
ATOM     18  S   UNL d   1     -40.567  14.871  19.701  0.00  0.00    -0.049 SA
BRANCH  18  19
ATOM     19  C   UNL d   1     -40.648  14.719  20.509  0.00  0.00     0.038 C 
BRANCH  19  20
ATOM     20  C   UNL d   1     -41.282  14.268  20.778  0.00  0.00     0.007 A 
ATOM     21  C   UNL d   1     -41.234  13.447  20.797  0.00  0.00     0.003 A 
ATOM     22  C   UNL d   1     -41.884  13.004  21.072  0.00  0.00     0.030 A 
ATOM     23  C   UNL d   1     -42.571  13.388  21.325  0.00  0.00     0.140 A 
ATOM     24  C   UNL d   1     -42.621  14.207  21.308  0.00  0.00     0.030 A 
ATOM     25  F   UNL d   1     -43.210  12.944  21.596  0.00  0.00    -0.204 F 
ATOM     26  C   UNL d   1     -41.985  14.647  21.038  0.00  0.00     0.003 A 
ENDBRANCH  19  20
ENDBRANCH  18  19
ENDBRANCH   2  18
TORSDOF 6
ENDMDL
MODEL 7
REMARK VINA RESULT:      -4.0      1.621      2.347
REMARK  6 active torsions:
REMARK  status: ('A' for Active; 'I' for Inactive)
REMARK    1  A    between atoms: N_2  and  S_1 
REMARK    2  A    between atoms: C_6  and  S_1 
REMARK    3  A    between atoms: S_9  and  C_3 
REMARK    4  A    between atoms: N_4  and  C_10 
REMARK    5  A    between atoms: C_19  and  S_9 
REMARK    6  A    between atoms: C_21  and  C_19 
ROOT
ATOM      1  N   UNL d   1     -39.400  14.958  20.100  0.00  0.00    -0.208 N 
ATOM      2  C   UNL d   1     -38.796  14.620  19.640  0.00  0.00     0.189 A 
ATOM      3  N   UNL d   1     -38.245  14.272  20.151  0.00  0.00    -0.219 NA
ATOM      4  C   UNL d   1     -39.219  14.816  20.900  0.00  0.00     0.114 A 
ATOM      5  C   UNL d   1     -38.510  14.395  20.927  0.00  0.00     0.121 A 
ENDROOT
BRANCH   1   6
ATOM      6  S   UNL d   1     -40.063  15.362  19.809  0.00  0.00     0.273 S 
ATOM      7  O   UNL d   1     -39.544  15.912  19.495  0.00  0.00    -0.200 OA
ATOM      8  O   UNL d   1     -40.544  15.921  19.432  0.00  0.00    -0.200 OA
BRANCH   6   9
ATOM      9  C   UNL d   1     -40.602  14.818  20.120  0.00  0.00     0.104 A 
ATOM     10  C   UNL d   1     -40.843  14.890  20.902  0.00  0.00     0.015 A 
ATOM     11  C   UNL d   1     -41.382  14.346  21.216  0.00  0.00     0.024 A 
ATOM     12  C   UNL d   1     -41.669  13.741  20.734  0.00  0.00     0.127 A 
ATOM     13  C   UNL d   1     -41.423  13.675  19.952  0.00  0.00     0.024 A 
ATOM     14  C   UNL d   1     -40.887  14.214  19.638  0.00  0.00     0.015 A 
BRANCH  12  15
ATOM     15  N   UNL d   1     -42.214  13.191  21.051  0.00  0.00    -0.114 N 
ATOM     16  O   UNL d   1     -42.806  12.877  20.563  0.00  0.00    -0.532 OA
ATOM     17  O   UNL d   1     -42.162  12.965  21.840  0.00  0.00    -0.532 OA
ENDBRANCH  12  15
ENDBRANCH   6   9
ENDBRANCH   1   6
BRANCH   2  18
ATOM     18  S   UNL d   1     -38.753  14.630  18.808  0.00  0.00    -0.049 SA
BRANCH  18  19
ATOM     19  C   UNL d   1     -38.104  14.291  18.426  0.00  0.00     0.038 C 
BRANCH  19  20
ATOM     20  C   UNL d   1     -38.134  14.150  17.615  0.00  0.00     0.007 A 
ATOM     21  C   UNL d   1     -37.986  14.756  17.079  0.00  0.00     0.003 A 
ATOM     22  C   UNL d   1     -38.021  14.598  16.261  0.00  0.00     0.030 A 
ATOM     23  C   UNL d   1     -38.202  13.838  15.992  0.00  0.00     0.140 A 
ATOM     24  C   UNL d   1     -38.350  13.232  16.525  0.00  0.00     0.030 A 
ATOM     25  F   UNL d   1     -38.234  13.689  15.182  0.00  0.00    -0.204 F 
ATOM     26  C   UNL d   1     -38.318  13.381  17.330  0.00  0.00     0.003 A 
ENDBRANCH  19  20
ENDBRANCH  18  19
ENDBRANCH   2  18
TORSDOF 6
ENDMDL
