MODEL 1
REMARK VINA RESULT:     107.3      0.000      0.000
REMARK  5 active torsions:
REMARK  status: ('A' for Active; 'I' for Inactive)
REMARK    1  A    between atoms: C_2  and  S_1 
REMARK    2  A    between atoms: N_4  and  S_1 
REMARK    3  A    between atoms: C_15  and  N_4 
REMARK    4  A    between atoms: N_7  and  C_6 
REMARK    5  A    between atoms: C_12  and  C_13 
ROOT
ATOM      1  C   UNL d   1      59.927  49.271  51.651  0.00  0.00     0.021 A 
ATOM      2  C   UNL d   1      61.022  48.694  50.937  0.00  0.00     0.094 A 
ATOM      3  C   UNL d   1      60.578  48.765  51.629  0.00  0.00     0.021 A 
ATOM      4  C   UNL d   1      59.719  49.705  50.981  0.00  0.00     0.002 A 
ATOM      5  C   UNL d   1      60.162  49.633  50.292  0.00  0.00     0.002 A 
ATOM      6  C   UNL d   1      60.814  49.127  50.270  0.00  0.00     0.020 A 
ENDROOT
BRANCH   1   7
ATOM      7  C   UNL d   1      59.483  49.342  52.344  0.00  0.00     0.103 A 
ATOM      8  N   UNL d   1      59.857  49.308  53.079  0.00  0.00    -0.147 NA
ATOM      9  N   UNL d   1      59.413  49.380  53.772  0.00  0.00    -0.130 NA
ATOM     10  C   UNL d   1      58.596  49.486  53.729  0.00  0.00     0.170 A 
ATOM     11  C   UNL d   1      58.223  49.520  52.994  0.00  0.00     0.041 A 
ATOM     12  C   UNL d   1      58.666  49.448  52.301  0.00  0.00     0.024 A 
BRANCH  10  13
ATOM     13  N   UNL d   1      58.153  49.557  54.412  0.00  0.00    -0.284 N 
ATOM     14  C   UNL d   1      58.527  49.629  55.144  0.00  0.00     0.108 A 
ATOM     15  C   UNL d   1      58.085  49.700  55.829  0.00  0.00     0.142 A 
ATOM     16  O   UNL d   1      57.260  49.700  55.784  0.00  0.00    -0.300 OA
ATOM     17  C   UNL d   1      56.887  49.628  55.052  0.00  0.00     0.142 A 
ATOM     18  C   UNL d   1      57.337  49.557  54.365  0.00  0.00     0.108 A 
ENDBRANCH  10  13
ENDBRANCH   1   7
BRANCH   2  19
ATOM     19  N   UNL d   1      61.673  48.188  50.915  0.00  0.00    -0.158 NA
BRANCH  19  20
ATOM     20  S   UNL d   1      61.618  47.459  50.537  0.00  0.00     0.285 S 
ATOM     21  O   UNL d   1      60.801  47.448  50.675  0.00  0.00    -0.198 OA
ATOM     22  O   UNL d   1      62.440  47.472  50.400  0.00  0.00    -0.198 OA
BRANCH  20  23
ATOM     23  C   UNL d   1      61.554  46.727  50.159  0.00  0.00     0.106 A 
ATOM     24  C   UNL d   1      61.368  46.053  50.581  0.00  0.00     0.025 A 
ATOM     25  C   UNL d   1      61.304  45.324  50.207  0.00  0.00     0.069 A 
ATOM     26 CL   UNL d   1      61.117  44.641  50.633  0.00  0.00    -0.082 Cl
ATOM     27  C   UNL d   1      61.429  45.274  49.393  0.00  0.00     0.068 A 
ATOM     28  C   UNL d   1      61.617  45.954  48.962  0.00  0.00     0.013 A 
ATOM     29 CL   UNL d   1      61.368  44.541  48.996  0.00  0.00    -0.082 Cl
ATOM     30  C   UNL d   1      61.679  46.677  49.345  0.00  0.00     0.014 A 
ENDBRANCH  20  23
ENDBRANCH  19  20
ENDBRANCH   2  19
TORSDOF 5
ENDMDL
