MODEL 1
REMARK VINA RESULT:      -5.0      0.000      0.000
REMARK  1 active torsions:
REMARK  status: ('A' for Active; 'I' for Inactive)
REMARK    1  A    between atoms: N_2  and  C_1 
ROOT
ATOM      1  C   UNL d   1     -41.817-122.308 -54.098  0.00  0.00     0.148 A 
ATOM      2  C   UNL d   1     -41.872-121.932 -53.342  0.00  0.00     0.051 A 
ATOM      3  C   UNL d   1     -41.514-123.074 -54.145  0.00  0.00     0.127 A 
ATOM      4  C   UNL d   1     -41.628-122.322 -52.663  0.00  0.00     0.121 A 
ATOM      5  C   UNL d   1     -41.266-123.464 -53.436  0.00  0.00     0.049 A 
ATOM      6  C   UNL d   1     -41.325-123.088 -52.710  0.00  0.00     0.121 A 
ATOM      7  O   UNL d   1     -41.620-122.083 -51.848  0.00  0.00    -0.299 OA
ATOM      8  O   UNL d   1     -41.123-123.341 -51.926  0.00  0.00    -0.299 OA
ATOM      9  C   UNL d   1     -41.313-122.711 -51.422  0.00  0.00     0.304 A 
ATOM     10  N   UNL d   1     -41.472-123.427 -54.930  0.00  0.00    -0.146 N 
ENDROOT
BRANCH   1  11
ATOM     11  N   UNL d   1     -42.060-121.941 -54.838  0.00  0.00    -0.112 N 
ATOM     12  O   UNL d   1     -41.504-121.574 -55.342  0.00  0.00    -0.532 OA
ATOM     13  O   UNL d   1     -42.884-121.943 -55.076  0.00  0.00    -0.532 OA
ENDBRANCH   1  11
TORSDOF 1
ENDMDL
MODEL 2
REMARK VINA RESULT:      -4.9      1.223      2.662
REMARK  1 active torsions:
REMARK  status: ('A' for Active; 'I' for Inactive)
REMARK    1  A    between atoms: N_2  and  C_1 
ROOT
ATOM      1  C   UNL d   1     -41.672-122.338 -53.008  0.00  0.00     0.148 A 
ATOM      2  C   UNL d   1     -41.977-121.762 -53.549  0.00  0.00     0.051 A 
ATOM      3  C   UNL d   1     -41.429-123.072 -53.296  0.00  0.00     0.127 A 
ATOM      4  C   UNL d   1     -42.030-121.930 -54.349  0.00  0.00     0.121 A 
ATOM      5  C   UNL d   1     -41.490-123.231 -54.125  0.00  0.00     0.049 A 
ATOM      6  C   UNL d   1     -41.787-122.664 -54.637  0.00  0.00     0.121 A 
ATOM      7  O   UNL d   1     -42.308-121.466 -55.004  0.00  0.00    -0.299 OA
ATOM      8  O   UNL d   1     -41.909-122.672 -55.478  0.00  0.00    -0.299 OA
ATOM      9  C   UNL d   1     -42.227-121.931 -55.673  0.00  0.00     0.304 A 
ATOM     10  N   UNL d   1     -41.124-123.634 -52.719  0.00  0.00    -0.146 N 
ENDROOT
BRANCH   1  11
ATOM     11  N   UNL d   1     -41.596-122.210 -52.160  0.00  0.00    -0.112 N 
ATOM     12  O   UNL d   1     -41.123-121.592 -51.856  0.00  0.00    -0.532 OA
ATOM     13  O   UNL d   1     -42.007-122.717 -51.604  0.00  0.00    -0.532 OA
ENDBRANCH   1  11
TORSDOF 1
ENDMDL
MODEL 3
REMARK VINA RESULT:      -4.0      1.360      1.643
REMARK  1 active torsions:
REMARK  status: ('A' for Active; 'I' for Inactive)
REMARK    1  A    between atoms: N_2  and  C_1 
ROOT
ATOM      1  C   UNL d   1     -41.562-122.566 -52.509  0.00  0.00     0.148 A 
ATOM      2  C   UNL d   1     -41.699-122.203 -51.757  0.00  0.00     0.051 A 
ATOM      3  C   UNL d   1     -41.278-123.340 -52.538  0.00  0.00     0.127 A 
ATOM      4  C   UNL d   1     -41.552-122.615 -51.063  0.00  0.00     0.121 A 
ATOM      5  C   UNL d   1     -41.131-123.752 -51.814  0.00  0.00     0.049 A 
ATOM      6  C   UNL d   1     -41.268-123.389 -51.092  0.00  0.00     0.121 A 
ATOM      7  O   UNL d   1     -41.638-122.394 -50.248  0.00  0.00    -0.299 OA
ATOM      8  O   UNL d   1     -41.172-123.666 -50.294  0.00  0.00    -0.299 OA
ATOM      9  C   UNL d   1     -41.404-123.040 -49.803  0.00  0.00     0.304 A 
ATOM     10  N   UNL d   1     -41.150-123.677 -53.320  0.00  0.00    -0.146 N 
ENDROOT
BRANCH   1  11
ATOM     11  N   UNL d   1     -41.701-122.175 -53.264  0.00  0.00    -0.112 N 
ATOM     12  O   UNL d   1     -41.141-121.647 -53.588  0.00  0.00    -0.532 OA
ATOM     13  O   UNL d   1     -42.423-122.322 -53.704  0.00  0.00    -0.532 OA
ENDBRANCH   1  11
TORSDOF 1
ENDMDL
MODEL 4
REMARK VINA RESULT:      -3.9      1.960      2.542
REMARK  1 active torsions:
REMARK  status: ('A' for Active; 'I' for Inactive)
REMARK    1  A    between atoms: N_2  and  C_1 
ROOT
ATOM      1  C   UNL d   1     -41.737-122.521 -51.642  0.00  0.00     0.148 A 
ATOM      2  C   UNL d   1     -42.071-122.184 -50.941  0.00  0.00     0.051 A 
ATOM      3  C   UNL d   1     -41.462-123.299 -51.623  0.00  0.00     0.127 A 
ATOM      4  C   UNL d   1     -42.123-122.624 -50.251  0.00  0.00     0.121 A 
ATOM      5  C   UNL d   1     -41.522-123.741 -50.903  0.00  0.00     0.049 A 
ATOM      6  C   UNL d   1     -41.849-123.401 -50.232  0.00  0.00     0.121 A 
ATOM      7  O   UNL d   1     -42.426-122.431 -49.481  0.00  0.00    -0.299 OA
ATOM      8  O   UNL d   1     -41.976-123.708 -49.450  0.00  0.00    -0.299 OA
ATOM      9  C   UNL d   1     -42.328-123.097 -49.016  0.00  0.00     0.304 A 
ATOM     10  N   UNL d   1     -41.128-123.610 -52.353  0.00  0.00    -0.146 N 
ENDROOT
BRANCH   1  11
ATOM     11  N   UNL d   1     -41.661-122.101 -52.390  0.00  0.00    -0.112 N 
ATOM     12  O   UNL d   1     -41.123-121.468 -52.477  0.00  0.00    -0.532 OA
ATOM     13  O   UNL d   1     -42.139-122.324 -53.065  0.00  0.00    -0.532 OA
ENDBRANCH   1  11
TORSDOF 1
ENDMDL
MODEL 5
REMARK VINA RESULT:      -3.8      3.308      4.644
REMARK  1 active torsions:
REMARK  status: ('A' for Active; 'I' for Inactive)
REMARK    1  A    between atoms: N_2  and  C_1 
ROOT
ATOM      1  C   UNL d   1     -42.314-122.964 -49.179  0.00  0.00     0.148 A 
ATOM      2  C   UNL d   1     -42.634-122.502 -49.812  0.00  0.00     0.051 A 
ATOM      3  C   UNL d   1     -41.559-123.287 -49.258  0.00  0.00     0.127 A 
ATOM      4  C   UNL d   1     -42.200-122.376 -50.496  0.00  0.00     0.121 A 
ATOM      5  C   UNL d   1     -41.123-123.149 -49.970  0.00  0.00     0.049 A 
ATOM      6  C   UNL d   1     -41.445-122.699 -50.575  0.00  0.00     0.121 A 
ATOM      7  O   UNL d   1     -42.379-121.944 -51.205  0.00  0.00    -0.299 OA
ATOM      8  O   UNL d   1     -41.139-122.475 -51.335  0.00  0.00    -0.299 OA
ATOM      9  C   UNL d   1     -41.728-122.017 -51.695  0.00  0.00     0.304 A 
ATOM     10  N   UNL d   1     -41.264-123.752 -48.595  0.00  0.00    -0.146 N 
ENDROOT
BRANCH   1  11
ATOM     11  N   UNL d   1     -42.729-123.125 -48.442  0.00  0.00    -0.112 N 
ATOM     12  O   UNL d   1     -43.191-123.815 -48.347  0.00  0.00    -0.532 OA
ATOM     13  O   UNL d   1     -42.679-122.576 -47.785  0.00  0.00    -0.532 OA
ENDBRANCH   1  11
TORSDOF 1
ENDMDL
MODEL 6
REMARK VINA RESULT:      -2.7      3.722      4.566
REMARK  1 active torsions:
REMARK  status: ('A' for Active; 'I' for Inactive)
REMARK    1  A    between atoms: N_2  and  C_1 
ROOT
ATOM      1  C   UNL d   1     -42.718-122.714 -49.611  0.00  0.00     0.148 A 
ATOM      2  C   UNL d   1     -42.889-122.463 -48.821  0.00  0.00     0.051 A 
ATOM      3  C   UNL d   1     -42.204-123.348 -49.729  0.00  0.00     0.127 A 
ATOM      4  C   UNL d   1     -42.550-122.845 -48.180  0.00  0.00     0.121 A 
ATOM      5  C   UNL d   1     -41.862-123.733 -49.058  0.00  0.00     0.049 A 
ATOM      6  C   UNL d   1     -42.037-123.479 -48.298  0.00  0.00     0.121 A 
ATOM      7  O   UNL d   1     -42.622-122.714 -47.344  0.00  0.00    -0.299 OA
ATOM      8  O   UNL d   1     -41.778-123.757 -47.538  0.00  0.00    -0.299 OA
ATOM      9  C   UNL d   1     -42.150-123.273 -46.977  0.00  0.00     0.304 A 
ATOM     10  N   UNL d   1     -42.052-123.577 -50.546  0.00  0.00    -0.146 N 
ENDROOT
BRANCH   1  11
ATOM     11  N   UNL d   1     -43.048-122.345 -50.316  0.00  0.00    -0.112 N 
ATOM     12  O   UNL d   1     -42.556-121.992 -50.891  0.00  0.00    -0.532 OA
ATOM     13  O   UNL d   1     -43.897-122.333 -50.444  0.00  0.00    -0.532 OA
ENDBRANCH   1  11
TORSDOF 1
ENDMDL
