MODEL 1
REMARK VINA RESULT:      74.2      0.000      0.000
REMARK  5 active torsions:
REMARK  status: ('A' for Active; 'I' for Inactive)
REMARK    1  A    between atoms: C_4  and  N_1 
REMARK    2  A    between atoms: C_9  and  C_2 
REMARK    3  A    between atoms: C_14  and  C_6 
REMARK    4  A    between atoms: C_7  and  C_9 
REMARK    5  A    between atoms: O_26  and  C_22 
ROOT
ATOM      1  N   UNL d   1      14.188  15.086  -4.127  0.00  0.00    -0.254 N 
ATOM      2  C   UNL d   1      13.776  14.232  -3.182  0.00  0.00     0.101 A 
ATOM      3  C   UNL d   1      14.310  15.442  -3.392  0.00  0.00     0.305 A 
ATOM      4  C   UNL d   1      14.057  14.916  -2.804  0.00  0.00     0.256 A 
ATOM      5  C   UNL d   1      13.857  14.337  -3.998  0.00  0.00     0.081 A 
ATOM      6  O   UNL d   1      14.630  16.191  -3.256  0.00  0.00    -0.263 OA
ATOM      7  O   UNL d   1      14.080  15.051  -1.985  0.00  0.00    -0.281 OA
ENDROOT
BRANCH   2   8
ATOM      8  C   UNL d   1      13.469  13.563  -2.803  0.00  0.00     0.223 C 
ATOM      9  O   UNL d   1      12.772  13.222  -3.071  0.00  0.00    -0.284 OA
BRANCH   8  10
ATOM     10  C   UNL d   1      13.863  13.237  -2.154  0.00  0.00     0.139 A 
ATOM     11  O   UNL d   1      14.482  13.590  -1.738  0.00  0.00    -0.302 OA
ATOM     12  C   UNL d   1      14.709  13.071  -1.134  0.00  0.00     0.122 A 
ATOM     13  C   UNL d   1      15.287  13.125  -0.552  0.00  0.00     0.117 A 
ATOM     14  C   UNL d   1      14.232  12.402  -1.180  0.00  0.00     0.027 A 
ATOM     15  C   UNL d   1      15.389  12.510  -0.017  0.00  0.00     0.026 A 
ATOM     16  C   UNL d   1      14.907  11.834  -0.063  0.00  0.00     0.002 A 
ATOM     17  C   UNL d   1      14.331  11.784  -0.644  0.00  0.00     0.002 A 
ATOM     18  C   UNL d   1      13.709  12.503  -1.810  0.00  0.00     0.030 A 
BRANCH  13  19
ATOM     19  O   UNL d   1      15.765  13.794  -0.506  0.00  0.00    -0.326 OA
ATOM     20  C   UNL d   1      16.490  13.762  -0.101  0.00  0.00     0.181 C 
ENDBRANCH  13  19
ENDBRANCH   8  10
ENDBRANCH   2   8
BRANCH   5  21
ATOM     21  C   UNL d   1      13.645  13.790  -4.575  0.00  0.00     0.046 A 
ATOM     22  S   UNL d   1      14.128  13.188  -4.870  0.00  0.00    -0.085 SA
ATOM     23  C   UNL d   1      13.702  12.769  -5.439  0.00  0.00     0.035 A 
ATOM     24  C   UNL d   1      12.948  13.115  -5.497  0.00  0.00     0.007 A 
ATOM     25  C   UNL d   1      12.920  13.742  -4.962  0.00  0.00     0.009 A 
ENDBRANCH   5  21
BRANCH   1  26
ATOM     26  C   UNL d   1      14.474  15.695  -4.612  0.00  0.00     0.179 A 
ATOM     27  N   UNL d   1      15.066  15.632  -5.186  0.00  0.00    -0.108 NA
ATOM     28  O   UNL d   1      15.173  16.378  -5.536  0.00  0.00    -0.210 OA
ATOM     29  C   UNL d   1      14.639  16.909  -5.174  0.00  0.00     0.128 A 
ATOM     30  C   UNL d   1      14.210  16.491  -4.608  0.00  0.00     0.067 A 
ATOM     31  C   UNL d   1      14.559  17.709  -5.356  0.00  0.00     0.029 C 
ENDBRANCH   1  26
TORSDOF 5
ENDMDL
MODEL 2
REMARK VINA RESULT:      75.4      2.284      5.663
REMARK  5 active torsions:
REMARK  status: ('A' for Active; 'I' for Inactive)
REMARK    1  A    between atoms: C_4  and  N_1 
REMARK    2  A    between atoms: C_9  and  C_2 
REMARK    3  A    between atoms: C_14  and  C_6 
REMARK    4  A    between atoms: C_7  and  C_9 
REMARK    5  A    between atoms: O_26  and  C_22 
ROOT
ATOM      1  N   UNL d   1      14.109  15.207  -4.339  0.00  0.00    -0.254 N 
ATOM      2  C   UNL d   1      14.698  16.322  -4.786  0.00  0.00     0.101 A 
ATOM      3  C   UNL d   1      14.066  15.204  -5.164  0.00  0.00     0.305 A 
ATOM      4  C   UNL d   1      14.430  15.893  -5.444  0.00  0.00     0.256 A 
ATOM      5  C   UNL d   1      14.501  15.899  -4.105  0.00  0.00     0.081 A 
ATOM      6  O   UNL d   1      13.722  14.620  -5.636  0.00  0.00    -0.263 OA
ATOM      7  O   UNL d   1      14.510  16.113  -6.241  0.00  0.00    -0.281 OA
ENDROOT
BRANCH   2   8
ATOM      8  C   UNL d   1      15.095  17.048  -4.813  0.00  0.00     0.223 C 
ATOM      9  O   UNL d   1      15.847  17.118  -4.493  0.00  0.00    -0.284 OA
BRANCH   8  10
ATOM     10  C   UNL d   1      14.734  17.705  -5.162  0.00  0.00     0.139 A 
ATOM     11  O   UNL d   1      15.063  18.459  -5.225  0.00  0.00    -0.302 OA
ATOM     12  C   UNL d   1      14.512  18.943  -5.612  0.00  0.00     0.122 A 
ATOM     13  C   UNL d   1      14.534  19.736  -5.825  0.00  0.00     0.117 A 
ATOM     14  C   UNL d   1      13.850  18.487  -5.785  0.00  0.00     0.027 A 
ATOM     15  C   UNL d   1      13.892  20.074  -6.212  0.00  0.00     0.026 A 
ATOM     16  C   UNL d   1      13.222  19.614  -6.388  0.00  0.00     0.002 A 
ATOM     17  C   UNL d   1      13.205  18.823  -6.173  0.00  0.00     0.002 A 
ATOM     18  C   UNL d   1      13.985  17.723  -5.508  0.00  0.00     0.030 A 
BRANCH  13  19
ATOM     19  O   UNL d   1      15.197  20.193  -5.652  0.00  0.00    -0.326 OA
ATOM     20  C   UNL d   1      15.173  21.018  -5.751  0.00  0.00     0.181 C 
ENDBRANCH  13  19
ENDBRANCH   8  10
ENDBRANCH   2   8
BRANCH   5  21
ATOM     21  C   UNL d   1      14.666  16.129  -3.332  0.00  0.00     0.046 A 
ATOM     22  S   UNL d   1      15.267  15.820  -2.855  0.00  0.00    -0.085 SA
ATOM     23  C   UNL d   1      15.239  16.203  -2.124  0.00  0.00     0.035 A 
ATOM     24  C   UNL d   1      14.616  16.753  -2.149  0.00  0.00     0.007 A 
ATOM     25  C   UNL d   1      14.268  16.701  -2.895  0.00  0.00     0.009 A 
ENDBRANCH   5  21
BRANCH   1  26
ATOM     26  C   UNL d   1      13.723  14.488  -4.190  0.00  0.00     0.179 A 
ATOM     27  N   UNL d   1      12.907  14.371  -4.124  0.00  0.00    -0.108 NA
ATOM     28  O   UNL d   1      12.769  13.566  -3.972  0.00  0.00    -0.210 OA
ATOM     29  C   UNL d   1      13.509  13.180  -3.944  0.00  0.00     0.128 A 
ATOM     30  C   UNL d   1      14.095  13.745  -4.077  0.00  0.00     0.067 A 
ATOM     31  C   UNL d   1      13.627  12.376  -3.807  0.00  0.00     0.029 C 
ENDBRANCH   1  26
TORSDOF 5
ENDMDL
MODEL 3
REMARK VINA RESULT:      75.9      1.887      5.359
REMARK  5 active torsions:
REMARK  status: ('A' for Active; 'I' for Inactive)
REMARK    1  A    between atoms: C_4  and  N_1 
REMARK    2  A    between atoms: C_9  and  C_2 
REMARK    3  A    between atoms: C_14  and  C_6 
REMARK    4  A    between atoms: C_7  and  C_9 
REMARK    5  A    between atoms: O_26  and  C_22 
ROOT
ATOM      1  N   UNL d   1      14.696  16.058  -2.909  0.00  0.00    -0.254 N 
ATOM      2  C   UNL d   1      14.752  16.527  -4.161  0.00  0.00     0.101 A 
ATOM      3  C   UNL d   1      15.202  16.710  -2.913  0.00  0.00     0.305 A 
ATOM      4  C   UNL d   1      15.239  17.004  -3.687  0.00  0.00     0.256 A 
ATOM      5  C   UNL d   1      14.417  15.944  -3.682  0.00  0.00     0.081 A 
ATOM      6  O   UNL d   1      15.605  17.023  -2.264  0.00  0.00    -0.263 OA
ATOM      7  O   UNL d   1      15.685  17.657  -3.940  0.00  0.00    -0.281 OA
ENDROOT
BRANCH   2   8
ATOM      8  C   UNL d   1      14.626  16.624  -4.974  0.00  0.00     0.223 C 
ATOM      9  O   UNL d   1      14.779  16.005  -5.490  0.00  0.00    -0.284 OA
BRANCH   8  10
ATOM     10  C   UNL d   1      14.347  17.344  -5.267  0.00  0.00     0.139 A 
ATOM     11  O   UNL d   1      14.713  18.078  -5.174  0.00  0.00    -0.302 OA
ATOM     12  C   UNL d   1      14.243  18.645  -5.555  0.00  0.00     0.122 A 
ATOM     13  C   UNL d   1      14.329  19.457  -5.644  0.00  0.00     0.117 A 
ATOM     14  C   UNL d   1      13.593  18.259  -5.880  0.00  0.00     0.027 A 
ATOM     15  C   UNL d   1      13.763  19.885  -6.060  0.00  0.00     0.026 A 
ATOM     16  C   UNL d   1      13.106  19.497  -6.389  0.00  0.00     0.002 A 
ATOM     17  C   UNL d   1      13.025  18.686  -6.297  0.00  0.00     0.002 A 
ATOM     18  C   UNL d   1      13.656  17.457  -5.703  0.00  0.00     0.030 A 
BRANCH  13  19
ATOM     19  O   UNL d   1      14.980  19.843  -5.319  0.00  0.00    -0.326 OA
ATOM     20  C   UNL d   1      15.342  20.469  -5.728  0.00  0.00     0.181 C 
ENDBRANCH  13  19
ENDBRANCH   8  10
ENDBRANCH   2   8
BRANCH   5  21
ATOM     21  C   UNL d   1      13.898  15.357  -3.932  0.00  0.00     0.046 A 
ATOM     22  S   UNL d   1      13.074  15.417  -3.952  0.00  0.00    -0.085 SA
ATOM     23  C   UNL d   1      12.769  14.705  -4.238  0.00  0.00     0.035 A 
ATOM     24  C   UNL d   1      13.410  14.200  -4.396  0.00  0.00     0.007 A 
ATOM     25  C   UNL d   1      14.101  14.607  -4.206  0.00  0.00     0.009 A 
ENDBRANCH   5  21
BRANCH   1  26
ATOM     26  C   UNL d   1      14.744  15.865  -2.104  0.00  0.00     0.179 A 
ATOM     27  N   UNL d   1      14.655  16.383  -1.466  0.00  0.00    -0.108 NA
ATOM     28  O   UNL d   1      14.747  15.952  -0.762  0.00  0.00    -0.210 OA
ATOM     29  C   UNL d   1      14.897  15.155  -0.967  0.00  0.00     0.128 A 
ATOM     30  C   UNL d   1      14.895  15.102  -1.790  0.00  0.00     0.067 A 
ATOM     31  C   UNL d   1      15.022  14.538  -0.437  0.00  0.00     0.029 C 
ENDBRANCH   1  26
TORSDOF 5
ENDMDL
MODEL 4
REMARK VINA RESULT:      76.3      1.893      3.552
REMARK  5 active torsions:
REMARK  status: ('A' for Active; 'I' for Inactive)
REMARK    1  A    between atoms: C_4  and  N_1 
REMARK    2  A    between atoms: C_9  and  C_2 
REMARK    3  A    between atoms: C_14  and  C_6 
REMARK    4  A    between atoms: C_7  and  C_9 
REMARK    5  A    between atoms: O_26  and  C_22 
ROOT
ATOM      1  N   UNL d   1      14.749  16.190  -2.542  0.00  0.00    -0.254 N 
ATOM      2  C   UNL d   1      14.002  15.560  -3.456  0.00  0.00     0.101 A 
ATOM      3  C   UNL d   1      14.174  15.753  -2.142  0.00  0.00     0.305 A 
ATOM      4  C   UNL d   1      13.709  15.362  -2.705  0.00  0.00     0.256 A 
ATOM      5  C   UNL d   1      14.643  16.071  -3.356  0.00  0.00     0.081 A 
ATOM      6  O   UNL d   1      14.071  15.708  -1.324  0.00  0.00    -0.263 OA
ATOM      7  O   UNL d   1      13.066  14.861  -2.544  0.00  0.00    -0.281 OA
ENDROOT
BRANCH   2   8
ATOM      8  C   UNL d   1      13.700  15.291  -4.179  0.00  0.00     0.223 C 
ATOM      9  O   UNL d   1      13.537  15.824  -4.781  0.00  0.00    -0.284 OA
BRANCH   8  10
ATOM     10  C   UNL d   1      13.562  14.484  -4.295  0.00  0.00     0.139 A 
ATOM     11  O   UNL d   1      13.534  13.909  -3.704  0.00  0.00    -0.302 OA
ATOM     12  C   UNL d   1      13.382  13.180  -4.067  0.00  0.00     0.122 A 
ATOM     13  C   UNL d   1      13.295  12.422  -3.762  0.00  0.00     0.117 A 
ATOM     14  C   UNL d   1      13.318  13.308  -4.878  0.00  0.00     0.027 A 
ATOM     15  C   UNL d   1      13.145  11.791  -4.266  0.00  0.00     0.026 A 
ATOM     16  C   UNL d   1      13.080  11.920  -5.085  0.00  0.00     0.002 A 
ATOM     17  C   UNL d   1      13.167  12.678  -5.386  0.00  0.00     0.002 A 
ATOM     18  C   UNL d   1      13.429  14.112  -5.019  0.00  0.00     0.030 A 
BRANCH  13  19
ATOM     19  O   UNL d   1      13.359  12.294  -2.951  0.00  0.00    -0.326 OA
ATOM     20  C   UNL d   1      13.942  11.781  -2.654  0.00  0.00     0.181 C 
ENDBRANCH  13  19
ENDBRANCH   8  10
ENDBRANCH   2   8
BRANCH   5  21
ATOM     21  C   UNL d   1      15.094  16.400  -3.960  0.00  0.00     0.046 A 
ATOM     22  S   UNL d   1      14.947  17.123  -4.333  0.00  0.00    -0.085 SA
ATOM     23  C   UNL d   1      15.530  17.244  -4.905  0.00  0.00     0.035 A 
ATOM     24  C   UNL d   1      16.043  16.590  -4.885  0.00  0.00     0.007 A 
ATOM     25  C   UNL d   1      15.768  16.075  -4.302  0.00  0.00     0.009 A 
ENDBRANCH   5  21
BRANCH   1  26
ATOM     26  C   UNL d   1      15.134  16.522  -1.887  0.00  0.00     0.179 A 
ATOM     27  N   UNL d   1      15.633  16.129  -1.356  0.00  0.00    -0.108 NA
ATOM     28  O   UNL d   1      15.893  16.676  -0.788  0.00  0.00    -0.210 OA
ATOM     29  C   UNL d   1      15.551  17.417  -0.969  0.00  0.00     0.128 A 
ATOM     30  C   UNL d   1      15.086  17.322  -1.643  0.00  0.00     0.067 A 
ATOM     31  C   UNL d   1      15.664  18.114  -0.545  0.00  0.00     0.029 C 
ENDBRANCH   1  26
TORSDOF 5
ENDMDL
