MODEL 1
REMARK VINA RESULT:      70.0      0.000      0.000
REMARK  5 active torsions:
REMARK  status: ('A' for Active; 'I' for Inactive)
REMARK    1  A    between atoms: C_8  and  C_1 
REMARK    2  A    between atoms: C_7  and  C_4 
REMARK    3  A    between atoms: O_10  and  C_8 
REMARK    4  A    between atoms: C_16  and  O_10 
REMARK    5  A    between atoms: C_19  and  C_16 
ROOT
ATOM      1  C   UNL d   1     -55.059-101.379 -44.032  0.00  0.00     0.098 A 
ATOM      2  C   UNL d   1     -54.910-101.981 -43.466  0.00  0.00     0.075 A 
ATOM      3  C   UNL d   1     -55.010-101.018 -42.415  0.00  0.00     0.354 A 
ATOM      4  C   UNL d   1     -55.181-100.609 -43.783  0.00  0.00     0.093 A 
ATOM      5  N   UNL d   1     -54.887-101.797 -42.665  0.00  0.00    -0.256 N 
ATOM      6  N   UNL d   1     -55.157-100.423 -42.974  0.00  0.00    -0.192 NA
ATOM      7  O   UNL d   1     -54.987-100.831 -41.612  0.00  0.00    -0.244 OA
ATOM      8  C   UNL d   1     -54.788-102.753 -43.708  0.00  0.00     0.019 C 
ATOM      9  C   UNL d   1     -54.741-102.389 -42.109  0.00  0.00     0.104 C 
ENDROOT
BRANCH   1  10
ATOM     10  C   UNL d   1     -55.086-101.549 -44.840  0.00  0.00     0.303 C 
ATOM     11  O   UNL d   1     -54.816-100.997 -45.384  0.00  0.00    -0.259 OA
BRANCH  10  12
ATOM     12  O   UNL d   1     -55.381-102.270 -45.091  0.00  0.00    -0.271 OA
BRANCH  12  13
ATOM     13  C   UNL d   1     -55.870-102.297 -45.754  0.00  0.00     0.126 C 
BRANCH  13  14
ATOM     14  C   UNL d   1     -55.580-102.585 -46.471  0.00  0.00     0.025 C 
ATOM     15  C   UNL d   1     -54.822-102.870 -46.519  0.00  0.00     0.002 C 
ATOM     16  C   UNL d   1     -56.048-102.590 -47.143  0.00  0.00     0.002 C 
ENDBRANCH  13  14
ENDBRANCH  12  13
ENDBRANCH  10  12
ENDBRANCH   1  10
BRANCH   4  17
ATOM     17  C   UNL d   1     -55.326-100.021 -44.336  0.00  0.00     0.029 A 
ATOM     18  C   UNL d   1     -56.082 -99.682 -44.396  0.00  0.00     0.059 A 
ATOM     19 CL   UNL d   1     -56.687 -99.942 -43.895  0.00  0.00    -0.082 Cl
ATOM     20  C   UNL d   1     -56.231 -99.081 -44.962  0.00  0.00     0.011 A 
ATOM     21  C   UNL d   1     -55.621 -98.827 -45.459  0.00  0.00     0.001 A 
ATOM     22  C   UNL d   1     -54.873 -99.159 -45.402  0.00  0.00     0.000 A 
ATOM     23  C   UNL d   1     -54.719 -99.785 -44.813  0.00  0.00     0.002 A 
ENDBRANCH   4  17
TORSDOF 5
ENDMDL
MODEL 2
REMARK VINA RESULT:      70.7      2.140      3.256
REMARK  5 active torsions:
REMARK  status: ('A' for Active; 'I' for Inactive)
REMARK    1  A    between atoms: C_8  and  C_1 
REMARK    2  A    between atoms: C_7  and  C_4 
REMARK    3  A    between atoms: O_10  and  C_8 
REMARK    4  A    between atoms: C_16  and  O_10 
REMARK    5  A    between atoms: C_19  and  C_16 
ROOT
ATOM      1  C   UNL d   1     -57.170 -99.228 -44.653  0.00  0.00     0.098 A 
ATOM      2  C   UNL d   1     -57.956 -99.307 -44.941  0.00  0.00     0.075 A 
ATOM      3  C   UNL d   1     -58.463 -98.914 -43.664  0.00  0.00     0.354 A 
ATOM      4  C   UNL d   1     -57.044 -98.995 -43.879  0.00  0.00     0.093 A 
ATOM      5  N   UNL d   1     -58.593 -99.150 -44.447  0.00  0.00    -0.256 N 
ATOM      6  N   UNL d   1     -57.688 -98.837 -43.380  0.00  0.00    -0.192 NA
ATOM      7  O   UNL d   1     -59.102 -98.756 -43.166  0.00  0.00    -0.244 OA
ATOM      8  C   UNL d   1     -58.090 -99.539 -45.714  0.00  0.00     0.019 C 
ATOM      9  C   UNL d   1     -59.364 -99.227 -44.729  0.00  0.00     0.104 C 
ENDROOT
BRANCH   1  10
ATOM     10  C   UNL d   1     -56.520 -99.382 -45.139  0.00  0.00     0.303 C 
ATOM     11  O   UNL d   1     -56.192 -98.778 -45.586  0.00  0.00    -0.259 OA
BRANCH  10  12
ATOM     12  O   UNL d   1     -56.209-100.139 -45.169  0.00  0.00    -0.271 OA
BRANCH  12  13
ATOM     13  C   UNL d   1     -55.507-100.303 -44.771  0.00  0.00     0.126 C 
BRANCH  13  14
ATOM     14  C   UNL d   1     -55.153-101.045 -44.844  0.00  0.00     0.025 C 
ATOM     15  C   UNL d   1     -55.031-101.367 -45.578  0.00  0.00     0.002 C 
ATOM     16  C   UNL d   1     -54.920-101.468 -44.183  0.00  0.00     0.002 C 
ENDBRANCH  13  14
ENDBRANCH  12  13
ENDBRANCH  10  12
ENDBRANCH   1  10
BRANCH   4  17
ATOM     17  C   UNL d   1     -56.277 -98.918 -43.598  0.00  0.00     0.029 A 
ATOM     18  C   UNL d   1     -56.130 -98.914 -42.781  0.00  0.00     0.059 A 
ATOM     19 CL   UNL d   1     -56.763 -98.988 -42.252  0.00  0.00    -0.082 Cl
ATOM     20  C   UNL d   1     -55.346 -98.836 -42.494  0.00  0.00     0.011 A 
ATOM     21  C   UNL d   1     -54.720 -98.762 -43.028  0.00  0.00     0.001 A 
ATOM     22  C   UNL d   1     -54.861 -98.766 -43.836  0.00  0.00     0.000 A 
ATOM     23  C   UNL d   1     -55.677 -98.847 -44.135  0.00  0.00     0.002 A 
ENDBRANCH   4  17
TORSDOF 5
ENDMDL
