MODEL 1
REMARK VINA RESULT:      -4.0      0.000      0.000
REMARK  5 active torsions:
REMARK  status: ('A' for Active; 'I' for Inactive)
REMARK    1  A    between atoms: N_3  and  C_1 
REMARK       I    between atoms: C_7  and  N_3 
REMARK    2  A    between atoms: S_9  and  C_4 
REMARK    3  A    between atoms: C_8  and  C_7 
REMARK    4  A    between atoms: C_13  and  S_9 
REMARK    5  A    between atoms: C_16  and  C_13 
ROOT
ATOM      1  C   UNL d   1     -41.137-122.948 -52.550  0.00  0.00     0.219 A 
ATOM      2  S   UNL d   1     -41.154-122.581 -51.773  0.00  0.00    -0.019 SA
ATOM      3  C   UNL d   1     -41.146-123.234 -51.200  0.00  0.00     0.165 A 
ATOM      4  N   UNL d   1     -41.124-123.649 -52.414  0.00  0.00    -0.120 NA
ATOM      5  N   UNL d   1     -41.129-123.817 -51.569  0.00  0.00    -0.133 NA
ENDROOT
BRANCH   1   6
ATOM      6  N   UNL d   1     -41.138-122.505 -53.358  0.00  0.00    -0.181 NA
ATOM      7  C   UNL d   1     -41.770-122.623 -53.921  0.00  0.00     0.281 C 
ATOM      8  O   UNL d   1     -42.279-123.061 -53.749  0.00  0.00    -0.265 OA
BRANCH   7   9
ATOM      9  C   UNL d   1     -41.885-122.294 -54.663  0.00  0.00     0.058 A 
ATOM     10  C   UNL d   1     -41.286-122.336 -55.226  0.00  0.00     0.006 A 
ATOM     11  C   UNL d   1     -41.407-122.001 -55.977  0.00  0.00     0.012 A 
ATOM     12  C   UNL d   1     -42.131-121.630 -56.147  0.00  0.00     0.058 A 
ATOM     13  C   UNL d   1     -42.719-121.599 -55.569  0.00  0.00     0.012 A 
ATOM     14 CL   UNL d   1     -42.167-121.306 -56.964  0.00  0.00    -0.082 Cl
ATOM     15  C   UNL d   1     -42.593-121.931 -54.830  0.00  0.00     0.006 A 
ENDBRANCH   7   9
ENDBRANCH   1   6
BRANCH   3  16
ATOM     16  S   UNL d   1     -41.155-123.274 -50.294  0.00  0.00    -0.059 SA
BRANCH  16  17
ATOM     17  C   UNL d   1     -41.813-123.059 -50.019  0.00  0.00     0.037 C 
BRANCH  17  18
ATOM     18  C   UNL d   1     -41.993-123.192 -49.235  0.00  0.00     0.007 A 
ATOM     19  C   UNL d   1     -41.435-123.078 -48.645  0.00  0.00     0.001 A 
ATOM     20  C   UNL d   1     -41.617-123.213 -47.849  0.00  0.00     0.007 A 
ATOM     21  C   UNL d   1     -42.379-123.469 -47.649  0.00  0.00     0.035 A 
ATOM     22  C   UNL d   1     -42.957-123.589 -48.250  0.00  0.00     0.007 A 
ATOM     23 BR   UNL d   1     -42.636-123.645 -46.679  0.00  0.00    -0.049 Br
ATOM     24  C   UNL d   1     -42.736-123.442 -49.041  0.00  0.00     0.001 A 
ENDBRANCH  17  18
ENDBRANCH  16  17
ENDBRANCH   3  16
TORSDOF 5
ENDMDL
MODEL 2
REMARK VINA RESULT:      -2.3      3.158      6.191
REMARK  5 active torsions:
REMARK  status: ('A' for Active; 'I' for Inactive)
REMARK    1  A    between atoms: N_3  and  C_1 
REMARK       I    between atoms: C_7  and  N_3 
REMARK    2  A    between atoms: S_9  and  C_4 
REMARK    3  A    between atoms: C_8  and  C_7 
REMARK    4  A    between atoms: C_13  and  S_9 
REMARK    5  A    between atoms: C_16  and  C_13 
ROOT
ATOM      1  C   UNL d   1     -41.156-123.216 -51.298  0.00  0.00     0.219 A 
ATOM      2  S   UNL d   1     -41.154-122.588 -51.884  0.00  0.00    -0.019 SA
ATOM      3  C   UNL d   1     -41.134-122.984 -52.658  0.00  0.00     0.165 A 
ATOM      4  N   UNL d   1     -41.141-123.817 -51.682  0.00  0.00    -0.120 NA
ATOM      5  N   UNL d   1     -41.127-123.662 -52.530  0.00  0.00    -0.133 NA
ENDROOT
BRANCH   1   6
ATOM      6  N   UNL d   1     -41.175-123.102 -50.383  0.00  0.00    -0.181 NA
ATOM      7  C   UNL d   1     -41.888-123.255 -49.937  0.00  0.00     0.281 C 
ATOM      8  O   UNL d   1     -42.449-123.466 -50.286  0.00  0.00    -0.265 OA
BRANCH   7   9
ATOM      9  C   UNL d   1     -42.032-123.193 -49.133  0.00  0.00     0.058 A 
ATOM     10  C   UNL d   1     -42.790-123.015 -48.866  0.00  0.00     0.006 A 
ATOM     11  C   UNL d   1     -42.932-122.953 -48.050  0.00  0.00     0.012 A 
ATOM     12  C   UNL d   1     -42.306-123.072 -47.516  0.00  0.00     0.058 A 
ATOM     13  C   UNL d   1     -41.553-123.250 -47.804  0.00  0.00     0.012 A 
ATOM     14 CL   UNL d   1     -42.550-122.986 -46.676  0.00  0.00    -0.082 Cl
ATOM     15  C   UNL d   1     -41.421-123.310 -48.611  0.00  0.00     0.006 A 
ENDBRANCH   7   9
ENDBRANCH   1   6
BRANCH   3  16
ATOM     16  S   UNL d   1     -41.123-122.688 -53.514  0.00  0.00    -0.059 SA
BRANCH  16  17
ATOM     17  C   UNL d   1     -41.812-122.603 -53.782  0.00  0.00     0.037 C 
BRANCH  17  18
ATOM     18  C   UNL d   1     -41.927-122.302 -54.532  0.00  0.00     0.007 A 
ATOM     19  C   UNL d   1     -42.672-122.077 -54.790  0.00  0.00     0.001 A 
ATOM     20  C   UNL d   1     -42.788-121.771 -55.551  0.00  0.00     0.007 A 
ATOM     21  C   UNL d   1     -42.137-121.694 -56.057  0.00  0.00     0.035 A 
ATOM     22  C   UNL d   1     -41.369-121.923 -55.797  0.00  0.00     0.007 A 
ATOM     23 BR   UNL d   1     -42.246-121.322 -56.999  0.00  0.00    -0.049 Br
ATOM     24  C   UNL d   1     -41.291-122.226 -55.024  0.00  0.00     0.001 A 
ENDBRANCH  17  18
ENDBRANCH  16  17
ENDBRANCH   3  16
TORSDOF 5
ENDMDL
