MODEL 1
REMARK VINA RESULT:      -7.3      0.000      0.000
REMARK  4 active torsions:
REMARK  status: ('A' for Active; 'I' for Inactive)
REMARK    1  A    between atoms: C_2  and  N_1 
REMARK       I    between atoms: C_3  and  N_1 
REMARK    2  A    between atoms: N_5  and  C_2 
REMARK    3  A    between atoms: C_4  and  C_3 
REMARK    4  A    between atoms: C_7  and  N_5 
ROOT
ATOM      1  C   UNL d   1     -48.404  13.218  22.465  0.00  0.00     0.224 C 
ATOM      2  S   UNL d   1     -48.774  12.632  22.016  0.00  0.00    -0.037 SA
ENDROOT
BRANCH   1   3
ATOM      3  N   UNL d   1     -48.856  13.756  22.897  0.00  0.00    -0.177 NA
ATOM      4  C   UNL d   1     -49.313  14.323  22.509  0.00  0.00     0.304 C 
ATOM      5  O   UNL d   1     -49.315  14.348  21.683  0.00  0.00    -0.263 OA
BRANCH   4   6
ATOM      6  C   UNL d   1     -49.765  14.862  22.940  0.00  0.00     0.158 A 
ATOM      7  O   UNL d   1     -49.467  15.522  23.347  0.00  0.00    -0.300 OA
ATOM      8  C   UNL d   1     -50.117  15.902  23.698  0.00  0.00     0.123 A 
ATOM      9  C   UNL d   1     -50.800  15.480  23.508  0.00  0.00     0.029 A 
ATOM     10  C   UNL d   1     -50.581  14.837  23.039  0.00  0.00     0.032 A 
ENDBRANCH   4   6
ENDBRANCH   1   3
BRANCH   1  11
ATOM     11  N   UNL d   1     -47.574  13.260  22.479  0.00  0.00    -0.215 NA
BRANCH  11  12
ATOM     12  C   UNL d   1     -47.134  12.693  22.885  0.00  0.00     0.112 A 
ATOM     13  C   UNL d   1     -46.302  12.757  22.921  0.00  0.00     0.156 A 
ATOM     14  N   UNL d   1     -45.861  12.191  23.327  0.00  0.00    -0.231 NA
ATOM     15 CL   UNL d   1     -45.920  13.395  22.545  0.00  0.00    -0.060 Cl
ATOM     16  C   UNL d   1     -46.243  11.561  23.698  0.00  0.00     0.100 A 
ATOM     17  C   UNL d   1     -47.067  11.497  23.663  0.00  0.00     0.022 A 
ATOM     18  C   UNL d   1     -47.516  12.063  23.256  0.00  0.00     0.023 A 
ENDBRANCH  11  12
ENDBRANCH   1  11
TORSDOF 4
ENDMDL
MODEL 2
REMARK VINA RESULT:      -6.6      1.824      4.146
REMARK  4 active torsions:
REMARK  status: ('A' for Active; 'I' for Inactive)
REMARK    1  A    between atoms: C_2  and  N_1 
REMARK       I    between atoms: C_3  and  N_1 
REMARK    2  A    between atoms: N_5  and  C_2 
REMARK    3  A    between atoms: C_4  and  C_3 
REMARK    4  A    between atoms: C_7  and  N_5 
ROOT
ATOM      1  C   UNL d   1     -48.273  14.178  22.605  0.00  0.00     0.224 C 
ATOM      2  S   UNL d   1     -47.728  14.799  22.620  0.00  0.00    -0.037 SA
ENDROOT
BRANCH   1   3
ATOM      3  N   UNL d   1     -48.093  13.461  22.970  0.00  0.00    -0.177 NA
ATOM      4  C   UNL d   1     -47.405  13.050  22.769  0.00  0.00     0.304 C 
ATOM      5  O   UNL d   1     -46.897  13.364  22.198  0.00  0.00    -0.263 OA
BRANCH   4   6
ATOM      6  C   UNL d   1     -47.225  12.333  23.134  0.00  0.00     0.158 A 
ATOM      7  O   UNL d   1     -47.777  11.749  23.344  0.00  0.00    -0.300 OA
ATOM      8  C   UNL d   1     -47.349  11.128  23.694  0.00  0.00     0.123 A 
ATOM      9  C   UNL d   1     -46.550  11.332  23.697  0.00  0.00     0.029 A 
ATOM     10  C   UNL d   1     -46.474  12.077  23.351  0.00  0.00     0.032 A 
ENDBRANCH   4   6
ENDBRANCH   1   3
BRANCH   1  11
ATOM     11  N   UNL d   1     -49.001  14.282  22.220  0.00  0.00    -0.215 NA
BRANCH  11  12
ATOM     12  C   UNL d   1     -49.608  14.708  22.581  0.00  0.00     0.112 A 
ATOM     13  C   UNL d   1     -50.403  14.565  22.369  0.00  0.00     0.156 A 
ATOM     14  N   UNL d   1     -51.010  14.991  22.730  0.00  0.00    -0.231 NA
ATOM     15 CL   UNL d   1     -50.580  13.992  21.791  0.00  0.00    -0.060 Cl
ATOM     16  C   UNL d   1     -50.830  15.558  23.302  0.00  0.00     0.100 A 
ATOM     17  C   UNL d   1     -50.043  15.700  23.512  0.00  0.00     0.022 A 
ATOM     18  C   UNL d   1     -49.429  15.275  23.153  0.00  0.00     0.023 A 
ENDBRANCH  11  12
ENDBRANCH   1  11
TORSDOF 4
ENDMDL
MODEL 3
REMARK VINA RESULT:      -6.5      2.090      4.199
REMARK  4 active torsions:
REMARK  status: ('A' for Active; 'I' for Inactive)
REMARK    1  A    between atoms: C_2  and  N_1 
REMARK       I    between atoms: C_3  and  N_1 
REMARK    2  A    between atoms: N_5  and  C_2 
REMARK    3  A    between atoms: C_4  and  C_3 
REMARK    4  A    between atoms: C_7  and  N_5 
ROOT
ATOM      1  C   UNL d   1     -49.703  12.446  23.185  0.00  0.00     0.224 C 
ATOM      2  S   UNL d   1     -50.164  11.992  23.698  0.00  0.00    -0.037 SA
ENDROOT
BRANCH   1   3
ATOM      3  N   UNL d   1     -48.885  12.484  23.287  0.00  0.00    -0.177 NA
ATOM      4  C   UNL d   1     -48.437  11.792  23.333  0.00  0.00     0.304 C 
ATOM      5  O   UNL d   1     -48.814  11.060  23.275  0.00  0.00    -0.263 OA
BRANCH   4   6
ATOM      6  C   UNL d   1     -47.619  11.830  23.435  0.00  0.00     0.158 A 
ATOM      7  O   UNL d   1     -47.152  12.506  23.319  0.00  0.00    -0.300 OA
ATOM      8  C   UNL d   1     -46.368  12.287  23.485  0.00  0.00     0.123 A 
ATOM      9  C   UNL d   1     -46.359  11.491  23.698  0.00  0.00     0.029 A 
ATOM     10  C   UNL d   1     -47.133  11.209  23.666  0.00  0.00     0.032 A 
ENDBRANCH   4   6
ENDBRANCH   1   3
BRANCH   1  11
ATOM     11  N   UNL d   1     -50.068  12.864  22.567  0.00  0.00    -0.215 NA
BRANCH  11  12
ATOM     12  C   UNL d   1     -50.391  13.611  22.700  0.00  0.00     0.112 A 
ATOM     13  C   UNL d   1     -50.662  14.070  22.057  0.00  0.00     0.156 A 
ATOM     14  N   UNL d   1     -50.985  14.817  22.191  0.00  0.00    -0.231 NA
ATOM     15 CL   UNL d   1     -50.605  13.770  21.283  0.00  0.00    -0.060 Cl
ATOM     16  C   UNL d   1     -51.039  15.110  22.960  0.00  0.00     0.100 A 
ATOM     17  C   UNL d   1     -50.771  14.656  23.596  0.00  0.00     0.022 A 
ATOM     18  C   UNL d   1     -50.446  13.904  23.469  0.00  0.00     0.023 A 
ENDBRANCH  11  12
ENDBRANCH   1  11
TORSDOF 4
ENDMDL
MODEL 4
REMARK VINA RESULT:      -6.3      2.364      4.139
REMARK  4 active torsions:
REMARK  status: ('A' for Active; 'I' for Inactive)
REMARK    1  A    between atoms: C_2  and  N_1 
REMARK       I    between atoms: C_3  and  N_1 
REMARK    2  A    between atoms: N_5  and  C_2 
REMARK    3  A    between atoms: C_4  and  C_3 
REMARK    4  A    between atoms: C_7  and  N_5 
ROOT
ATOM      1  C   UNL d   1     -47.621  13.439  22.784  0.00  0.00     0.224 C 
ATOM      2  S   UNL d   1     -47.752  14.246  22.904  0.00  0.00    -0.037 SA
ENDROOT
BRANCH   1   3
ATOM      3  N   UNL d   1     -46.911  13.179  22.454  0.00  0.00    -0.177 NA
ATOM      4  C   UNL d   1     -46.204  13.253  22.874  0.00  0.00     0.304 C 
ATOM      5  O   UNL d   1     -46.212  13.588  23.628  0.00  0.00    -0.263 OA
BRANCH   4   6
ATOM      6  C   UNL d   1     -45.493  12.993  22.544  0.00  0.00     0.158 A 
ATOM      7  O   UNL d   1     -45.069  12.321  22.785  0.00  0.00    -0.300 OA
ATOM      8  C   UNL d   1     -44.395  12.276  22.302  0.00  0.00     0.123 A 
ATOM      9  C   UNL d   1     -44.409  12.910  21.775  0.00  0.00     0.029 A 
ATOM     10  C   UNL d   1     -45.089  13.353  21.926  0.00  0.00     0.032 A 
ENDBRANCH   4   6
ENDBRANCH   1   3
BRANCH   1  11
ATOM     11  N   UNL d   1     -48.208  12.892  22.999  0.00  0.00    -0.215 NA
BRANCH  11  12
ATOM     12  C   UNL d   1     -48.876  12.789  22.526  0.00  0.00     0.112 A 
ATOM     13  C   UNL d   1     -49.468  12.245  22.751  0.00  0.00     0.156 A 
ATOM     14  N   UNL d   1     -50.135  12.141  22.277  0.00  0.00    -0.231 NA
ATOM     15 CL   UNL d   1     -49.381  11.808  23.455  0.00  0.00    -0.060 Cl
ATOM     16  C   UNL d   1     -50.217  12.575  21.581  0.00  0.00     0.100 A 
ATOM     17  C   UNL d   1     -49.631  13.114  21.358  0.00  0.00     0.022 A 
ATOM     18  C   UNL d   1     -48.958  13.223  21.829  0.00  0.00     0.023 A 
ENDBRANCH  11  12
ENDBRANCH   1  11
TORSDOF 4
ENDMDL
MODEL 5
REMARK VINA RESULT:      -6.3      1.405      1.923
REMARK  4 active torsions:
REMARK  status: ('A' for Active; 'I' for Inactive)
REMARK    1  A    between atoms: C_2  and  N_1 
REMARK       I    between atoms: C_3  and  N_1 
REMARK    2  A    between atoms: N_5  and  C_2 
REMARK    3  A    between atoms: C_4  and  C_3 
REMARK    4  A    between atoms: C_7  and  N_5 
ROOT
ATOM      1  C   UNL d   1     -47.834  13.851  22.877  0.00  0.00     0.224 C 
ATOM      2  S   UNL d   1     -47.639  14.653  22.866  0.00  0.00    -0.037 SA
ENDROOT
BRANCH   1   3
ATOM      3  N   UNL d   1     -48.506  13.583  22.482  0.00  0.00    -0.177 NA
ATOM      4  C   UNL d   1     -49.255  13.855  22.699  0.00  0.00     0.304 C 
ATOM      5  O   UNL d   1     -49.326  14.399  23.316  0.00  0.00    -0.263 OA
BRANCH   4   6
ATOM      6  C   UNL d   1     -49.928  13.587  22.304  0.00  0.00     0.158 A 
ATOM      7  O   UNL d   1     -50.199  13.869  21.572  0.00  0.00    -0.300 OA
ATOM      8  C   UNL d   1     -50.889  13.443  21.391  0.00  0.00     0.123 A 
ATOM      9  C   UNL d   1     -51.035  12.910  22.003  0.00  0.00     0.029 A 
ATOM     10  C   UNL d   1     -50.440  13.000  22.567  0.00  0.00     0.032 A 
ENDBRANCH   4   6
ENDBRANCH   1   3
BRANCH   1  11
ATOM     11  N   UNL d   1     -47.348  13.317  23.288  0.00  0.00    -0.215 NA
BRANCH  11  12
ATOM     12  C   UNL d   1     -46.608  13.110  22.988  0.00  0.00     0.112 A 
ATOM     13  C   UNL d   1     -46.266  12.376  23.191  0.00  0.00     0.156 A 
ATOM     14  N   UNL d   1     -45.526  12.168  22.892  0.00  0.00    -0.231 NA
ATOM     15 CL   UNL d   1     -46.674  11.855  23.697  0.00  0.00    -0.060 Cl
ATOM     16  C   UNL d   1     -45.124  12.687  22.391  0.00  0.00     0.100 A 
ATOM     17  C   UNL d   1     -45.464  13.414  22.190  0.00  0.00     0.022 A 
ATOM     18  C   UNL d   1     -46.207  13.628  22.488  0.00  0.00     0.023 A 
ENDBRANCH  11  12
ENDBRANCH   1  11
TORSDOF 4
ENDMDL
