MODEL 1
REMARK VINA RESULT:      -1.0      0.000      0.000
REMARK  5 active torsions:
REMARK  status: ('A' for Active; 'I' for Inactive)
REMARK    1  A    between atoms: C_6  and  N_1 
REMARK    2  A    between atoms: C_7  and  C_3 
REMARK    3  A    between atoms: C_10  and  C_7 
REMARK    4  A    between atoms: C_16  and  C_8 
REMARK    5  A    between atoms: C_14  and  C_18 
ROOT
ATOM      1  N   UNL d   1     -42.496-122.628 -50.112  0.00  0.00    -0.252 N 
ATOM      2  C   UNL d   1     -42.960-122.161 -50.602  0.00  0.00     0.203 A 
ATOM      3  C   UNL d   1     -41.773-122.306 -51.180  0.00  0.00     0.091 A 
ATOM      4  C   UNL d   1     -41.759-122.720 -50.466  0.00  0.00     0.272 A 
ATOM      5  S   UNL d   1     -42.517-121.961 -51.260  0.00  0.00    -0.043 SA
ATOM      6  N   UNL d   1     -43.744-121.932 -50.454  0.00  0.00    -0.121 N 
ATOM      7  O   UNL d   1     -41.124-123.146 -50.169  0.00  0.00    -0.266 OA
ENDROOT
BRANCH   3   8
ATOM      8  C   UNL d   1     -41.153-122.245 -51.720  0.00  0.00     0.036 C 
BRANCH   8   9
ATOM      9  C   UNL d   1     -41.242-122.511 -52.502  0.00  0.00     0.101 A 
ATOM     10  O   UNL d   1     -41.469-122.039 -53.141  0.00  0.00    -0.307 OA
ATOM     11  C   UNL d   1     -41.491-122.516 -53.819  0.00  0.00     0.100 A 
ATOM     12  C   UNL d   1     -41.275-123.285 -53.589  0.00  0.00     0.027 A 
ATOM     13  C   UNL d   1     -41.123-123.272 -52.776  0.00  0.00     0.027 A 
BRANCH  11  14
ATOM     14  C   UNL d   1     -41.689-122.274 -54.574  0.00  0.00     0.023 A 
ATOM     15  C   UNL d   1     -42.444-122.401 -54.868  0.00  0.00     0.008 A 
ATOM     16  C   UNL d   1     -42.636-122.152 -55.636  0.00  0.00     0.065 A 
ATOM     17  C   UNL d   1     -42.083-121.784 -56.098  0.00  0.00     0.006 A 
ATOM     18  C   UNL d   1     -41.322-121.649 -55.819  0.00  0.00     0.000 A 
ATOM     19  C   UNL d   1     -41.133-121.900 -55.049  0.00  0.00     0.002 A 
BRANCH  16  20
ATOM     20  C   UNL d   1     -43.415-122.286 -55.930  0.00  0.00     0.211 C 
ATOM     21  O   UNL d   1     -44.061-121.953 -55.550  0.00  0.00    -0.644 OA
ATOM     22  O   UNL d   1     -43.529-122.748 -56.594  0.00  0.00    -0.644 OA
ENDBRANCH  16  20
ENDBRANCH  11  14
ENDBRANCH   8   9
ENDBRANCH   3   8
BRANCH   1  23
ATOM     23  C   UNL d   1     -42.731-122.950 -49.386  0.00  0.00     0.071 A 
ATOM     24  C   UNL d   1     -42.310-122.761 -48.696  0.00  0.00     0.044 A 
ATOM     25  C   UNL d   1     -42.541-123.082 -47.960  0.00  0.00     0.121 A 
ATOM     26  O   UNL d   1     -42.227-122.989 -47.198  0.00  0.00    -0.299 OA
ATOM     27  C   UNL d   1     -43.188-123.584 -47.924  0.00  0.00     0.119 A 
ATOM     28  C   UNL d   1     -42.690-123.443 -46.689  0.00  0.00     0.304 A 
ATOM     29  O   UNL d   1     -43.288-123.815 -47.133  0.00  0.00    -0.300 OA
ATOM     30  C   UNL d   1     -43.610-123.775 -48.601  0.00  0.00     0.028 A 
ATOM     31  C   UNL d   1     -43.381-123.457 -49.337  0.00  0.00     0.020 A 
ENDBRANCH   1  23
TORSDOF 5
ENDMDL
