MODEL 1
REMARK VINA RESULT:      99.5      0.000      0.000
REMARK  7 active torsions:
REMARK  status: ('A' for Active; 'I' for Inactive)
REMARK    1  A    between atoms: O_8  and  C_2 
REMARK    2  A    between atoms: C_10  and  C_5 
REMARK    3  A    between atoms: C_21  and  O_8 
REMARK    4  A    between atoms: N_9  and  C_10 
REMARK    5  A    between atoms: C_12  and  C_15 
REMARK    6  A    between atoms: O_26  and  C_12 
REMARK    7  A    between atoms: C_32  and  O_26 
ROOT
ATOM      1  C   UNL d   1     -55.125-100.908 -42.741  0.00  0.00     0.108 A 
ATOM      2  C   UNL d   1     -54.908-100.499 -41.146  0.00  0.00     0.161 A 
ATOM      3  C   UNL d   1     -55.112-101.504 -42.153  0.00  0.00     0.064 A 
ATOM      4  C   UNL d   1     -55.005-101.302 -41.364  0.00  0.00     0.222 A 
ATOM      5  C   UNL d   1     -55.233-101.112 -43.538  0.00  0.00     0.079 A 
ATOM      6  O   UNL d   1     -55.029-100.110 -42.534  0.00  0.00    -0.305 OA
ATOM      7  C   UNL d   1     -54.920 -99.908 -41.728  0.00  0.00     0.126 A 
ATOM      8  C   UNL d   1     -55.210-102.298 -42.380  0.00  0.00     0.009 A 
ATOM      9  C   UNL d   1     -55.329-101.902 -43.754  0.00  0.00     0.199 A 
ATOM     10  O   UNL d   1     -54.992-101.887 -40.782  0.00  0.00    -0.284 OA
ATOM     11  C   UNL d   1     -55.317-102.497 -43.172  0.00  0.00     0.042 A 
ATOM     12  O   UNL d   1     -55.436-102.105 -44.540  0.00  0.00    -0.286 OA
ATOM     13  C   UNL d   1     -54.824 -99.119 -41.512  0.00  0.00     0.029 C 
ENDROOT
BRANCH   2  14
ATOM     14  O   UNL d   1     -54.800-100.300 -40.354  0.00  0.00    -0.302 OA
BRANCH  14  15
ATOM     15  C   UNL d   1     -54.935-100.861 -39.767  0.00  0.00     0.100 A 
ATOM     16  C   UNL d   1     -55.200-100.623 -39.025  0.00  0.00     0.025 A 
ATOM     17  C   UNL d   1     -55.336-101.184 -38.439  0.00  0.00     0.007 A 
ATOM     18  C   UNL d   1     -55.206-101.983 -38.594  0.00  0.00     0.064 A 
ATOM     19  C   UNL d   1     -54.937-102.219 -39.348  0.00  0.00     0.007 A 
ATOM     20  C   UNL d   1     -54.804-101.659 -39.926  0.00  0.00     0.025 A 
BRANCH  18  21
ATOM     21  C   UNL d   1     -55.341-102.549 -38.007  0.00  0.00     0.300 C 
ATOM     22  O   UNL d   1     -54.721-102.807 -37.527  0.00  0.00    -0.259 OA
BRANCH  21  23
ATOM     23  O   UNL d   1     -56.097-102.863 -37.895  0.00  0.00    -0.271 OA
BRANCH  23  24
ATOM     24  C   UNL d   1     -56.681-102.400 -37.541  0.00  0.00     0.126 C 
ATOM     25  C   UNL d   1     -56.931-102.561 -36.773  0.00  0.00     0.029 C 
ENDBRANCH  23  24
ENDBRANCH  21  23
ENDBRANCH  18  21
ENDBRANCH  14  15
ENDBRANCH   2  14
BRANCH   5  26
ATOM     26  C   UNL d   1     -55.245-100.528 -44.108  0.00  0.00     0.086 C 
BRANCH  26  27
ATOM     27  N   UNL d   1     -55.938-100.097 -44.244  0.00  0.00    -0.300 N 
ATOM     28  C   UNL d   1     -56.673-100.462 -44.162  0.00  0.00     0.100 A 
ATOM     29  C   UNL d   1     -57.359-100.033 -44.297  0.00  0.00     0.100 A 
ATOM     30  N   UNL d   1     -57.319 -99.241 -44.512  0.00  0.00    -0.299 N 
ATOM     31  C   UNL d   1     -56.580 -98.874 -44.593  0.00  0.00     0.100 A 
ATOM     32  C   UNL d   1     -58.014 -98.806 -44.648  0.00  0.00     0.100 C 
ATOM     33  C   UNL d   1     -55.887 -99.305 -44.458  0.00  0.00     0.100 A 
ENDBRANCH  26  27
ENDBRANCH   5  26
TORSDOF 7
ENDMDL
