MODEL 1
REMARK VINA RESULT:      -7.6      0.000      0.000
REMARK  4 active torsions:
REMARK  status: ('A' for Active; 'I' for Inactive)
REMARK    1  A    between atoms: C_4  and  C_1 
REMARK    2  A    between atoms: N_7  and  C_4 
REMARK    3  A    between atoms: C_10  and  C_4 
REMARK    4  A    between atoms: C_8  and  N_7 
ROOT
ATOM      1  C   UNL d   1     -48.571  13.486  22.781  0.00  0.00     0.085 C 
ENDROOT
BRANCH   1   2
ATOM      2  C   UNL d   1     -48.775  14.286  22.804  0.00  0.00     0.037 A 
ATOM      3  C   UNL d   1     -48.337  14.936  22.544  0.00  0.00     0.083 A 
ATOM      4  N   UNL d   1     -48.713  15.591  22.659  0.00  0.00    -0.245 NA
ATOM      5  C   UNL d   1     -47.588  14.882  22.202  0.00  0.00     0.021 C 
ATOM      6  C   UNL d   1     -49.456  15.422  23.018  0.00  0.00     0.081 A 
ATOM      7  C   UNL d   1     -49.494  14.602  23.108  0.00  0.00     0.021 A 
ATOM      8  C   UNL d   1     -50.087  15.906  23.267  0.00  0.00     0.019 A 
ATOM      9  C   UNL d   1     -50.164  14.263  23.448  0.00  0.00     0.002 A 
ATOM     10  C   UNL d   1     -50.792  14.728  23.697  0.00  0.00     0.000 A 
ATOM     11  C   UNL d   1     -50.754  15.548  23.607  0.00  0.00     0.002 A 
ENDBRANCH   1   2
BRANCH   1  12
ATOM     12  N   UNL d   1     -48.190  13.162  23.423  0.00  0.00    -0.227 NA
BRANCH  12  13
ATOM     13  C   UNL d   1     -47.450  12.838  23.353  0.00  0.00     0.162 A 
ATOM     14  N   UNL d   1     -46.819  13.282  23.083  0.00  0.00    -0.225 NA
ATOM     15  C   UNL d   1     -46.046  12.925  23.015  0.00  0.00     0.101 A 
ATOM     16  C   UNL d   1     -45.968  12.148  23.223  0.00  0.00     0.021 A 
ATOM     17  C   UNL d   1     -46.590  11.700  23.492  0.00  0.00     0.005 A 
ATOM     18  C   UNL d   1     -47.336  12.032  23.561  0.00  0.00     0.039 A 
ATOM     19  C   UNL d   1     -46.463  10.907  23.694  0.00  0.00     0.000 C 
ENDBRANCH  12  13
ENDBRANCH   1  12
BRANCH   1  20
ATOM     20  C   UNL d   1     -48.751  13.022  22.117  0.00  0.00     0.021 A 
ATOM     21  C   UNL d   1     -49.259  12.384  22.220  0.00  0.00     0.022 A 
ATOM     22  C   UNL d   1     -49.439  11.921  21.556  0.00  0.00     0.099 A 
ATOM     23  N   UNL d   1     -49.109  12.108  20.818  0.00  0.00    -0.242 NA
ATOM     24  C   UNL d   1     -48.608  12.747  20.742  0.00  0.00     0.099 A 
ATOM     25  C   UNL d   1     -48.421  13.209  21.379  0.00  0.00     0.022 A 
ENDBRANCH   1  20
TORSDOF 4
ENDMDL
MODEL 2
REMARK VINA RESULT:      -6.5      8.496     10.074
REMARK  4 active torsions:
REMARK  status: ('A' for Active; 'I' for Inactive)
REMARK    1  A    between atoms: C_4  and  C_1 
REMARK    2  A    between atoms: N_7  and  C_4 
REMARK    3  A    between atoms: C_10  and  C_4 
REMARK    4  A    between atoms: C_8  and  N_7 
ROOT
ATOM      1  C   UNL d   1     -39.973  14.544  18.142  0.00  0.00     0.085 C 
ENDROOT
BRANCH   1   2
ATOM      2  C   UNL d   1     -39.696  14.892  18.838  0.00  0.00     0.037 A 
ATOM      3  C   UNL d   1     -39.068  15.419  18.936  0.00  0.00     0.083 A 
ATOM      4  N   UNL d   1     -38.983  15.619  19.669  0.00  0.00    -0.245 NA
ATOM      5  C   UNL d   1     -38.594  15.692  18.319  0.00  0.00     0.021 C 
ATOM      6  C   UNL d   1     -39.568  15.228  20.130  0.00  0.00     0.081 A 
ATOM      7  C   UNL d   1     -40.016  14.772  19.609  0.00  0.00     0.021 A 
ATOM      8  C   UNL d   1     -39.741  15.234  20.946  0.00  0.00     0.019 A 
ATOM      9  C   UNL d   1     -40.640  14.319  19.900  0.00  0.00     0.002 A 
ATOM     10  C   UNL d   1     -40.821  14.316  20.701  0.00  0.00     0.000 A 
ATOM     11  C   UNL d   1     -40.373  14.772  21.222  0.00  0.00     0.002 A 
ENDBRANCH   1   2
BRANCH   1  12
ATOM     12  N   UNL d   1     -39.925  13.735  18.065  0.00  0.00    -0.227 NA
BRANCH  12  13
ATOM     13  C   UNL d   1     -39.271  13.382  17.741  0.00  0.00     0.162 A 
ATOM     14  N   UNL d   1     -38.934  13.670  17.053  0.00  0.00    -0.225 NA
ATOM     15  C   UNL d   1     -38.245  13.286  16.725  0.00  0.00     0.101 A 
ATOM     16  C   UNL d   1     -37.949  12.643  17.113  0.00  0.00     0.021 A 
ATOM     17  C   UNL d   1     -38.278  12.351  17.797  0.00  0.00     0.005 A 
ATOM     18  C   UNL d   1     -38.939  12.711  18.121  0.00  0.00     0.039 A 
ATOM     19  C   UNL d   1     -37.940  11.689  18.161  0.00  0.00     0.000 C 
ENDBRANCH  12  13
ENDBRANCH   1  12
BRANCH   1  20
ATOM     20  C   UNL d   1     -40.292  15.009  17.534  0.00  0.00     0.021 A 
ATOM     21  C   UNL d   1     -41.110  15.041  17.464  0.00  0.00     0.022 A 
ATOM     22  C   UNL d   1     -41.430  15.506  16.857  0.00  0.00     0.099 A 
ATOM     23  N   UNL d   1     -40.926  15.920  16.343  0.00  0.00    -0.242 NA
ATOM     24  C   UNL d   1     -40.117  15.872  16.433  0.00  0.00     0.099 A 
ATOM     25  C   UNL d   1     -39.788  15.423  17.020  0.00  0.00     0.022 A 
ENDBRANCH   1  20
TORSDOF 4
ENDMDL
MODEL 3
REMARK VINA RESULT:      -5.8      0.912      3.275
REMARK  4 active torsions:
REMARK  status: ('A' for Active; 'I' for Inactive)
REMARK    1  A    between atoms: C_4  and  C_1 
REMARK    2  A    between atoms: N_7  and  C_4 
REMARK    3  A    between atoms: C_10  and  C_4 
REMARK    4  A    between atoms: C_8  and  N_7 
ROOT
ATOM      1  C   UNL d   1     -48.013  13.107  22.984  0.00  0.00     0.085 C 
ENDROOT
BRANCH   1   2
ATOM      2  C   UNL d   1     -48.567  12.695  22.529  0.00  0.00     0.037 A 
ATOM      3  C   UNL d   1     -48.585  12.592  21.710  0.00  0.00     0.083 A 
ATOM      4  N   UNL d   1     -49.188  12.175  21.495  0.00  0.00    -0.245 NA
ATOM      5  C   UNL d   1     -48.022  12.901  21.193  0.00  0.00     0.021 C 
ATOM      6  C   UNL d   1     -49.633  11.961  22.176  0.00  0.00     0.081 A 
ATOM      7  C   UNL d   1     -49.243  12.288  22.826  0.00  0.00     0.021 A 
ATOM      8  C   UNL d   1     -50.331  11.518  22.280  0.00  0.00     0.019 A 
ATOM      9  C   UNL d   1     -49.549  12.173  23.583  0.00  0.00     0.002 A 
ATOM     10  C   UNL d   1     -50.236  11.738  23.698  0.00  0.00     0.000 A 
ATOM     11  C   UNL d   1     -50.626  11.412  23.048  0.00  0.00     0.002 A 
ENDBRANCH   1   2
BRANCH   1  12
ATOM     12  N   UNL d   1     -48.273  13.720  23.453  0.00  0.00    -0.227 NA
BRANCH  12  13
ATOM     13  C   UNL d   1     -48.448  14.444  23.136  0.00  0.00     0.162 A 
ATOM     14  N   UNL d   1     -47.931  14.818  22.625  0.00  0.00    -0.225 NA
ATOM     15  C   UNL d   1     -48.132  15.582  22.300  0.00  0.00     0.101 A 
ATOM     16  C   UNL d   1     -48.838  15.911  22.515  0.00  0.00     0.021 A 
ATOM     17  C   UNL d   1     -49.357  15.546  23.022  0.00  0.00     0.005 A 
ATOM     18  C   UNL d   1     -49.175  14.814  23.340  0.00  0.00     0.039 A 
ATOM     19  C   UNL d   1     -50.070  15.922  23.215  0.00  0.00     0.000 C 
ENDBRANCH  12  13
ENDBRANCH   1  12
BRANCH   1  20
ATOM     20  C   UNL d   1     -47.211  12.899  22.963  0.00  0.00     0.021 A 
ATOM     21  C   UNL d   1     -46.914  12.448  23.584  0.00  0.00     0.022 A 
ATOM     22  C   UNL d   1     -46.112  12.241  23.563  0.00  0.00     0.099 A 
ATOM     23  N   UNL d   1     -45.636  12.487  22.929  0.00  0.00    -0.242 NA
ATOM     24  C   UNL d   1     -45.955  12.934  22.326  0.00  0.00     0.099 A 
ATOM     25  C   UNL d   1     -46.735  13.146  22.330  0.00  0.00     0.022 A 
ENDBRANCH   1  20
TORSDOF 4
ENDMDL
MODEL 4
REMARK VINA RESULT:      -5.2      8.198     10.450
REMARK  4 active torsions:
REMARK  status: ('A' for Active; 'I' for Inactive)
REMARK    1  A    between atoms: C_4  and  C_1 
REMARK    2  A    between atoms: N_7  and  C_4 
REMARK    3  A    between atoms: C_10  and  C_4 
REMARK    4  A    between atoms: C_8  and  N_7 
ROOT
ATOM      1  C   UNL d   1     -39.116  14.323  19.569  0.00  0.00     0.085 C 
ENDROOT
BRANCH   1   2
ATOM      2  C   UNL d   1     -38.708  14.583  18.898  0.00  0.00     0.037 A 
ATOM      3  C   UNL d   1     -38.334  15.309  18.774  0.00  0.00     0.083 A 
ATOM      4  N   UNL d   1     -38.016  15.344  18.080  0.00  0.00    -0.245 NA
ATOM      5  C   UNL d   1     -38.310  15.918  19.330  0.00  0.00     0.021 C 
ATOM      6  C   UNL d   1     -38.157  14.619  17.676  0.00  0.00     0.081 A 
ATOM      7  C   UNL d   1     -38.591  14.142  18.190  0.00  0.00     0.021 A 
ATOM      8  C   UNL d   1     -37.946  14.344  16.918  0.00  0.00     0.019 A 
ATOM      9  C   UNL d   1     -38.818  13.386  17.949  0.00  0.00     0.002 A 
ATOM     10  C   UNL d   1     -38.616  13.104  17.205  0.00  0.00     0.000 A 
ATOM     11  C   UNL d   1     -38.182  13.581  16.691  0.00  0.00     0.002 A 
ENDBRANCH   1   2
BRANCH   1  12
ATOM     12  N   UNL d   1     -39.914  14.178  19.507  0.00  0.00    -0.227 NA
BRANCH  12  13
ATOM     13  C   UNL d   1     -40.456  14.638  19.896  0.00  0.00     0.162 A 
ATOM     14  N   UNL d   1     -40.470  15.450  19.794  0.00  0.00    -0.225 NA
ATOM     15  C   UNL d   1     -41.047  15.921  20.211  0.00  0.00     0.101 A 
ATOM     16  C   UNL d   1     -41.566  15.539  20.699  0.00  0.00     0.021 A 
ATOM     17  C   UNL d   1     -41.558  14.734  20.806  0.00  0.00     0.005 A 
ATOM     18  C   UNL d   1     -41.009  14.272  20.411  0.00  0.00     0.039 A 
ATOM     19  C   UNL d   1     -42.109  14.386  21.317  0.00  0.00     0.000 C 
ENDBRANCH  12  13
ENDBRANCH   1  12
BRANCH   1  20
ATOM     20  C   UNL d   1     -38.719  14.211  20.288  0.00  0.00     0.021 A 
ATOM     21  C   UNL d   1     -38.680  13.448  20.591  0.00  0.00     0.022 A 
ATOM     22  C   UNL d   1     -38.283  13.336  21.310  0.00  0.00     0.099 A 
ATOM     23  N   UNL d   1     -37.942  13.984  21.701  0.00  0.00    -0.242 NA
ATOM     24  C   UNL d   1     -37.995  14.732  21.379  0.00  0.00     0.099 A 
ATOM     25  C   UNL d   1     -38.378  14.859  20.678  0.00  0.00     0.022 A 
ENDBRANCH   1  20
TORSDOF 4
ENDMDL
MODEL 5
REMARK VINA RESULT:      -5.1      7.748      9.939
REMARK  4 active torsions:
REMARK  status: ('A' for Active; 'I' for Inactive)
REMARK    1  A    between atoms: C_4  and  C_1 
REMARK    2  A    between atoms: N_7  and  C_4 
REMARK    3  A    between atoms: C_10  and  C_4 
REMARK    4  A    between atoms: C_8  and  N_7 
ROOT
ATOM      1  C   UNL d   1     -39.383  14.342  20.997  0.00  0.00     0.085 C 
ENDROOT
BRANCH   1   2
ATOM      2  C   UNL d   1     -38.906  14.555  21.638  0.00  0.00     0.037 A 
ATOM      3  C   UNL d   1     -38.520  15.272  21.775  0.00  0.00     0.083 A 
ATOM      4  N   UNL d   1     -38.129  15.257  22.432  0.00  0.00    -0.245 NA
ATOM      5  C   UNL d   1     -38.553  15.920  21.266  0.00  0.00     0.021 C 
ATOM      6  C   UNL d   1     -38.229  14.504  22.795  0.00  0.00     0.081 A 
ATOM      7  C   UNL d   1     -38.717  14.063  22.296  0.00  0.00     0.021 A 
ATOM      8  C   UNL d   1     -37.940  14.175  23.504  0.00  0.00     0.019 A 
ATOM      9  C   UNL d   1     -38.918  13.291  22.504  0.00  0.00     0.002 A 
ATOM     10  C   UNL d   1     -38.640  12.956  23.199  0.00  0.00     0.000 A 
ATOM     11  C   UNL d   1     -38.152  13.397  23.698  0.00  0.00     0.002 A 
ENDBRANCH   1   2
BRANCH   1  12
ATOM     12  N   UNL d   1     -39.086  13.820  20.447  0.00  0.00    -0.227 NA
BRANCH  12  13
ATOM     13  C   UNL d   1     -38.828  14.075  19.723  0.00  0.00     0.162 A 
ATOM     14  N   UNL d   1     -38.314  14.707  19.657  0.00  0.00    -0.225 NA
ATOM     15  C   UNL d   1     -38.052  14.964  18.886  0.00  0.00     0.101 A 
ATOM     16  C   UNL d   1     -38.326  14.564  18.240  0.00  0.00     0.021 A 
ATOM     17  C   UNL d   1     -38.837  13.935  18.297  0.00  0.00     0.005 A 
ATOM     18  C   UNL d   1     -39.096  13.680  19.031  0.00  0.00     0.039 A 
ATOM     19  C   UNL d   1     -39.093  13.555  17.607  0.00  0.00     0.000 C 
ENDBRANCH  12  13
ENDBRANCH   1  12
BRANCH   1  20
ATOM     20  C   UNL d   1     -40.147  14.653  20.917  0.00  0.00     0.021 A 
ATOM     21  C   UNL d   1     -40.762  14.129  20.765  0.00  0.00     0.022 A 
ATOM     22  C   UNL d   1     -41.526  14.440  20.685  0.00  0.00     0.099 A 
ATOM     23  N   UNL d   1     -41.650  15.257  20.758  0.00  0.00    -0.242 NA
ATOM     24  C   UNL d   1     -41.023  15.757  20.908  0.00  0.00     0.099 A 
ATOM     25  C   UNL d   1     -40.271  15.470  20.990  0.00  0.00     0.022 A 
ENDBRANCH   1  20
TORSDOF 4
ENDMDL
MODEL 6
REMARK VINA RESULT:      -4.8      8.563     10.325
REMARK  4 active torsions:
REMARK  status: ('A' for Active; 'I' for Inactive)
REMARK    1  A    between atoms: C_4  and  C_1 
REMARK    2  A    between atoms: N_7  and  C_4 
REMARK    3  A    between atoms: C_10  and  C_4 
REMARK    4  A    between atoms: C_8  and  N_7 
ROOT
ATOM      1  C   UNL d   1     -39.344  14.765  18.798  0.00  0.00     0.085 C 
ENDROOT
BRANCH   1   2
ATOM      2  C   UNL d   1     -39.701  14.738  19.543  0.00  0.00     0.037 A 
ATOM      3  C   UNL d   1     -40.436  14.426  19.750  0.00  0.00     0.083 A 
ATOM      4  N   UNL d   1     -40.573  14.505  20.498  0.00  0.00    -0.245 NA
ATOM      5  C   UNL d   1     -40.956  14.072  19.215  0.00  0.00     0.021 C 
ATOM      6  C   UNL d   1     -39.917  14.889  20.858  0.00  0.00     0.081 A 
ATOM      7  C   UNL d   1     -39.369  15.036  20.259  0.00  0.00     0.021 A 
ATOM      8  C   UNL d   1     -39.757  15.118  21.644  0.00  0.00     0.019 A 
ATOM      9  C   UNL d   1     -38.658  15.412  20.442  0.00  0.00     0.002 A 
ATOM     10  C   UNL d   1     -38.490  15.642  21.211  0.00  0.00     0.000 A 
ATOM     11  C   UNL d   1     -39.037  15.496  21.810  0.00  0.00     0.002 A 
ENDBRANCH   1   2
BRANCH   1  12
ATOM     12  N   UNL d   1     -39.298  15.481  18.414  0.00  0.00    -0.227 NA
BRANCH  12  13
ATOM     13  C   UNL d   1     -39.729  15.625  17.743  0.00  0.00     0.162 A 
ATOM     14  N   UNL d   1     -40.542  15.705  17.773  0.00  0.00    -0.225 NA
ATOM     15  C   UNL d   1     -40.981  15.857  17.056  0.00  0.00     0.101 A 
ATOM     16  C   UNL d   1     -40.569  15.917  16.364  0.00  0.00     0.021 A 
ATOM     17  C   UNL d   1     -39.761  15.839  16.326  0.00  0.00     0.005 A 
ATOM     18  C   UNL d   1     -39.329  15.693  17.007  0.00  0.00     0.039 A 
ATOM     19  C   UNL d   1     -39.379  15.908  15.595  0.00  0.00     0.000 C 
ENDBRANCH  12  13
ENDBRANCH   1  12
BRANCH   1  20
ATOM     20  C   UNL d   1     -39.039  14.077  18.450  0.00  0.00     0.021 A 
ATOM     21  C   UNL d   1     -39.574  13.506  18.195  0.00  0.00     0.022 A 
ATOM     22  C   UNL d   1     -39.269  12.818  17.848  0.00  0.00     0.099 A 
ATOM     23  N   UNL d   1     -38.449  12.722  17.766  0.00  0.00    -0.242 NA
ATOM     24  C   UNL d   1     -37.940  13.303  18.027  0.00  0.00     0.099 A 
ATOM     25  C   UNL d   1     -38.219  13.981  18.369  0.00  0.00     0.022 A 
ENDBRANCH   1  20
TORSDOF 4
ENDMDL
MODEL 7
REMARK VINA RESULT:      -4.8      1.117      3.978
REMARK  4 active torsions:
REMARK  status: ('A' for Active; 'I' for Inactive)
REMARK    1  A    between atoms: C_4  and  C_1 
REMARK    2  A    between atoms: N_7  and  C_4 
REMARK    3  A    between atoms: C_10  and  C_4 
REMARK    4  A    between atoms: C_8  and  N_7 
ROOT
ATOM      1  C   UNL d   1     -47.663  13.442  22.185  0.00  0.00     0.085 C 
ENDROOT
BRANCH   1   2
ATOM      2  C   UNL d   1     -47.092  13.014  22.601  0.00  0.00     0.037 A 
ATOM      3  C   UNL d   1     -47.186  12.560  23.284  0.00  0.00     0.083 A 
ATOM      4  N   UNL d   1     -46.524  12.246  23.504  0.00  0.00    -0.245 NA
ATOM      5  C   UNL d   1     -47.904  12.458  23.676  0.00  0.00     0.021 C 
ATOM      6  C   UNL d   1     -45.919  12.476  22.967  0.00  0.00     0.081 A 
ATOM      7  C   UNL d   1     -46.275  12.958  22.400  0.00  0.00     0.021 A 
ATOM      8  C   UNL d   1     -45.103  12.308  22.928  0.00  0.00     0.019 A 
ATOM      9  C   UNL d   1     -45.818  13.275  21.791  0.00  0.00     0.002 A 
ATOM     10  C   UNL d   1     -45.014  13.116  21.742  0.00  0.00     0.000 A 
ATOM     11  C   UNL d   1     -44.658  12.634  22.308  0.00  0.00     0.002 A 
ENDBRANCH   1   2
BRANCH   1  12
ATOM     12  N   UNL d   1     -47.960  13.128  21.495  0.00  0.00    -0.227 NA
BRANCH  12  13
ATOM     13  C   UNL d   1     -48.690  12.779  21.473  0.00  0.00     0.162 A 
ATOM     14  N   UNL d   1     -48.786  11.989  21.662  0.00  0.00    -0.225 NA
ATOM     15  C   UNL d   1     -49.563  11.636  21.634  0.00  0.00     0.101 A 
ATOM     16  C   UNL d   1     -50.185  12.105  21.417  0.00  0.00     0.021 A 
ATOM     17  C   UNL d   1     -50.098  12.890  21.228  0.00  0.00     0.005 A 
ATOM     18  C   UNL d   1     -49.357  13.240  21.252  0.00  0.00     0.039 A 
ATOM     19  C   UNL d   1     -50.763  13.333  21.012  0.00  0.00     0.000 C 
ENDBRANCH  12  13
ENDBRANCH   1  12
BRANCH   1  20
ATOM     20  C   UNL d   1     -47.929  14.176  22.465  0.00  0.00     0.021 A 
ATOM     21  C   UNL d   1     -47.633  14.854  22.106  0.00  0.00     0.022 A 
ATOM     22  C   UNL d   1     -47.899  15.588  22.386  0.00  0.00     0.099 A 
ATOM     23  N   UNL d   1     -48.445  15.621  23.010  0.00  0.00    -0.242 NA
ATOM     24  C   UNL d   1     -48.723  14.934  23.349  0.00  0.00     0.099 A 
ATOM     25  C   UNL d   1     -48.475  14.209  23.089  0.00  0.00     0.022 A 
ENDBRANCH   1  20
TORSDOF 4
ENDMDL
MODEL 8
REMARK VINA RESULT:      -4.7      7.494      9.417
REMARK  4 active torsions:
REMARK  status: ('A' for Active; 'I' for Inactive)
REMARK    1  A    between atoms: C_4  and  C_1 
REMARK    2  A    between atoms: N_7  and  C_4 
REMARK    3  A    between atoms: C_10  and  C_4 
REMARK    4  A    between atoms: C_8  and  N_7 
ROOT
ATOM      1  C   UNL d   1     -40.281  15.070  19.876  0.00  0.00     0.085 C 
ENDROOT
BRANCH   1   2
ATOM      2  C   UNL d   1     -40.086  14.829  19.109  0.00  0.00     0.037 A 
ATOM      3  C   UNL d   1     -39.546  14.251  18.874  0.00  0.00     0.083 A 
ATOM      4  N   UNL d   1     -39.520  14.187  18.113  0.00  0.00    -0.245 NA
ATOM      5  C   UNL d   1     -39.093  13.800  19.397  0.00  0.00     0.021 C 
ATOM      6  C   UNL d   1     -40.058  14.736  17.772  0.00  0.00     0.081 A 
ATOM      7  C   UNL d   1     -40.414  15.139  18.398  0.00  0.00     0.021 A 
ATOM      8  C   UNL d   1     -40.262  14.913  16.983  0.00  0.00     0.019 A 
ATOM      9  C   UNL d   1     -40.976  15.722  18.238  0.00  0.00     0.002 A 
ATOM     10  C   UNL d   1     -41.185  15.905  17.466  0.00  0.00     0.000 A 
ATOM     11  C   UNL d   1     -40.829  15.502  16.840  0.00  0.00     0.002 A 
ENDBRANCH   1   2
BRANCH   1  12
ATOM     12  N   UNL d   1     -39.972  15.770  20.155  0.00  0.00    -0.227 NA
BRANCH  12  13
ATOM     13  C   UNL d   1     -39.353  15.776  20.677  0.00  0.00     0.162 A 
ATOM     14  N   UNL d   1     -38.580  15.716  20.417  0.00  0.00    -0.225 NA
ATOM     15  C   UNL d   1     -37.940  15.725  20.981  0.00  0.00     0.101 A 
ATOM     16  C   UNL d   1     -38.125  15.793  21.765  0.00  0.00     0.021 A 
ATOM     17  C   UNL d   1     -38.890  15.853  22.031  0.00  0.00     0.005 A 
ATOM     18  C   UNL d   1     -39.513  15.846  21.499  0.00  0.00     0.039 A 
ATOM     19  C   UNL d   1     -39.034  15.922  22.844  0.00  0.00     0.000 C 
ENDBRANCH  12  13
ENDBRANCH   1  12
BRANCH   1  20
ATOM     20  C   UNL d   1     -40.780  14.608  20.350  0.00  0.00     0.021 A 
ATOM     21  C   UNL d   1     -41.454  14.964  20.659  0.00  0.00     0.022 A 
ATOM     22  C   UNL d   1     -41.953  14.503  21.133  0.00  0.00     0.099 A 
ATOM     23  N   UNL d   1     -41.766  13.708  21.282  0.00  0.00    -0.242 NA
ATOM     24  C   UNL d   1     -41.091  13.378  20.964  0.00  0.00     0.099 A 
ATOM     25  C   UNL d   1     -40.593  13.814  20.499  0.00  0.00     0.022 A 
ENDBRANCH   1  20
TORSDOF 4
ENDMDL
MODEL 9
REMARK VINA RESULT:      -4.7      8.120     10.200
REMARK  4 active torsions:
REMARK  status: ('A' for Active; 'I' for Inactive)
REMARK    1  A    between atoms: C_4  and  C_1 
REMARK    2  A    between atoms: N_7  and  C_4 
REMARK    3  A    between atoms: C_10  and  C_4 
REMARK    4  A    between atoms: C_8  and  N_7 
ROOT
ATOM      1  C   UNL d   1     -39.214  14.469  20.048  0.00  0.00     0.085 C 
ENDROOT
BRANCH   1   2
ATOM      2  C   UNL d   1     -38.810  14.700  19.366  0.00  0.00     0.037 A 
ATOM      3  C   UNL d   1     -38.326  15.359  19.253  0.00  0.00     0.083 A 
ATOM      4  N   UNL d   1     -38.049  15.384  18.541  0.00  0.00    -0.245 NA
ATOM      5  C   UNL d   1     -38.163  15.919  19.837  0.00  0.00     0.021 C 
ATOM      6  C   UNL d   1     -38.337  14.721  18.111  0.00  0.00     0.081 A 
ATOM      7  C   UNL d   1     -38.815  14.291  18.628  0.00  0.00     0.021 A 
ATOM      8  C   UNL d   1     -38.223  14.463  17.326  0.00  0.00     0.019 A 
ATOM      9  C   UNL d   1     -39.181  13.601  18.364  0.00  0.00     0.002 A 
ATOM     10  C   UNL d   1     -39.077  13.338  17.594  0.00  0.00     0.000 A 
ATOM     11  C   UNL d   1     -38.600  13.767  17.077  0.00  0.00     0.002 A 
ENDBRANCH   1   2
BRANCH   1  12
ATOM     12  N   UNL d   1     -38.890  13.885  20.514  0.00  0.00    -0.227 NA
BRANCH  12  13
ATOM     13  C   UNL d   1     -38.629  14.044  21.265  0.00  0.00     0.162 A 
ATOM     14  N   UNL d   1     -38.207  14.725  21.430  0.00  0.00    -0.225 NA
ATOM     15  C   UNL d   1     -37.940  14.877  22.226  0.00  0.00     0.101 A 
ATOM     16  C   UNL d   1     -38.117  14.332  22.796  0.00  0.00     0.021 A 
ATOM     17  C   UNL d   1     -38.536  13.654  22.640  0.00  0.00     0.005 A 
ATOM     18  C   UNL d   1     -38.798  13.497  21.880  0.00  0.00     0.039 A 
ATOM     19  C   UNL d   1     -38.695  13.123  23.256  0.00  0.00     0.000 C 
ENDBRANCH  12  13
ENDBRANCH   1  12
BRANCH   1  20
ATOM     20  C   UNL d   1     -39.934  14.825  20.254  0.00  0.00     0.021 A 
ATOM     21  C   UNL d   1     -39.909  15.566  20.609  0.00  0.00     0.022 A 
ATOM     22  C   UNL d   1     -40.630  15.921  20.814  0.00  0.00     0.099 A 
ATOM     23  N   UNL d   1     -41.345  15.530  20.660  0.00  0.00    -0.242 NA
ATOM     24  C   UNL d   1     -41.342  14.795  20.306  0.00  0.00     0.099 A 
ATOM     25  C   UNL d   1     -40.649  14.433  20.099  0.00  0.00     0.022 A 
ENDBRANCH   1  20
TORSDOF 4
ENDMDL
