MODEL 1
REMARK VINA RESULT:      -7.3      0.000      0.000
REMARK  3 active torsions:
REMARK  status: ('A' for Active; 'I' for Inactive)
REMARK    1  A    between atoms: N_4  and  C_2 
REMARK    2  A    between atoms: C_9  and  C_3 
REMARK       I    between atoms: C_7  and  N_4 
REMARK    3  A    between atoms: C_8  and  C_7 
ROOT
ATOM      1  N   UNL d   1     -48.430  13.986  23.297  0.00  0.00    -0.051 NA
ATOM      2  C   UNL d   1     -47.634  13.932  23.107  0.00  0.00     0.760 A 
ATOM      3  C   UNL d   1     -48.729  14.676  22.957  0.00  0.00     0.147 A 
ATOM      4  N   UNL d   1     -47.435  14.588  22.648  0.00  0.00    -0.019 NA
ATOM      5  S   UNL d   1     -48.108  15.050  22.554  0.00  0.00     0.052 SA
ENDROOT
BRANCH   2   6
ATOM      6  N   UNL d   1     -47.056  13.363  23.293  0.00  0.00    -0.018 NA
ATOM      7  C   UNL d   1     -47.095  12.612  22.955  0.00  0.00     0.295 C 
ATOM      8  O   UNL d   1     -47.706  12.426  22.432  0.00  0.00    -0.265 OA
BRANCH   7   9
ATOM      9  C   UNL d   1     -46.523  12.050  23.139  0.00  0.00     0.059 A 
ATOM     10  C   UNL d   1     -46.743  11.351  23.515  0.00  0.00     0.007 A 
ATOM     11  C   UNL d   1     -46.163  10.790  23.698  0.00  0.00     0.030 A 
ATOM     12  C   UNL d   1     -45.372  10.926  23.508  0.00  0.00     0.140 A 
ATOM     13  C   UNL d   1     -45.152  11.624  23.132  0.00  0.00     0.030 A 
ATOM     14  F   UNL d   1     -44.808  10.357  23.696  0.00  0.00    -0.204 F 
ATOM     15  C   UNL d   1     -45.724  12.188  22.947  0.00  0.00     0.007 A 
ENDBRANCH   7   9
ENDBRANCH   2   6
BRANCH   3  16
ATOM     16  C   UNL d   1     -49.502  14.947  23.009  0.00  0.00     0.026 A 
ATOM     17  C   UNL d   1     -50.089  14.626  22.524  0.00  0.00     0.002 A 
ATOM     18  C   UNL d   1     -50.866  14.898  22.576  0.00  0.00     0.000 A 
ATOM     19  C   UNL d   1     -51.056  15.492  23.116  0.00  0.00     0.000 A 
ATOM     20  C   UNL d   1     -50.477  15.815  23.601  0.00  0.00     0.000 A 
ATOM     21  C   UNL d   1     -49.700  15.543  23.549  0.00  0.00     0.002 A 
ENDBRANCH   3  16
TORSDOF 3
ENDMDL
MODEL 2
REMARK VINA RESULT:      -6.9      1.267      1.724
REMARK  3 active torsions:
REMARK  status: ('A' for Active; 'I' for Inactive)
REMARK    1  A    between atoms: N_4  and  C_2 
REMARK    2  A    between atoms: C_9  and  C_3 
REMARK       I    between atoms: C_7  and  N_4 
REMARK    3  A    between atoms: C_8  and  C_7 
ROOT
ATOM      1  N   UNL d   1     -48.531  13.917  22.705  0.00  0.00    -0.051 NA
ATOM      2  C   UNL d   1     -48.147  13.197  22.790  0.00  0.00     0.760 A 
ATOM      3  C   UNL d   1     -49.274  13.855  23.058  0.00  0.00     0.147 A 
ATOM      4  N   UNL d   1     -48.650  12.685  23.197  0.00  0.00    -0.019 NA
ATOM      5  S   UNL d   1     -49.347  13.087  23.364  0.00  0.00     0.052 SA
ENDROOT
BRANCH   2   6
ATOM      6  N   UNL d   1     -47.395  12.937  22.548  0.00  0.00    -0.018 NA
ATOM      7  C   UNL d   1     -46.719  13.292  22.857  0.00  0.00     0.295 C 
ATOM      8  O   UNL d   1     -46.787  13.904  23.406  0.00  0.00    -0.265 OA
BRANCH   7   9
ATOM      9  C   UNL d   1     -45.975  13.034  22.617  0.00  0.00     0.059 A 
ATOM     10  C   UNL d   1     -45.535  13.488  22.087  0.00  0.00     0.007 A 
ATOM     11  C   UNL d   1     -44.789  13.223  21.850  0.00  0.00     0.030 A 
ATOM     12  C   UNL d   1     -44.484  12.513  22.138  0.00  0.00     0.140 A 
ATOM     13  C   UNL d   1     -44.922  12.059  22.667  0.00  0.00     0.030 A 
ATOM     14  F   UNL d   1     -43.739  12.263  21.892  0.00  0.00    -0.204 F 
ATOM     15  C   UNL d   1     -45.667  12.317  22.908  0.00  0.00     0.007 A 
ENDBRANCH   7   9
ENDBRANCH   2   6
BRANCH   3  16
ATOM     16  C   UNL d   1     -49.842  14.446  23.101  0.00  0.00     0.026 A 
ATOM     17  C   UNL d   1     -49.768  15.056  23.653  0.00  0.00     0.002 A 
ATOM     18  C   UNL d   1     -50.338  15.651  23.695  0.00  0.00     0.000 A 
ATOM     19  C   UNL d   1     -50.985  15.634  23.182  0.00  0.00     0.000 A 
ATOM     20  C   UNL d   1     -51.064  15.031  22.632  0.00  0.00     0.000 A 
ATOM     21  C   UNL d   1     -50.494  14.436  22.589  0.00  0.00     0.002 A 
ENDBRANCH   3  16
TORSDOF 3
ENDMDL
MODEL 3
REMARK VINA RESULT:      -5.9      9.128      9.952
REMARK  3 active torsions:
REMARK  status: ('A' for Active; 'I' for Inactive)
REMARK    1  A    between atoms: N_4  and  C_2 
REMARK    2  A    between atoms: C_9  and  C_3 
REMARK       I    between atoms: C_7  and  N_4 
REMARK    3  A    between atoms: C_8  and  C_7 
ROOT
ATOM      1  N   UNL d   1     -39.093  14.556  20.757  0.00  0.00    -0.051 NA
ATOM      2  C   UNL d   1     -38.913  14.411  19.970  0.00  0.00     0.760 A 
ATOM      3  C   UNL d   1     -38.598  14.091  21.224  0.00  0.00     0.147 A 
ATOM      4  N   UNL d   1     -38.304  13.854  19.946  0.00  0.00    -0.019 NA
ATOM      5  S   UNL d   1     -38.107  13.654  20.718  0.00  0.00     0.052 SA
ENDROOT
BRANCH   2   6
ATOM      6  N   UNL d   1     -39.227  14.716  19.262  0.00  0.00    -0.018 NA
ATOM      7  C   UNL d   1     -40.021  14.597  19.081  0.00  0.00     0.295 C 
ATOM      8  O   UNL d   1     -40.505  14.175  19.600  0.00  0.00    -0.265 OA
BRANCH   7   9
ATOM      9  C   UNL d   1     -40.331  14.899  18.381  0.00  0.00     0.059 A 
ATOM     10  C   UNL d   1     -40.734  15.617  18.388  0.00  0.00     0.007 A 
ATOM     11  C   UNL d   1     -41.043  15.916  17.681  0.00  0.00     0.030 A 
ATOM     12  C   UNL d   1     -40.951  15.500  16.974  0.00  0.00     0.140 A 
ATOM     13  C   UNL d   1     -40.549  14.782  16.967  0.00  0.00     0.030 A 
ATOM     14  F   UNL d   1     -41.264  15.810  16.279  0.00  0.00    -0.204 F 
ATOM     15  C   UNL d   1     -40.238  14.479  17.667  0.00  0.00     0.007 A 
ENDBRANCH   7   9
ENDBRANCH   2   6
BRANCH   3  16
ATOM     16  C   UNL d   1     -38.591  14.064  22.045  0.00  0.00     0.026 A 
ATOM     17  C   UNL d   1     -38.757  13.358  22.440  0.00  0.00     0.002 A 
ATOM     18  C   UNL d   1     -38.750  13.330  23.265  0.00  0.00     0.000 A 
ATOM     19  C   UNL d   1     -38.576  14.013  23.694  0.00  0.00     0.000 A 
ATOM     20  C   UNL d   1     -38.409  14.718  23.308  0.00  0.00     0.000 A 
ATOM     21  C   UNL d   1     -38.416  14.745  22.483  0.00  0.00     0.002 A 
ENDBRANCH   3  16
TORSDOF 3
ENDMDL
MODEL 4
REMARK VINA RESULT:      -5.7      9.175     10.248
REMARK  3 active torsions:
REMARK  status: ('A' for Active; 'I' for Inactive)
REMARK    1  A    between atoms: N_4  and  C_2 
REMARK    2  A    between atoms: C_9  and  C_3 
REMARK       I    between atoms: C_7  and  N_4 
REMARK    3  A    between atoms: C_8  and  C_7 
ROOT
ATOM      1  N   UNL d   1     -39.210  14.471  19.877  0.00  0.00    -0.051 NA
ATOM      2  C   UNL d   1     -39.642  14.340  19.192  0.00  0.00     0.760 A 
ATOM      3  C   UNL d   1     -39.728  14.745  20.458  0.00  0.00     0.147 A 
ATOM      4  N   UNL d   1     -40.429  14.532  19.345  0.00  0.00    -0.019 NA
ATOM      5  S   UNL d   1     -40.487  14.782  20.125  0.00  0.00     0.052 SA
ENDROOT
BRANCH   2   6
ATOM      6  N   UNL d   1     -39.418  14.067  18.438  0.00  0.00    -0.018 NA
ATOM      7  C   UNL d   1     -38.829  14.461  18.018  0.00  0.00     0.295 C 
ATOM      8  O   UNL d   1     -38.462  15.124  18.343  0.00  0.00    -0.265 OA
BRANCH   7   9
ATOM      9  C   UNL d   1     -38.608  14.191  17.272  0.00  0.00     0.059 A 
ATOM     10  C   UNL d   1     -38.177  13.492  17.201  0.00  0.00     0.007 A 
ATOM     11  C   UNL d   1     -37.958  13.226  16.449  0.00  0.00     0.030 A 
ATOM     12  C   UNL d   1     -38.167  13.654  15.775  0.00  0.00     0.140 A 
ATOM     13  C   UNL d   1     -38.597  14.352  15.846  0.00  0.00     0.030 A 
ATOM     14  F   UNL d   1     -37.941  13.376  15.034  0.00  0.00    -0.204 F 
ATOM     15  C   UNL d   1     -38.818  14.623  16.592  0.00  0.00     0.007 A 
ENDBRANCH   7   9
ENDBRANCH   2   6
BRANCH   3  16
ATOM     16  C   UNL d   1     -39.529  14.945  21.229  0.00  0.00     0.026 A 
ATOM     17  C   UNL d   1     -39.624  15.721  21.496  0.00  0.00     0.002 A 
ATOM     18  C   UNL d   1     -39.424  15.922  22.271  0.00  0.00     0.000 A 
ATOM     19  C   UNL d   1     -39.129  15.343  22.779  0.00  0.00     0.000 A 
ATOM     20  C   UNL d   1     -39.032  14.571  22.521  0.00  0.00     0.000 A 
ATOM     21  C   UNL d   1     -39.232  14.369  21.746  0.00  0.00     0.002 A 
ENDBRANCH   3  16
TORSDOF 3
ENDMDL
MODEL 5
REMARK VINA RESULT:      -5.6      9.212     10.344
REMARK  3 active torsions:
REMARK  status: ('A' for Active; 'I' for Inactive)
REMARK    1  A    between atoms: N_4  and  C_2 
REMARK    2  A    between atoms: C_9  and  C_3 
REMARK       I    between atoms: C_7  and  N_4 
REMARK    3  A    between atoms: C_8  and  C_7 
ROOT
ATOM      1  N   UNL d   1     -39.053  14.250  18.594  0.00  0.00    -0.051 NA
ATOM      2  C   UNL d   1     -39.663  14.413  19.118  0.00  0.00     0.760 A 
ATOM      3  C   UNL d   1     -39.369  14.219  17.833  0.00  0.00     0.147 A 
ATOM      4  N   UNL d   1     -40.360  14.485  18.683  0.00  0.00    -0.019 NA
ATOM      5  S   UNL d   1     -40.183  14.365  17.890  0.00  0.00     0.052 SA
ENDROOT
BRANCH   2   6
ATOM      6  N   UNL d   1     -39.675  14.508  19.944  0.00  0.00    -0.018 NA
ATOM      7  C   UNL d   1     -39.123  14.999  20.309  0.00  0.00     0.295 C 
ATOM      8  O   UNL d   1     -38.560  15.396  19.856  0.00  0.00    -0.265 OA
BRANCH   7   9
ATOM      9  C   UNL d   1     -39.136  15.092  21.127  0.00  0.00     0.059 A 
ATOM     10  C   UNL d   1     -39.284  15.834  21.452  0.00  0.00     0.007 A 
ATOM     11  C   UNL d   1     -39.295  15.921  22.275  0.00  0.00     0.030 A 
ATOM     12  C   UNL d   1     -39.161  15.273  22.767  0.00  0.00     0.140 A 
ATOM     13  C   UNL d   1     -39.013  14.531  22.443  0.00  0.00     0.030 A 
ATOM     14  F   UNL d   1     -39.175  15.376  23.584  0.00  0.00    -0.204 F 
ATOM     15  C   UNL d   1     -39.000  14.438  21.624  0.00  0.00     0.007 A 
ENDBRANCH   7   9
ENDBRANCH   2   6
BRANCH   3  16
ATOM     16  C   UNL d   1     -38.952  14.070  17.141  0.00  0.00     0.026 A 
ATOM     17  C   UNL d   1     -38.910  14.643  16.548  0.00  0.00     0.002 A 
ATOM     18  C   UNL d   1     -38.492  14.494  15.853  0.00  0.00     0.000 A 
ATOM     19  C   UNL d   1     -38.115  13.767  15.752  0.00  0.00     0.000 A 
ATOM     20  C   UNL d   1     -38.153  13.193  16.337  0.00  0.00     0.000 A 
ATOM     21  C   UNL d   1     -38.571  13.342  17.032  0.00  0.00     0.002 A 
ENDBRANCH   3  16
TORSDOF 3
ENDMDL
MODEL 6
REMARK VINA RESULT:      -4.6      8.973      9.410
REMARK  3 active torsions:
REMARK  status: ('A' for Active; 'I' for Inactive)
REMARK    1  A    between atoms: N_4  and  C_2 
REMARK    2  A    between atoms: C_9  and  C_3 
REMARK       I    between atoms: C_7  and  N_4 
REMARK    3  A    between atoms: C_8  and  C_7 
ROOT
ATOM      1  N   UNL d   1     -40.146  15.777  18.859  0.00  0.00    -0.051 NA
ATOM      2  C   UNL d   1     -39.419  15.663  19.223  0.00  0.00     0.760 A 
ATOM      3  C   UNL d   1     -40.039  15.703  18.044  0.00  0.00     0.147 A 
ATOM      4  N   UNL d   1     -38.859  15.518  18.635  0.00  0.00    -0.019 NA
ATOM      5  S   UNL d   1     -39.238  15.542  17.906  0.00  0.00     0.052 SA
ENDROOT
BRANCH   2   6
ATOM      6  N   UNL d   1     -39.191  15.673  20.023  0.00  0.00    -0.018 NA
ATOM      7  C   UNL d   1     -39.444  15.073  20.528  0.00  0.00     0.295 C 
ATOM      8  O   UNL d   1     -39.921  14.464  20.242  0.00  0.00    -0.265 OA
BRANCH   7   9
ATOM      9  C   UNL d   1     -39.218  15.083  21.320  0.00  0.00     0.059 A 
ATOM     10  C   UNL d   1     -38.872  14.415  21.655  0.00  0.00     0.007 A 
ATOM     11  C   UNL d   1     -38.647  14.431  22.451  0.00  0.00     0.030 A 
ATOM     12  C   UNL d   1     -38.767  15.108  22.907  0.00  0.00     0.140 A 
ATOM     13  C   UNL d   1     -39.113  15.776  22.573  0.00  0.00     0.030 A 
ATOM     14  F   UNL d   1     -38.538  15.108  23.698  0.00  0.00    -0.204 F 
ATOM     15  C   UNL d   1     -39.339  15.766  21.780  0.00  0.00     0.007 A 
ENDBRANCH   7   9
ENDBRANCH   2   6
BRANCH   3  16
ATOM     16  C   UNL d   1     -40.622  15.776  17.471  0.00  0.00     0.026 A 
ATOM     17  C   UNL d   1     -40.421  15.776  16.669  0.00  0.00     0.002 A 
ATOM     18  C   UNL d   1     -41.007  15.849  16.093  0.00  0.00     0.000 A 
ATOM     19  C   UNL d   1     -41.796  15.922  16.321  0.00  0.00     0.000 A 
ATOM     20  C   UNL d   1     -42.003  15.922  17.115  0.00  0.00     0.000 A 
ATOM     21  C   UNL d   1     -41.417  15.849  17.691  0.00  0.00     0.002 A 
ENDBRANCH   3  16
TORSDOF 3
ENDMDL
