MODEL 1
REMARK VINA RESULT:      52.4      0.000      0.000
REMARK  2 active torsions:
REMARK  status: ('A' for Active; 'I' for Inactive)
REMARK    1  A    between atoms: C_9  and  N_1 
REMARK    2  A    between atoms: C_8  and  N_2 
ROOT
ATOM      1  N   UNL d   1      57.713  49.291  51.128  0.00  0.00    -0.208 N 
ATOM      2  N   UNL d   1      58.512  49.440  51.286  0.00  0.00    -0.208 N 
ATOM      3  C   UNL d   1      58.606  49.548  52.099  0.00  0.00     0.284 A 
ATOM      4  C   UNL d   1      57.309  49.307  51.849  0.00  0.00     0.284 A 
ATOM      5  C   UNL d   1      57.860  49.466  52.448  0.00  0.00     0.125 A 
ATOM      6  O   UNL d   1      59.308  49.708  52.489  0.00  0.00    -0.265 OA
ATOM      7  O   UNL d   1      56.493  49.186  51.955  0.00  0.00    -0.265 OA
ENDROOT
BRANCH   1   8
ATOM      8  C   UNL d   1      57.381  49.153  50.390  0.00  0.00     0.085 A 
ATOM      9  C   UNL d   1      56.858  49.707  50.058  0.00  0.00     0.019 A 
ATOM     10  C   UNL d   1      56.523  49.571  49.317  0.00  0.00     0.002 A 
ATOM     11  C   UNL d   1      56.711  48.873  48.899  0.00  0.00     0.000 A 
ATOM     12  C   UNL d   1      57.234  48.321  49.233  0.00  0.00     0.002 A 
ATOM     13  C   UNL d   1      57.567  48.465  49.979  0.00  0.00     0.019 A 
ENDBRANCH   1   8
BRANCH   2  14
ATOM     14  C   UNL d   1      59.111  49.474  50.722  0.00  0.00     0.085 A 
ATOM     15  C   UNL d   1      58.937  49.671  49.940  0.00  0.00     0.019 A 
ATOM     16  C   UNL d   1      59.534  49.705  49.378  0.00  0.00     0.002 A 
ATOM     17  C   UNL d   1      60.320  49.539  49.598  0.00  0.00     0.000 A 
ATOM     18  C   UNL d   1      60.495  49.341  50.380  0.00  0.00     0.002 A 
ATOM     19  C   UNL d   1      59.890  49.310  50.937  0.00  0.00     0.019 A 
ENDBRANCH   2  14
TORSDOF 2
ENDMDL
MODEL 2
REMARK VINA RESULT:      52.9      1.541      2.615
REMARK  2 active torsions:
REMARK  status: ('A' for Active; 'I' for Inactive)
REMARK    1  A    between atoms: C_9  and  N_1 
REMARK    2  A    between atoms: C_8  and  N_2 
ROOT
ATOM      1  N   UNL d   1      59.210  49.562  50.301  0.00  0.00    -0.208 N 
ATOM      2  N   UNL d   1      60.007  49.479  50.510  0.00  0.00    -0.208 N 
ATOM      3  C   UNL d   1      60.461  49.458  49.822  0.00  0.00     0.284 A 
ATOM      4  C   UNL d   1      59.170  49.591  49.476  0.00  0.00     0.284 A 
ATOM      5  C   UNL d   1      59.943  49.527  49.181  0.00  0.00     0.125 A 
ATOM      6  O   UNL d   1      61.275  49.381  49.780  0.00  0.00    -0.265 OA
ATOM      7  O   UNL d   1      58.479  49.671  49.022  0.00  0.00    -0.265 OA
ENDROOT
BRANCH   1   8
ATOM      8  C   UNL d   1      58.573  49.607  50.818  0.00  0.00     0.085 A 
ATOM      9  C   UNL d   1      57.799  49.659  50.521  0.00  0.00     0.019 A 
ATOM     10  C   UNL d   1      57.158  49.704  51.037  0.00  0.00     0.002 A 
ATOM     11  C   UNL d   1      57.288  49.697  51.862  0.00  0.00     0.000 A 
ATOM     12  C   UNL d   1      58.064  49.644  52.156  0.00  0.00     0.002 A 
ATOM     13  C   UNL d   1      58.703  49.599  51.630  0.00  0.00     0.019 A 
ENDBRANCH   1   8
BRANCH   2  14
ATOM     14  C   UNL d   1      60.294  49.428  51.281  0.00  0.00     0.085 A 
ATOM     15  C   UNL d   1      59.827  49.107  51.880  0.00  0.00     0.019 A 
ATOM     16  C   UNL d   1      60.113  49.056  52.647  0.00  0.00     0.002 A 
ATOM     17  C   UNL d   1      60.880  49.330  52.822  0.00  0.00     0.000 A 
ATOM     18  C   UNL d   1      61.348  49.652  52.223  0.00  0.00     0.002 A 
ATOM     19  C   UNL d   1      61.053  49.699  51.457  0.00  0.00     0.019 A 
ENDBRANCH   2  14
TORSDOF 2
ENDMDL
MODEL 3
REMARK VINA RESULT:      55.3      0.620      2.556
REMARK  2 active torsions:
REMARK  status: ('A' for Active; 'I' for Inactive)
REMARK    1  A    between atoms: C_9  and  N_1 
REMARK    2  A    between atoms: C_8  and  N_2 
ROOT
ATOM      1  N   UNL d   1      58.494  49.441  51.380  0.00  0.00    -0.208 N 
ATOM      2  N   UNL d   1      57.703  49.550  51.162  0.00  0.00    -0.208 N 
ATOM      3  C   UNL d   1      57.243  49.600  51.844  0.00  0.00     0.284 A 
ATOM      4  C   UNL d   1      58.524  49.424  52.207  0.00  0.00     0.284 A 
ATOM      5  C   UNL d   1      57.752  49.522  52.492  0.00  0.00     0.125 A 
ATOM      6  O   UNL d   1      56.432  49.707  51.877  0.00  0.00    -0.265 OA
ATOM      7  O   UNL d   1      59.208  49.326  52.669  0.00  0.00    -0.265 OA
ENDROOT
BRANCH   1   8
ATOM      8  C   UNL d   1      59.133  49.364  50.870  0.00  0.00     0.085 A 
ATOM      9  C   UNL d   1      59.051  48.939  50.160  0.00  0.00     0.019 A 
ATOM     10  C   UNL d   1      59.690  48.860  49.647  0.00  0.00     0.002 A 
ATOM     11  C   UNL d   1      60.424  49.208  49.841  0.00  0.00     0.000 A 
ATOM     12  C   UNL d   1      60.503  49.632  50.552  0.00  0.00     0.002 A 
ATOM     13  C   UNL d   1      59.855  49.707  51.063  0.00  0.00     0.019 A 
ENDBRANCH   1   8
BRANCH   2  14
ATOM     14  C   UNL d   1      57.425  49.598  50.387  0.00  0.00     0.085 A 
ATOM     15  C   UNL d   1      56.614  49.602  50.235  0.00  0.00     0.019 A 
ATOM     16  C   UNL d   1      56.338  49.651  49.464  0.00  0.00     0.002 A 
ATOM     17  C   UNL d   1      56.879  49.697  48.831  0.00  0.00     0.000 A 
ATOM     18  C   UNL d   1      57.690  49.693  48.984  0.00  0.00     0.002 A 
ATOM     19  C   UNL d   1      57.959  49.644  49.760  0.00  0.00     0.019 A 
ENDBRANCH   2  14
TORSDOF 2
ENDMDL
