MODEL 1
REMARK VINA RESULT:      15.1      0.000      0.000
REMARK  4 active torsions:
REMARK  status: ('A' for Active; 'I' for Inactive)
REMARK    1  A    between atoms: C_7  and  N_1 
REMARK    2  A    between atoms: C_9  and  C_7 
REMARK       I    between atoms: N_16  and  C_9 
REMARK    3  A    between atoms: C_21  and  N_16 
REMARK    4  A    between atoms: C_20  and  C_21 
ROOT
ATOM      1  C   UNL d   1      45.495 -17.848  43.990  0.00  0.00     0.146 C 
ENDROOT
BRANCH   1   2
ATOM      2  N   UNL d   1      45.795 -18.362  43.428  0.00  0.00    -0.269 N 
ATOM      3  C   UNL d   1      45.784 -18.120  42.645  0.00  0.00     0.265 A 
ATOM      4  C   UNL d   1      46.073 -18.576  41.971  0.00  0.00     0.068 A 
ATOM      5  O   UNL d   1      45.463 -17.361  42.491  0.00  0.00    -0.267 OA
ATOM      6  C   UNL d   1      46.420 -19.354  41.976  0.00  0.00     0.034 A 
ATOM      7  C   UNL d   1      46.646 -19.658  41.257  0.00  0.00     0.007 C 
ATOM      8  S   UNL d   1      46.552 -19.829  42.632  0.00  0.00    -0.085 SA
ATOM      9  C   UNL d   1      46.394 -19.662  43.293  0.00  0.00     0.046 A 
ATOM     10  C   UNL d   1      46.048 -18.996  43.676  0.00  0.00     0.073 A 
ATOM     11  C   UNL d   1      46.633 -20.322  43.753  0.00  0.00     0.008 A 
ATOM     12  C   UNL d   1      45.943 -18.990  44.501  0.00  0.00     0.018 A 
ATOM     13  C   UNL d   1      46.180 -19.646  44.954  0.00  0.00     0.002 A 
ATOM     14  C   UNL d   1      46.527 -20.315  44.578  0.00  0.00     0.001 A 
ENDBRANCH   1   2
BRANCH   1  15
ATOM     15  C   UNL d   1      45.915 -17.166  44.175  0.00  0.00     0.297 C 
ATOM     16  N   UNL d   1      45.616 -16.614  44.694  0.00  0.00    -0.205 NA
ATOM     17  O   UNL d   1      46.646 -17.040  43.828  0.00  0.00    -0.264 OA
BRANCH  16  18
ATOM     18  C   UNL d   1      46.034 -15.943  44.872  0.00  0.00     0.102 C 
BRANCH  18  19
ATOM     19  C   UNL d   1      45.686 -15.208  44.794  0.00  0.00     0.021 A 
ATOM     20  C   UNL d   1      46.160 -14.547  44.670  0.00  0.00     0.028 A 
ATOM     21  C   UNL d   1      45.804 -13.801  44.591  0.00  0.00     0.119 A 
ATOM     22  O   UNL d   1      46.107 -13.065  44.468  0.00  0.00    -0.300 OA
ATOM     23  C   UNL d   1      44.992 -13.737  44.638  0.00  0.00     0.119 A 
ATOM     24  C   UNL d   1      45.489 -12.534  44.437  0.00  0.00     0.304 A 
ATOM     25  O   UNL d   1      44.795 -12.946  44.542  0.00  0.00    -0.300 OA
ATOM     26  C   UNL d   1      44.530 -14.409  44.764  0.00  0.00     0.026 A 
ATOM     27  C   UNL d   1      44.887 -15.141  44.840  0.00  0.00     0.004 A 
ENDBRANCH  18  19
ENDBRANCH  16  18
ENDBRANCH   1  15
TORSDOF 4
ENDMDL
