MODEL 1
REMARK VINA RESULT:      27.2      0.000      0.000
REMARK  6 active torsions:
REMARK  status: ('A' for Active; 'I' for Inactive)
REMARK    1  A    between atoms: C_8  and  C_3 
REMARK    2  A    between atoms: C_6  and  O_10 
REMARK    3  A    between atoms: S_9  and  C_8 
REMARK    4  A    between atoms: C_16  and  S_9 
REMARK    5  A    between atoms: O_10  and  C_17 
REMARK    6  A    between atoms: C_17  and  C_16 
ROOT
ATOM      1  S   UNL d   1      15.143  12.943  -0.019  0.00  0.00    -0.081 SA
ENDROOT
BRANCH   1   2
ATOM      2  C   UNL d   1      15.091  12.311  -0.542  0.00  0.00     0.074 C 
BRANCH   2   3
ATOM      3  C   UNL d   1      14.408  12.205  -0.989  0.00  0.00     0.169 A 
ATOM      4  N   UNL d   1      13.583  12.136  -1.114  0.00  0.00    -0.225 NA
ATOM      5  C   UNL d   1      13.456  12.010  -1.933  0.00  0.00     0.101 A 
ATOM      6  C   UNL d   1      14.202  12.001  -2.302  0.00  0.00     0.101 A 
ATOM      7  C   UNL d   1      12.774  11.901  -2.395  0.00  0.00     0.021 A 
ATOM      8  N   UNL d   1      14.795  12.121  -1.727  0.00  0.00    -0.225 NA
ATOM      9  C   UNL d   1      14.253  11.884  -3.127  0.00  0.00     0.021 A 
ATOM     10  C   UNL d   1      13.574  11.779  -3.567  0.00  0.00     0.002 A 
ATOM     11  C   UNL d   1      12.835  11.788  -3.201  0.00  0.00     0.002 A 
ENDBRANCH   2   3
ENDBRANCH   1   2
BRANCH   1  12
ATOM     12  C   UNL d   1      15.626  13.586  -0.198  0.00  0.00     0.062 C 
BRANCH  12  13
ATOM     13  C   UNL d   1      15.372  14.351  -0.028  0.00  0.00     0.130 C 
BRANCH  13  14
ATOM     14  O   UNL d   1      14.621  14.592  -0.271  0.00  0.00    -0.305 OA
BRANCH  14  15
ATOM     15  C   UNL d   1      14.947  15.305  -0.528  0.00  0.00     0.100 A 
ATOM     16  C   UNL d   1      14.815  15.565  -1.290  0.00  0.00     0.023 A 
ATOM     17  C   UNL d   1      14.350  15.110  -1.806  0.00  0.00     0.002 C 
ATOM     18  C   UNL d   1      15.139  16.278  -1.550  0.00  0.00     0.002 A 
ATOM     19  C   UNL d   1      15.598  16.727  -1.040  0.00  0.00     0.000 A 
ATOM     20  C   UNL d   1      15.732  16.462  -0.267  0.00  0.00     0.002 A 
ATOM     21  C   UNL d   1      15.403  15.748  -0.015  0.00  0.00     0.025 A 
ENDBRANCH  14  15
ENDBRANCH  13  14
ENDBRANCH  12  13
ENDBRANCH   1  12
TORSDOF 6
ENDMDL
