MODEL 1
REMARK VINA RESULT:      68.2      0.000      0.000
REMARK  5 active torsions:
REMARK  status: ('A' for Active; 'I' for Inactive)
REMARK    1  A    between atoms: C_10  and  N_6 
REMARK    2  A    between atoms: S_13  and  C_9 
REMARK    3  A    between atoms: C_14  and  C_10 
REMARK    4  A    between atoms: C_22  and  S_13 
REMARK    5  A    between atoms: C_24  and  C_22 
ROOT
ATOM      1  C   UNL d   1      58.284  49.543  51.197  0.00  0.00     0.174 A 
ATOM      2  C   UNL d   1      58.814  49.477  50.569  0.00  0.00     0.158 A 
ATOM      3  N   UNL d   1      58.708  49.517  51.892  0.00  0.00    -0.203 NA
ATOM      4  N   UNL d   1      57.480  49.619  51.041  0.00  0.00    -0.240 N 
ATOM      5  N   UNL d   1      57.713  49.564  49.631  0.00  0.00    -0.223 N 
ATOM      6  N   UNL d   1      59.652  49.401  50.864  0.00  0.00    -0.279 N 
ATOM      7  C   UNL d   1      57.183  49.630  50.258  0.00  0.00     0.343 A 
ATOM      8  C   UNL d   1      58.540  49.487  49.786  0.00  0.00     0.287 A 
ATOM      9  C   UNL d   1      59.510  49.433  51.676  0.00  0.00     0.181 A 
ATOM     10  O   UNL d   1      56.371  49.707  50.094  0.00  0.00    -0.245 OA
ATOM     11  O   UNL d   1      59.071  49.420  49.158  0.00  0.00    -0.265 OA
ATOM     12  C   UNL d   1      56.950  49.684  51.668  0.00  0.00     0.105 C 
ATOM     13  C   UNL d   1      57.440  49.574  48.847  0.00  0.00     0.107 C 
ENDROOT
BRANCH   6  14
ATOM     14  C   UNL d   1      60.355  49.323  50.445  0.00  0.00     0.082 C 
BRANCH  14  15
ATOM     15  C   UNL d   1      60.728  48.588  50.413  0.00  0.00     0.018 A 
ATOM     16  C   UNL d   1      61.370  48.474  49.913  0.00  0.00     0.002 A 
ATOM     17  C   UNL d   1      61.748  47.743  49.876  0.00  0.00     0.000 A 
ATOM     18  C   UNL d   1      62.387  47.693  49.354  0.00  0.00     0.000 C 
ATOM     19  C   UNL d   1      61.475  47.116  50.351  0.00  0.00     0.000 A 
ATOM     20  C   UNL d   1      60.828  47.233  50.853  0.00  0.00     0.000 A 
ATOM     21  C   UNL d   1      60.456  47.965  50.884  0.00  0.00     0.002 A 
ENDBRANCH  14  15
ENDBRANCH   6  14
BRANCH   9  22
ATOM     22  S   UNL d   1      60.137  49.383  52.210  0.00  0.00    -0.046 SA
BRANCH  22  23
ATOM     23  C   UNL d   1      60.818  49.704  52.538  0.00  0.00     0.084 C 
BRANCH  23  24
ATOM     24  C   UNL d   1      61.014  49.538  53.320  0.00  0.00     0.241 C 
ATOM     25  O   UNL d   1      60.451  49.634  53.912  0.00  0.00    -0.283 OA
ENDBRANCH  23  24
ENDBRANCH  22  23
ENDBRANCH   9  22
TORSDOF 5
ENDMDL
