MODEL 1
REMARK VINA RESULT:      -4.3      0.000      0.000
REMARK  4 active torsions:
REMARK  status: ('A' for Active; 'I' for Inactive)
REMARK    1  A    between atoms: C_2  and  C_3 
REMARK    2  A    between atoms: N_4  and  C_2 
REMARK    3  A    between atoms: C_12  and  N_4 
REMARK    4  A    between atoms: N_8  and  C_7 
ROOT
ATOM      1  C   UNL d   1      57.616   0.461  31.845  0.00  0.00     0.153 C 
ATOM      2  S   UNL d   1      58.411   0.682  31.853  0.00  0.00    -0.056 SA
ENDROOT
BRANCH   1   3
ATOM      3  C   UNL d   1      57.171   0.516  32.536  0.00  0.00     0.109 A 
ATOM      4  N   UNL d   1      56.345   0.495  32.500  0.00  0.00    -0.243 NA
ATOM      5  C   UNL d   1      55.901   0.550  33.190  0.00  0.00     0.081 A 
ATOM      6  C   UNL d   1      56.279   0.626  33.919  0.00  0.00     0.018 A 
ATOM      7  C   UNL d   1      55.072   0.530  33.156  0.00  0.00     0.019 A 
ATOM      8  C   UNL d   1      57.103   0.647  33.962  0.00  0.00     0.003 A 
ATOM      9  C   UNL d   1      55.827   0.682  34.615  0.00  0.00     0.002 A 
ATOM     10  C   UNL d   1      57.551   0.592  33.270  0.00  0.00     0.021 A 
ATOM     11  C   UNL d   1      55.005   0.661  34.575  0.00  0.00     0.000 A 
ATOM     12  C   UNL d   1      54.628   0.585  33.846  0.00  0.00     0.002 A 
ENDBRANCH   1   3
BRANCH   1  13
ATOM     13  N   UNL d   1      57.268   0.186  31.150  0.00  0.00    -0.233 NA
BRANCH  13  14
ATOM     14  C   UNL d   1      57.732  -0.160  30.568  0.00  0.00     0.083 A 
ATOM     15  C   UNL d   1      58.105   0.319  30.005  0.00  0.00     0.021 A 
ATOM     16  C   UNL d   1      58.570  -0.030  29.423  0.00  0.00     0.019 A 
ATOM     17  C   UNL d   1      58.664  -0.859  29.404  0.00  0.00     0.064 A 
ATOM     18  C   UNL d   1      58.291  -1.328  29.967  0.00  0.00     0.019 A 
ATOM     19  C   UNL d   1      57.825  -0.980  30.549  0.00  0.00     0.021 A 
BRANCH  17  20
ATOM     20  N   UNL d   1      59.136  -1.206  28.811  0.00  0.00    -0.301 N 
ATOM     21  C   UNL d   1      59.833  -0.843  28.586  0.00  0.00     0.100 C 
ATOM     22  C   UNL d   1      58.904  -1.908  28.457  0.00  0.00     0.100 C 
ENDBRANCH  17  20
ENDBRANCH  13  14
ENDBRANCH   1  13
TORSDOF 4
ENDMDL
MODEL 2
REMARK VINA RESULT:      -3.5      1.196      1.744
REMARK  4 active torsions:
REMARK  status: ('A' for Active; 'I' for Inactive)
REMARK    1  A    between atoms: C_2  and  C_3 
REMARK    2  A    between atoms: N_4  and  C_2 
REMARK    3  A    between atoms: C_12  and  N_4 
REMARK    4  A    between atoms: N_8  and  C_7 
ROOT
ATOM      1  C   UNL d   1      58.196  -0.204  30.893  0.00  0.00     0.153 C 
ATOM      2  S   UNL d   1      58.968  -0.024  31.119  0.00  0.00    -0.056 SA
ENDROOT
BRANCH   1   3
ATOM      3  C   UNL d   1      57.584  -0.134  31.440  0.00  0.00     0.109 A 
ATOM      4  N   UNL d   1      57.193  -0.810  31.713  0.00  0.00    -0.243 NA
ATOM      5  C   UNL d   1      56.582  -0.740  32.260  0.00  0.00     0.081 A 
ATOM      6  C   UNL d   1      56.358   0.004  32.536  0.00  0.00     0.018 A 
ATOM      7  C   UNL d   1      56.188  -1.418  32.535  0.00  0.00     0.019 A 
ATOM      8  C   UNL d   1      56.745   0.682  32.268  0.00  0.00     0.003 A 
ATOM      9  C   UNL d   1      55.741   0.071  33.088  0.00  0.00     0.002 A 
ATOM     10  C   UNL d   1      57.359   0.614  31.719  0.00  0.00     0.021 A 
ATOM     11  C   UNL d   1      55.354  -0.604  33.358  0.00  0.00     0.000 A 
ATOM     12  C   UNL d   1      55.577  -1.348  33.081  0.00  0.00     0.002 A 
ENDBRANCH   1   3
BRANCH   1  13
ATOM     13  N   UNL d   1      58.034  -0.452  30.123  0.00  0.00    -0.233 NA
BRANCH  13  14
ATOM     14  C   UNL d   1      58.515  -1.013  29.765  0.00  0.00     0.083 A 
ATOM     15  C   UNL d   1      58.204  -1.759  29.582  0.00  0.00     0.021 A 
ATOM     16  C   UNL d   1      58.687  -2.320  29.223  0.00  0.00     0.019 A 
ATOM     17  C   UNL d   1      59.482  -2.136  29.048  0.00  0.00     0.064 A 
ATOM     18  C   UNL d   1      59.784  -1.394  29.233  0.00  0.00     0.019 A 
ATOM     19  C   UNL d   1      59.300  -0.832  29.592  0.00  0.00     0.021 A 
BRANCH  17  20
ATOM     20  N   UNL d   1      59.966  -2.709  28.684  0.00  0.00    -0.301 N 
ATOM     21  C   UNL d   1      60.726  -2.510  28.457  0.00  0.00     0.100 C 
ATOM     22  C   UNL d   1      59.683  -3.467  28.556  0.00  0.00     0.100 C 
ENDBRANCH  17  20
ENDBRANCH  13  14
ENDBRANCH   1  13
TORSDOF 4
ENDMDL
