MODEL 1
REMARK VINA RESULT:      -6.6      0.000      0.000
REMARK  5 active torsions:
REMARK  status: ('A' for Active; 'I' for Inactive)
REMARK    1  A    between atoms: N_10  and  C_3 
REMARK    2  A    between atoms: C_11  and  C_5 
REMARK    3  A    between atoms: C_15  and  C_9 
REMARK    4  A    between atoms: C_16  and  N_10 
REMARK       I    between atoms: C_12  and  N_13 
REMARK    5  A    between atoms: N_13  and  C_17 
ROOT
ATOM      1  C   UNL d   1     -48.775  13.680  22.868  0.00  0.00     0.168 A 
ATOM      2  N   UNL d   1     -48.034  13.343  22.940  0.00  0.00    -0.184 N 
ATOM      3  C   UNL d   1     -47.973  12.546  23.023  0.00  0.00     0.218 A 
ATOM      4  N   UNL d   1     -47.448  14.612  22.846  0.00  0.00    -0.162 NA
ATOM      5  C   UNL d   1     -48.845  14.468  22.786  0.00  0.00     0.055 A 
ATOM      6  N   UNL d   1     -49.427  13.207  22.880  0.00  0.00    -0.227 NA
ATOM      7  C   UNL d   1     -48.651  12.067  23.034  0.00  0.00     0.071 A 
ATOM      8  C   UNL d   1     -48.189  14.949  22.773  0.00  0.00     0.104 A 
ATOM      9  C   UNL d   1     -49.358  12.415  22.962  0.00  0.00     0.087 A 
ATOM     10  C   UNL d   1     -48.261  15.732  22.692  0.00  0.00     0.023 C 
ENDROOT
BRANCH   3  11
ATOM     11  N   UNL d   1     -47.213  12.197  23.098  0.00  0.00    -0.383 NA
BRANCH  11  12
ATOM     12  C   UNL d   1     -46.514  11.769  23.215  0.00  0.00     0.134 A 
ATOM     13  C   UNL d   1     -45.787  12.078  22.986  0.00  0.00     0.034 A 
ATOM     14  C   UNL d   1     -45.077  11.633  23.110  0.00  0.00     0.022 A 
ATOM     15  C   UNL d   1     -45.112  10.882  23.463  0.00  0.00     0.085 A 
ATOM     16  C   UNL d   1     -45.848  10.563  23.698  0.00  0.00     0.022 A 
ATOM     17  C   UNL d   1     -46.560  11.001  23.577  0.00  0.00     0.034 A 
BRANCH  15  18
ATOM     18  N   UNL d   1     -44.415  10.440  23.587  0.00  0.00    -0.208 NA
ATOM     19  C   UNL d   1     -43.700  10.691  23.260  0.00  0.00     0.279 C 
ATOM     20  O   UNL d   1     -43.006  10.251  23.384  0.00  0.00    -0.265 OA
ATOM     21  C   UNL d   1     -43.670  11.389  22.803  0.00  0.00     0.068 C 
ENDBRANCH  15  18
ENDBRANCH  11  12
ENDBRANCH   3  11
BRANCH   9  22
ATOM     22  C   UNL d   1     -50.049  11.922  22.974  0.00  0.00     0.018 C 
ATOM     23  C   UNL d   1     -50.318  11.566  22.249  0.00  0.00     0.002 C 
ATOM     24  C   UNL d   1     -50.463  11.788  23.698  0.00  0.00     0.002 C 
ENDBRANCH   9  22
BRANCH   5  25
ATOM     25  C   UNL d   1     -49.594  14.808  22.712  0.00  0.00     0.004 A 
ATOM     26  C   UNL d   1     -49.928  14.887  21.985  0.00  0.00     0.000 A 
ATOM     27  C   UNL d   1     -50.665  15.222  21.912  0.00  0.00     0.000 A 
ATOM     28  C   UNL d   1     -51.053  15.471  22.569  0.00  0.00     0.000 A 
ATOM     29  C   UNL d   1     -50.712  15.389  23.302  0.00  0.00     0.000 A 
ATOM     30  C   UNL d   1     -49.986  15.058  23.365  0.00  0.00     0.000 A 
ENDBRANCH   5  25
TORSDOF 5
ENDMDL
MODEL 2
REMARK VINA RESULT:      -5.1      5.380      8.674
REMARK  5 active torsions:
REMARK  status: ('A' for Active; 'I' for Inactive)
REMARK    1  A    between atoms: N_10  and  C_3 
REMARK    2  A    between atoms: C_11  and  C_5 
REMARK    3  A    between atoms: C_15  and  C_9 
REMARK    4  A    between atoms: C_16  and  N_10 
REMARK       I    between atoms: C_12  and  N_13 
REMARK    5  A    between atoms: N_13  and  C_17 
ROOT
ATOM      1  C   UNL d   1     -40.278  14.354  19.709  0.00  0.00     0.168 A 
ATOM      2  N   UNL d   1     -40.995  14.013  19.904  0.00  0.00    -0.184 N 
ATOM      3  C   UNL d   1     -41.191  13.930  20.679  0.00  0.00     0.218 A 
ATOM      4  N   UNL d   1     -41.288  13.854  18.543  0.00  0.00    -0.162 NA
ATOM      5  C   UNL d   1     -40.075  14.441  18.945  0.00  0.00     0.055 A 
ATOM      6  N   UNL d   1     -39.784  14.600  20.297  0.00  0.00    -0.227 NA
ATOM      7  C   UNL d   1     -40.674  14.186  21.278  0.00  0.00     0.071 A 
ATOM      8  C   UNL d   1     -40.572  14.195  18.349  0.00  0.00     0.104 A 
ATOM      9  C   UNL d   1     -39.986  14.513  21.065  0.00  0.00     0.087 A 
ATOM     10  C   UNL d   1     -40.368  14.282  17.589  0.00  0.00     0.023 C 
ENDROOT
BRANCH   3  11
ATOM     11  N   UNL d   1     -41.926  13.581  20.882  0.00  0.00    -0.383 NA
BRANCH  11  12
ATOM     12  C   UNL d   1     -42.626  13.258  21.184  0.00  0.00     0.134 A 
ATOM     13  C   UNL d   1     -43.355  13.607  21.025  0.00  0.00     0.034 A 
ATOM     14  C   UNL d   1     -44.066  13.270  21.338  0.00  0.00     0.022 A 
ATOM     15  C   UNL d   1     -44.031  12.585  21.807  0.00  0.00     0.085 A 
ATOM     16  C   UNL d   1     -43.294  12.227  21.972  0.00  0.00     0.022 A 
ATOM     17  C   UNL d   1     -42.581  12.557  21.664  0.00  0.00     0.034 A 
BRANCH  15  18
ATOM     18  N   UNL d   1     -44.730  12.250  22.118  0.00  0.00    -0.208 NA
ATOM     19  C   UNL d   1     -45.316  12.734  22.440  0.00  0.00     0.279 C 
ATOM     20  O   UNL d   1     -46.011  12.400  22.749  0.00  0.00    -0.265 OA
ATOM     21  C   UNL d   1     -45.213  13.562  22.458  0.00  0.00     0.068 C 
ENDBRANCH  15  18
ENDBRANCH  11  12
ENDBRANCH   3  11
BRANCH   9  22
ATOM     22  C   UNL d   1     -39.462  14.773  21.680  0.00  0.00     0.018 C 
ATOM     23  C   UNL d   1     -38.814  14.273  21.913  0.00  0.00     0.002 C 
ATOM     24  C   UNL d   1     -39.583  15.521  22.054  0.00  0.00     0.002 C 
ENDBRANCH   9  22
BRANCH   5  25
ATOM     25  C   UNL d   1     -39.351  14.785  18.748  0.00  0.00     0.004 A 
ATOM     26  C   UNL d   1     -39.300  15.583  18.653  0.00  0.00     0.000 A 
ATOM     27  C   UNL d   1     -38.587  15.922  18.460  0.00  0.00     0.000 A 
ATOM     28  C   UNL d   1     -37.940  15.457  18.365  0.00  0.00     0.000 A 
ATOM     29  C   UNL d   1     -37.996  14.653  18.463  0.00  0.00     0.000 A 
ATOM     30  C   UNL d   1     -38.702  14.326  18.653  0.00  0.00     0.000 A 
ENDBRANCH   5  25
TORSDOF 5
ENDMDL
MODEL 3
REMARK VINA RESULT:      -4.8      0.884      2.186
REMARK  5 active torsions:
REMARK  status: ('A' for Active; 'I' for Inactive)
REMARK    1  A    between atoms: N_10  and  C_3 
REMARK    2  A    between atoms: C_11  and  C_5 
REMARK    3  A    between atoms: C_15  and  C_9 
REMARK    4  A    between atoms: C_16  and  N_10 
REMARK       I    between atoms: C_12  and  N_13 
REMARK    5  A    between atoms: N_13  and  C_17 
ROOT
ATOM      1  C   UNL d   1     -48.658  13.095  23.085  0.00  0.00     0.168 A 
ATOM      2  N   UNL d   1     -48.112  12.514  23.263  0.00  0.00    -0.184 N 
ATOM      3  C   UNL d   1     -47.330  12.669  23.160  0.00  0.00     0.218 A 
ATOM      4  N   UNL d   1     -49.149  11.652  23.641  0.00  0.00    -0.162 NA
ATOM      5  C   UNL d   1     -49.435  12.951  23.184  0.00  0.00     0.055 A 
ATOM      6  N   UNL d   1     -48.403  13.808  22.809  0.00  0.00    -0.227 NA
ATOM      7  C   UNL d   1     -47.076  13.407  22.875  0.00  0.00     0.071 A 
ATOM      8  C   UNL d   1     -49.696  12.232  23.462  0.00  0.00     0.104 A 
ATOM      9  C   UNL d   1     -47.624  13.954  22.709  0.00  0.00     0.087 A 
ATOM     10  C   UNL d   1     -50.469  12.092  23.560  0.00  0.00     0.023 C 
ENDROOT
BRANCH   3  11
ATOM     11  N   UNL d   1     -46.765  12.075  23.342  0.00  0.00    -0.383 NA
BRANCH  11  12
ATOM     12  C   UNL d   1     -46.159  11.518  23.432  0.00  0.00     0.134 A 
ATOM     13  C   UNL d   1     -46.332  10.729  23.591  0.00  0.00     0.034 A 
ATOM     14  C   UNL d   1     -45.705  10.166  23.681  0.00  0.00     0.022 A 
ATOM     15  C   UNL d   1     -44.914  10.408  23.610  0.00  0.00     0.085 A 
ATOM     16  C   UNL d   1     -44.733  11.208  23.448  0.00  0.00     0.022 A 
ATOM     17  C   UNL d   1     -45.352  11.775  23.357  0.00  0.00     0.034 A 
BRANCH  15  18
ATOM     18  N   UNL d   1     -44.294   9.857  23.698  0.00  0.00    -0.208 NA
ATOM     19  C   UNL d   1     -43.570   9.980  23.322  0.00  0.00     0.279 C 
ATOM     20  O   UNL d   1     -42.953   9.430  23.410  0.00  0.00    -0.265 OA
ATOM     21  C   UNL d   1     -43.453  10.658  22.850  0.00  0.00     0.068 C 
ENDBRANCH  15  18
ENDBRANCH  11  12
ENDBRANCH   3  11
BRANCH   9  22
ATOM     22  C   UNL d   1     -47.361  14.706  22.419  0.00  0.00     0.018 C 
ATOM     23  C   UNL d   1     -47.504  14.912  21.605  0.00  0.00     0.002 C 
ATOM     24  C   UNL d   1     -46.962  15.245  22.933  0.00  0.00     0.002 C 
ENDBRANCH   9  22
BRANCH   5  25
ATOM     25  C   UNL d   1     -49.987  13.538  23.004  0.00  0.00     0.004 A 
ATOM     26  C   UNL d   1     -50.185  14.086  23.559  0.00  0.00     0.000 A 
ATOM     27  C   UNL d   1     -50.729  14.663  23.381  0.00  0.00     0.000 A 
ATOM     28  C   UNL d   1     -51.064  14.680  22.652  0.00  0.00     0.000 A 
ATOM     29  C   UNL d   1     -50.862  14.125  22.095  0.00  0.00     0.000 A 
ATOM     30  C   UNL d   1     -50.325  13.559  22.277  0.00  0.00     0.000 A 
ENDBRANCH   5  25
TORSDOF 5
ENDMDL
