MODEL 1
REMARK VINA RESULT:       8.1      0.000      0.000
REMARK  2 active torsions:
REMARK  status: ('A' for Active; 'I' for Inactive)
REMARK    1  A    between atoms: C_7  and  C_1 
REMARK    2  A    between atoms: C_8  and  C_7 
ROOT
ATOM      1  C   UNL d   1      46.248 -18.913  41.983  0.00  0.00     0.033 A 
ATOM      2  C   UNL d   1      46.537 -19.931  42.788  0.00  0.00     0.100 A 
ATOM      3  C   UNL d   1      46.307 -19.141  42.773  0.00  0.00     0.025 A 
ATOM      4  O   UNL d   1      46.619 -20.191  42.009  0.00  0.00    -0.305 OA
ATOM      5  C   UNL d   1      46.439 -19.558  41.514  0.00  0.00     0.123 A 
ATOM      6  C   UNL d   1      46.184 -18.740  43.476  0.00  0.00     0.002 A 
ATOM      7  C   UNL d   1      46.646 -20.328  43.509  0.00  0.00     0.025 A 
ATOM      8  C   UNL d   1      46.290 -19.125  44.200  0.00  0.00     0.000 A 
ATOM      9  C   UNL d   1      46.521 -19.921  44.216  0.00  0.00     0.002 A 
ATOM     10  C   UNL d   1      45.952 -17.942  43.462  0.00  0.00     0.000 C 
ATOM     11  C   UNL d   1      46.627 -20.305  44.940  0.00  0.00     0.000 C 
ENDROOT
BRANCH   1  12
ATOM     12  C   UNL d   1      46.032 -18.164  41.717  0.00  0.00     0.072 C 
BRANCH  12  13
ATOM     13  C   UNL d   1      45.968 -18.016  40.905  0.00  0.00     0.211 C 
ATOM     14  O   UNL d   1      45.238 -18.117  40.521  0.00  0.00    -0.644 OA
ATOM     15  O   UNL d   1      46.628 -17.767  40.478  0.00  0.00    -0.644 OA
ENDBRANCH  12  13
ENDBRANCH   1  12
TORSDOF 2
ENDMDL
MODEL 2
REMARK VINA RESULT:       9.7      6.920      7.435
REMARK  2 active torsions:
REMARK  status: ('A' for Active; 'I' for Inactive)
REMARK    1  A    between atoms: C_7  and  C_1 
REMARK    2  A    between atoms: C_8  and  C_7 
ROOT
ATOM      1  C   UNL d   1      44.990 -15.364  36.887  0.00  0.00     0.033 A 
ATOM      2  C   UNL d   1      44.002 -16.152  36.476  0.00  0.00     0.100 A 
ATOM      3  C   UNL d   1      44.170 -15.424  36.820  0.00  0.00     0.025 A 
ATOM      4  O   UNL d   1      44.715 -16.541  36.330  0.00  0.00    -0.305 OA
ATOM      5  C   UNL d   1      45.324 -16.049  36.586  0.00  0.00     0.123 A 
ATOM      6  C   UNL d   1      43.560 -14.919  37.025  0.00  0.00     0.002 A 
ATOM      7  C   UNL d   1      43.216 -16.382  36.333  0.00  0.00     0.025 A 
ATOM      8  C   UNL d   1      42.774 -15.137  36.888  0.00  0.00     0.000 A 
ATOM      9  C   UNL d   1      42.602 -15.871  36.541  0.00  0.00     0.002 A 
ATOM     10  C   UNL d   1      43.730 -14.183  37.373  0.00  0.00     0.000 C 
ATOM     11  C   UNL d   1      41.817 -16.089  36.404  0.00  0.00     0.000 C 
ENDROOT
BRANCH   1  12
ATOM     12  C   UNL d   1      45.398 -14.721  37.203  0.00  0.00     0.072 C 
BRANCH  12  13
ATOM     13  C   UNL d   1      46.226 -14.712  37.197  0.00  0.00     0.211 C 
ATOM     14  O   UNL d   1      46.633 -14.463  36.517  0.00  0.00    -0.644 OA
ATOM     15  O   UNL d   1      46.645 -14.951  37.866  0.00  0.00    -0.644 OA
ENDBRANCH  12  13
ENDBRANCH   1  12
TORSDOF 2
ENDMDL
