MODEL 1
REMARK VINA RESULT:      73.4      0.000      0.000
REMARK  2 active torsions:
REMARK  status: ('A' for Active; 'I' for Inactive)
REMARK       I    between atoms: C_3  and  N_1 
REMARK       I    between atoms: C_4  and  N_2 
REMARK    1  A    between atoms: C_5  and  C_3 
REMARK    2  A    between atoms: C_6  and  C_4 
ROOT
ATOM      1  N   UNL d   1     -57.832 -99.136 -44.588  0.00  0.00    -0.270 N 
ATOM      2  N   UNL d   1     -56.292 -99.095 -43.997  0.00  0.00    -0.269 N 
ATOM      3  C   UNL d   1     -58.594 -99.157 -44.876  0.00  0.00     0.271 C 
ATOM      4  C   UNL d   1     -55.535 -99.077 -43.696  0.00  0.00     0.271 C 
ATOM      5  C   UNL d   1     -57.196 -98.971 -45.098  0.00  0.00     0.085 A 
ATOM      6  C   UNL d   1     -56.440 -98.953 -44.797  0.00  0.00     0.101 A 
ATOM      7  C   UNL d   1     -57.709 -99.281 -43.783  0.00  0.00     0.102 A 
ATOM      8  C   UNL d   1     -56.927 -99.260 -43.488  0.00  0.00     0.102 A 
ATOM      9  O   UNL d   1     -59.232 -99.324 -44.359  0.00  0.00    -0.266 OA
ATOM     10  O   UNL d   1     -54.912 -98.915 -44.196  0.00  0.00    -0.266 OA
ATOM     11  C   UNL d   1     -57.345 -98.829 -45.898  0.00  0.00     0.021 C 
ENDROOT
BRANCH   3  12
ATOM     12  C   UNL d   1     -58.752 -99.017 -45.671  0.00  0.00     0.086 A 
ATOM     13  S   UNL d   1     -58.614 -98.918 -46.482  0.00  0.00    -0.082 SA
ATOM     14  C   UNL d   1     -59.334 -98.759 -46.843  0.00  0.00     0.036 A 
ATOM     15  C   UNL d   1     -59.921 -98.759 -46.256  0.00  0.00     0.008 A 
ATOM     16  C   UNL d   1     -59.554 -98.920 -45.528  0.00  0.00     0.012 A 
ENDBRANCH   3  12
BRANCH   4  17
ATOM     17  C   UNL d   1     -55.202 -99.189 -42.950  0.00  0.00     0.086 A 
ATOM     18  S   UNL d   1     -54.788 -98.894 -42.301  0.00  0.00    -0.082 SA
ATOM     19  C   UNL d   1     -54.712 -99.510 -41.752  0.00  0.00     0.036 A 
ATOM     20  C   UNL d   1     -55.085-100.185 -42.078  0.00  0.00     0.008 A 
ATOM     21  C   UNL d   1     -55.379 -99.970 -42.811  0.00  0.00     0.012 A 
ENDBRANCH   4  17
TORSDOF 2
ENDMDL
MODEL 2
REMARK VINA RESULT:      75.3      3.396      5.732
REMARK  2 active torsions:
REMARK  status: ('A' for Active; 'I' for Inactive)
REMARK       I    between atoms: C_3  and  N_1 
REMARK       I    between atoms: C_4  and  N_2 
REMARK    1  A    between atoms: C_5  and  C_3 
REMARK    2  A    between atoms: C_6  and  C_4 
ROOT
ATOM      1  N   UNL d   1     -55.401-101.902 -40.992  0.00  0.00    -0.270 N 
ATOM      2  N   UNL d   1     -55.588-101.984 -42.629  0.00  0.00    -0.269 N 
ATOM      3  C   UNL d   1     -55.306-101.859 -40.184  0.00  0.00     0.271 C 
ATOM      4  C   UNL d   1     -55.673-102.017 -43.439  0.00  0.00     0.271 C 
ATOM      5  C   UNL d   1     -55.989-102.391 -41.318  0.00  0.00     0.085 A 
ATOM      6  C   UNL d   1     -56.073-102.424 -42.127  0.00  0.00     0.101 A 
ATOM      7  C   UNL d   1     -54.902-101.451 -41.474  0.00  0.00     0.102 A 
ATOM      8  C   UNL d   1     -55.000-101.495 -42.303  0.00  0.00     0.102 A 
ATOM      9  O   UNL d   1     -54.712-101.365 -39.859  0.00  0.00    -0.266 OA
ATOM     10  O   UNL d   1     -56.249-102.496 -43.759  0.00  0.00    -0.266 OA
ATOM     11  C   UNL d   1     -56.475-102.831 -40.816  0.00  0.00     0.021 C 
ENDROOT
BRANCH   3  12
ATOM     12  C   UNL d   1     -55.784-102.294 -39.676  0.00  0.00     0.086 A 
ATOM     13  S   UNL d   1     -56.397-102.792 -39.427  0.00  0.00    -0.082 SA
ATOM     14  C   UNL d   1     -56.344-102.871 -38.612  0.00  0.00     0.036 A 
ATOM     15  C   UNL d   1     -55.696-102.420 -38.352  0.00  0.00     0.008 A 
ATOM     16  C   UNL d   1     -55.351-102.063 -39.018  0.00  0.00     0.012 A 
ENDBRANCH   3  12
BRANCH   4  17
ATOM     17  C   UNL d   1     -55.294-101.662 -44.080  0.00  0.00     0.086 A 
ATOM     18  S   UNL d   1     -54.712-101.677 -44.663  0.00  0.00    -0.082 SA
ATOM     19  C   UNL d   1     -54.775-100.975 -45.099  0.00  0.00     0.036 A 
ATOM     20  C   UNL d   1     -55.406-100.533 -44.771  0.00  0.00     0.008 A 
ATOM     21  C   UNL d   1     -55.712-100.968 -44.149  0.00  0.00     0.012 A 
ENDBRANCH   4  17
TORSDOF 2
ENDMDL
