MODEL 1
REMARK VINA RESULT:      -4.5      0.000      0.000
REMARK  6 active torsions:
REMARK  status: ('A' for Active; 'I' for Inactive)
REMARK    1  A    between atoms: C_5  and  N_1 
REMARK    2  A    between atoms: C_4  and  C_5 
REMARK       I    between atoms: N_8  and  C_4 
REMARK    3  A    between atoms: C_6  and  C_9 
REMARK    4  A    between atoms: O_19  and  C_6 
REMARK    5  A    between atoms: C_16  and  N_8 
REMARK    6  A    between atoms: C_22  and  O_19 
ROOT
ATOM      1  C   UNL d   1      58.304  -0.332  30.086  0.00  0.00     0.297 C 
ATOM      2  N   UNL d   1      57.492  -0.420  30.220  0.00  0.00    -0.207 NA
ATOM      3  O   UNL d   1      58.800  -0.117  30.710  0.00  0.00    -0.264 OA
ENDROOT
BRANCH   2   4
ATOM      4  C   UNL d   1      57.178  -0.294  30.974  0.00  0.00     0.085 A 
ATOM      5  C   UNL d   1      56.994  -0.937  31.457  0.00  0.00     0.019 A 
ATOM      6  C   UNL d   1      56.683  -0.795  32.205  0.00  0.00     0.007 A 
ATOM      7  C   UNL d   1      56.555  -0.033  32.474  0.00  0.00     0.064 A 
ATOM      8  C   UNL d   1      56.740   0.607  31.987  0.00  0.00     0.007 A 
ATOM      9  C   UNL d   1      57.054   0.481  31.233  0.00  0.00     0.019 A 
BRANCH   7  10
ATOM     10  C   UNL d   1      56.241   0.099  33.228  0.00  0.00     0.300 C 
ATOM     11  O   UNL d   1      56.749   0.176  33.874  0.00  0.00    -0.259 OA
BRANCH  10  12
ATOM     12  O   UNL d   1      55.435   0.152  33.336  0.00  0.00    -0.271 OA
BRANCH  12  13
ATOM     13  C   UNL d   1      55.118   0.405  34.051  0.00  0.00     0.126 C 
ATOM     14  C   UNL d   1      54.353   0.682  34.097  0.00  0.00     0.029 C 
ENDBRANCH  12  13
ENDBRANCH  10  12
ENDBRANCH   7  10
ENDBRANCH   2   4
BRANCH   1  15
ATOM     15  C   UNL d   1      58.621  -0.454  29.344  0.00  0.00     0.148 C 
BRANCH  15  16
ATOM     16  N   UNL d   1      59.404  -0.700  29.264  0.00  0.00    -0.235 N 
ATOM     17  C   UNL d   1      60.009  -0.136  29.212  0.00  0.00     0.274 A 
ATOM     18  O   UNL d   1      59.825   0.670  29.240  0.00  0.00    -0.266 OA
ATOM     19  C   UNL d   1      60.785  -0.379  29.132  0.00  0.00     0.097 A 
ATOM     20  S   UNL d   1      60.977  -1.174  29.103  0.00  0.00    -0.076 SA
ATOM     21  C   UNL d   1      60.381  -1.736  29.154  0.00  0.00     0.097 A 
ATOM     22  C   UNL d   1      59.592  -1.507  29.235  0.00  0.00     0.274 A 
ATOM     23  O   UNL d   1      58.993  -2.068  29.287  0.00  0.00    -0.266 OA
ENDBRANCH  15  16
ENDBRANCH   1  15
TORSDOF 6
ENDMDL
MODEL 2
REMARK VINA RESULT:      -1.6      1.868      5.071
REMARK  6 active torsions:
REMARK  status: ('A' for Active; 'I' for Inactive)
REMARK    1  A    between atoms: C_5  and  N_1 
REMARK    2  A    between atoms: C_4  and  C_5 
REMARK       I    between atoms: N_8  and  C_4 
REMARK    3  A    between atoms: C_6  and  C_9 
REMARK    4  A    between atoms: O_19  and  C_6 
REMARK    5  A    between atoms: C_16  and  N_8 
REMARK    6  A    between atoms: C_22  and  O_19 
ROOT
ATOM      1  C   UNL d   1      57.594   0.272  31.426  0.00  0.00     0.297 C 
ATOM      2  N   UNL d   1      57.979   0.651  30.798  0.00  0.00    -0.207 NA
ATOM      3  O   UNL d   1      57.740  -0.527  31.573  0.00  0.00    -0.264 OA
ENDROOT
BRANCH   2   4
ATOM      4  C   UNL d   1      58.508   0.232  30.321  0.00  0.00     0.085 A 
ATOM      5  C   UNL d   1      58.252  -0.435  29.908  0.00  0.00     0.019 A 
ATOM      6  C   UNL d   1      58.790  -0.841  29.438  0.00  0.00     0.007 A 
ATOM      7  C   UNL d   1      59.567  -0.596  29.374  0.00  0.00     0.064 A 
ATOM      8  C   UNL d   1      59.819   0.072  29.788  0.00  0.00     0.007 A 
ATOM      9  C   UNL d   1      59.291   0.491  30.265  0.00  0.00     0.019 A 
BRANCH   7  10
ATOM     10  C   UNL d   1      60.101  -1.012  28.897  0.00  0.00     0.300 C 
ATOM     11  O   UNL d   1      60.760  -0.624  28.587  0.00  0.00    -0.259 OA
BRANCH  10  12
ATOM     12  O   UNL d   1      59.978  -1.801  28.733  0.00  0.00    -0.271 OA
BRANCH  12  13
ATOM     13  C   UNL d   1      60.589  -2.276  28.455  0.00  0.00     0.126 C 
ATOM     14  C   UNL d   1      60.549  -3.088  28.513  0.00  0.00     0.029 C 
ENDBRANCH  12  13
ENDBRANCH  10  12
ENDBRANCH   7  10
ENDBRANCH   2   4
BRANCH   1  15
ATOM     15  C   UNL d   1      57.070   0.679  31.901  0.00  0.00     0.148 C 
BRANCH  15  16
ATOM     16  N   UNL d   1      56.701   0.297  32.532  0.00  0.00    -0.235 N 
ATOM     17  C   UNL d   1      57.057   0.298  33.280  0.00  0.00     0.274 A 
ATOM     18  O   UNL d   1      57.781   0.682  33.391  0.00  0.00    -0.266 OA
ATOM     19  C   UNL d   1      56.691  -0.080  33.905  0.00  0.00     0.097 A 
ATOM     20  S   UNL d   1      55.974  -0.463  33.804  0.00  0.00    -0.076 SA
ATOM     21  C   UNL d   1      55.618  -0.466  33.065  0.00  0.00     0.097 A 
ATOM     22  C   UNL d   1      55.975  -0.089  32.424  0.00  0.00     0.274 A 
ATOM     23  O   UNL d   1      55.619  -0.091  31.682  0.00  0.00    -0.266 OA
ENDBRANCH  15  16
ENDBRANCH   1  15
TORSDOF 6
ENDMDL
