MODEL 1
REMARK VINA RESULT:      -8.3      0.000      0.000
REMARK  4 active torsions:
REMARK  status: ('A' for Active; 'I' for Inactive)
REMARK    1  A    between atoms: N_4  and  C_2 
REMARK       I    between atoms: C_3  and  N_4 
REMARK    2  A    between atoms: C_10  and  C_3 
REMARK    3  A    between atoms: C_12  and  N_4 
REMARK    4  A    between atoms: O_18  and  C_15 
ROOT
ATOM      1  C   UNL d   1     -47.850  14.349  22.672  0.00  0.00     0.265 C 
ATOM      2  N   UNL d   1     -48.949  13.801  22.908  0.00  0.00    -0.274 N 
ATOM      3  O   UNL d   1     -47.926  15.138  22.561  0.00  0.00    -0.267 OA
ENDROOT
BRANCH   2   4
ATOM      4  C   UNL d   1     -48.924  13.023  23.024  0.00  0.00     0.079 A 
ATOM      5  C   UNL d   1     -49.074  12.470  22.486  0.00  0.00     0.116 A 
ATOM      6  S   UNL d   1     -48.987  11.772  22.828  0.00  0.00     0.213 S 
ATOM      7  C   UNL d   1     -48.784  11.897  23.576  0.00  0.00     0.100 A 
ATOM      8  O   UNL d   1     -48.900  11.073  23.170  0.00  0.00    -0.217 OA
ATOM      9  O   UNL d   1     -49.187  11.613  22.093  0.00  0.00    -0.217 OA
ATOM     10  C   UNL d   1     -48.746  12.665  23.695  0.00  0.00     0.030 A 
ENDBRANCH   2   4
BRANCH   2  11
ATOM     11  C   UNL d   1     -49.652  14.228  22.940  0.00  0.00     0.067 A 
ATOM     12  C   UNL d   1     -49.907  14.525  23.657  0.00  0.00     0.018 A 
ATOM     13  C   UNL d   1     -50.623  14.960  23.693  0.00  0.00     0.002 A 
ATOM     14  C   UNL d   1     -51.064  15.087  23.009  0.00  0.00     0.000 A 
ATOM     15  C   UNL d   1     -50.804  14.786  22.286  0.00  0.00     0.002 A 
ATOM     16  C   UNL d   1     -50.102  14.357  22.243  0.00  0.00     0.018 A 
ENDBRANCH   2  11
BRANCH   1  17
ATOM     17  C   UNL d   1     -47.133  13.941  22.635  0.00  0.00     0.057 A 
ATOM     18  C   UNL d   1     -46.691  13.792  23.329  0.00  0.00     0.007 A 
ATOM     19  C   UNL d   1     -45.977  13.384  23.281  0.00  0.00     0.024 A 
ATOM     20  C   UNL d   1     -45.691  13.119  22.550  0.00  0.00     0.094 A 
ATOM     21  C   UNL d   1     -46.122  13.262  21.860  0.00  0.00     0.024 A 
ATOM     22  C   UNL d   1     -46.850  13.676  21.893  0.00  0.00     0.007 A 
BRANCH  20  23
ATOM     23  O   UNL d   1     -44.967  12.707  22.510  0.00  0.00    -0.328 OA
ATOM     24  C   UNL d   1     -44.469  12.786  21.843  0.00  0.00     0.181 C 
ENDBRANCH  20  23
ENDBRANCH   1  17
TORSDOF 4
ENDMDL
MODEL 2
REMARK VINA RESULT:      -7.3      1.086      3.849
REMARK  4 active torsions:
REMARK  status: ('A' for Active; 'I' for Inactive)
REMARK    1  A    between atoms: N_4  and  C_2 
REMARK       I    between atoms: C_3  and  N_4 
REMARK    2  A    between atoms: C_10  and  C_3 
REMARK    3  A    between atoms: C_12  and  N_4 
REMARK    4  A    between atoms: O_18  and  C_15 
ROOT
ATOM      1  C   UNL d   1     -47.646  14.392  22.795  0.00  0.00     0.265 C 
ATOM      2  N   UNL d   1     -47.375  13.200  22.529  0.00  0.00    -0.274 N 
ATOM      3  O   UNL d   1     -46.989  14.823  22.943  0.00  0.00    -0.267 OA
ENDROOT
BRANCH   2   4
ATOM      4  C   UNL d   1     -47.991  12.736  22.377  0.00  0.00     0.079 A 
ATOM      5  C   UNL d   1     -48.346  12.255  22.887  0.00  0.00     0.116 A 
ATOM      6  S   UNL d   1     -48.931  11.896  22.513  0.00  0.00     0.213 S 
ATOM      7  C   UNL d   1     -48.937  12.158  21.773  0.00  0.00     0.100 A 
ATOM      8  O   UNL d   1     -49.518  11.538  22.138  0.00  0.00    -0.217 OA
ATOM      9  O   UNL d   1     -48.955  11.616  23.238  0.00  0.00    -0.217 OA
ATOM     10  C   UNL d   1     -48.359  12.674  21.691  0.00  0.00     0.030 A 
ENDBRANCH   2   4
BRANCH   2  11
ATOM     11  C   UNL d   1     -46.601  12.921  22.515  0.00  0.00     0.067 A 
ATOM     12  C   UNL d   1     -46.123  13.100  21.878  0.00  0.00     0.018 A 
ATOM     13  C   UNL d   1     -45.333  12.817  21.861  0.00  0.00     0.002 A 
ATOM     14  C   UNL d   1     -45.043  12.363  22.483  0.00  0.00     0.000 A 
ATOM     15  C   UNL d   1     -45.529  12.183  23.126  0.00  0.00     0.002 A 
ATOM     16  C   UNL d   1     -46.306  12.457  23.151  0.00  0.00     0.018 A 
ENDBRANCH   2  11
BRANCH   1  17
ATOM     17  C   UNL d   1     -48.414  14.693  22.815  0.00  0.00     0.057 A 
ATOM     18  C   UNL d   1     -48.775  14.986  22.120  0.00  0.00     0.007 A 
ATOM     19  C   UNL d   1     -49.542  15.285  22.151  0.00  0.00     0.024 A 
ATOM     20  C   UNL d   1     -49.961  15.298  22.866  0.00  0.00     0.094 A 
ATOM     21  C   UNL d   1     -49.612  15.012  23.557  0.00  0.00     0.024 A 
ATOM     22  C   UNL d   1     -48.832  14.704  23.541  0.00  0.00     0.007 A 
BRANCH  20  23
ATOM     23  O   UNL d   1     -50.737  15.603  22.888  0.00  0.00    -0.328 OA
ATOM     24  C   UNL d   1     -51.062  15.886  23.605  0.00  0.00     0.181 C 
ENDBRANCH  20  23
ENDBRANCH   1  17
TORSDOF 4
ENDMDL
MODEL 3
REMARK VINA RESULT:      -6.7      1.409      2.432
REMARK  4 active torsions:
REMARK  status: ('A' for Active; 'I' for Inactive)
REMARK    1  A    between atoms: N_4  and  C_2 
REMARK       I    between atoms: C_3  and  N_4 
REMARK    2  A    between atoms: C_10  and  C_3 
REMARK    3  A    between atoms: C_12  and  N_4 
REMARK    4  A    between atoms: O_18  and  C_15 
ROOT
ATOM      1  C   UNL d   1     -47.771  12.422  22.766  0.00  0.00     0.265 C 
ATOM      2  N   UNL d   1     -48.801  13.124  22.670  0.00  0.00    -0.274 N 
ATOM      3  O   UNL d   1     -47.940  11.666  22.967  0.00  0.00    -0.267 OA
ENDROOT
BRANCH   2   4
ATOM      4  C   UNL d   1     -48.684  13.876  22.474  0.00  0.00     0.079 A 
ATOM      5  C   UNL d   1     -48.656  14.485  22.970  0.00  0.00     0.116 A 
ATOM      6  S   UNL d   1     -48.530  15.132  22.550  0.00  0.00     0.213 S 
ATOM      7  C   UNL d   1     -48.479  14.920  21.796  0.00  0.00     0.100 A 
ATOM      8  O   UNL d   1     -48.403  15.780  22.129  0.00  0.00    -0.217 OA
ATOM      9  O   UNL d   1     -48.574  15.376  23.287  0.00  0.00    -0.217 OA
ATOM     10  C   UNL d   1     -48.574  14.149  21.750  0.00  0.00     0.030 A 
ENDBRANCH   2   4
BRANCH   2  11
ATOM     11  C   UNL d   1     -49.552  12.816  22.805  0.00  0.00     0.067 A 
ATOM     12  C   UNL d   1     -49.948  12.445  22.194  0.00  0.00     0.018 A 
ATOM     13  C   UNL d   1     -50.714  12.131  22.328  0.00  0.00     0.002 A 
ATOM     14  C   UNL d   1     -51.064  12.197  23.071  0.00  0.00     0.000 A 
ATOM     15  C   UNL d   1     -50.662  12.573  23.686  0.00  0.00     0.002 A 
ATOM     16  C   UNL d   1     -49.909  12.884  23.562  0.00  0.00     0.018 A 
ENDBRANCH   2  11
BRANCH   1  17
ATOM     17  C   UNL d   1     -47.007  12.708  22.636  0.00  0.00     0.057 A 
ATOM     18  C   UNL d   1     -46.676  12.705  21.867  0.00  0.00     0.007 A 
ATOM     19  C   UNL d   1     -45.914  12.994  21.749  0.00  0.00     0.024 A 
ATOM     20  C   UNL d   1     -45.470  13.287  22.384  0.00  0.00     0.094 A 
ATOM     21  C   UNL d   1     -45.789  13.294  23.145  0.00  0.00     0.024 A 
ATOM     22  C   UNL d   1     -46.564  13.003  23.282  0.00  0.00     0.007 A 
BRANCH  20  23
ATOM     23  O   UNL d   1     -44.699  13.577  22.255  0.00  0.00    -0.328 OA
ATOM     24  C   UNL d   1     -44.224  13.262  21.642  0.00  0.00     0.181 C 
ENDBRANCH  20  23
ENDBRANCH   1  17
TORSDOF 4
ENDMDL
MODEL 4
REMARK VINA RESULT:      -6.3      8.014      9.590
REMARK  4 active torsions:
REMARK  status: ('A' for Active; 'I' for Inactive)
REMARK    1  A    between atoms: N_4  and  C_2 
REMARK       I    between atoms: C_3  and  N_4 
REMARK    2  A    between atoms: C_10  and  C_3 
REMARK    3  A    between atoms: C_12  and  N_4 
REMARK    4  A    between atoms: O_18  and  C_15 
ROOT
ATOM      1  C   UNL d   1     -38.981  14.337  19.557  0.00  0.00     0.265 C 
ATOM      2  N   UNL d   1     -39.374  14.576  20.720  0.00  0.00    -0.274 N 
ATOM      3  O   UNL d   1     -38.292  13.929  19.550  0.00  0.00    -0.267 OA
ENDROOT
BRANCH   2   4
ATOM      4  C   UNL d   1     -40.049  14.975  20.776  0.00  0.00     0.079 A 
ATOM      5  C   UNL d   1     -40.763  14.664  20.884  0.00  0.00     0.116 A 
ATOM      6  S   UNL d   1     -41.279  15.251  20.909  0.00  0.00     0.213 S 
ATOM      7  C   UNL d   1     -40.882  15.922  20.817  0.00  0.00     0.100 A 
ATOM      8  O   UNL d   1     -41.796  15.839  20.934  0.00  0.00    -0.217 OA
ATOM      9  O   UNL d   1     -41.703  14.606  21.002  0.00  0.00    -0.217 OA
ATOM     10  C   UNL d   1     -40.127  15.751  20.736  0.00  0.00     0.030 A 
ENDBRANCH   2   4
BRANCH   2  11
ATOM     11  C   UNL d   1     -38.951  14.330  21.382  0.00  0.00     0.067 A 
ATOM     12  C   UNL d   1     -38.430  14.848  21.739  0.00  0.00     0.018 A 
ATOM     13  C   UNL d   1     -37.998  14.601  22.414  0.00  0.00     0.002 A 
ATOM     14  C   UNL d   1     -38.100  13.840  22.715  0.00  0.00     0.000 A 
ATOM     15  C   UNL d   1     -38.628  13.319  22.352  0.00  0.00     0.002 A 
ATOM     16  C   UNL d   1     -39.056  13.555  21.688  0.00  0.00     0.018 A 
ENDBRANCH   2  11
BRANCH   1  17
ATOM     17  C   UNL d   1     -39.388  14.573  18.879  0.00  0.00     0.057 A 
ATOM     18  C   UNL d   1     -39.267  15.334  18.552  0.00  0.00     0.007 A 
ATOM     19  C   UNL d   1     -39.678  15.559  17.875  0.00  0.00     0.024 A 
ATOM     20  C   UNL d   1     -40.211  15.039  17.513  0.00  0.00     0.094 A 
ATOM     21  C   UNL d   1     -40.337  14.286  17.828  0.00  0.00     0.024 A 
ATOM     22  C   UNL d   1     -39.925  14.043  18.517  0.00  0.00     0.007 A 
BRANCH  20  23
ATOM     23  O   UNL d   1     -40.623  15.276  16.827  0.00  0.00    -0.328 OA
ATOM     24  C   UNL d   1     -41.280  15.792  16.883  0.00  0.00     0.181 C 
ENDBRANCH  20  23
ENDBRANCH   1  17
TORSDOF 4
ENDMDL
MODEL 5
REMARK VINA RESULT:      -5.5      0.777      1.202
REMARK  4 active torsions:
REMARK  status: ('A' for Active; 'I' for Inactive)
REMARK    1  A    between atoms: N_4  and  C_2 
REMARK       I    between atoms: C_3  and  N_4 
REMARK    2  A    between atoms: C_10  and  C_3 
REMARK    3  A    between atoms: C_12  and  N_4 
REMARK    4  A    between atoms: O_18  and  C_15 
ROOT
ATOM      1  C   UNL d   1     -47.156  13.958  22.507  0.00  0.00     0.265 C 
ATOM      2  N   UNL d   1     -48.278  13.412  22.584  0.00  0.00    -0.274 N 
ATOM      3  O   UNL d   1     -47.202  14.753  22.593  0.00  0.00    -0.267 OA
ENDROOT
BRANCH   2   4
ATOM      4  C   UNL d   1     -48.282  12.630  22.506  0.00  0.00     0.079 A 
ATOM      5  C   UNL d   1     -48.147  12.107  23.077  0.00  0.00     0.116 A 
ATOM      6  S   UNL d   1     -48.204  11.391  22.766  0.00  0.00     0.213 S 
ATOM      7  C   UNL d   1     -48.373  11.475  22.004  0.00  0.00     0.100 A 
ATOM      8  O   UNL d   1     -48.260  10.675  22.455  0.00  0.00    -0.217 OA
ATOM      9  O   UNL d   1     -48.037  11.272  23.516  0.00  0.00    -0.217 OA
ATOM     10  C   UNL d   1     -48.420  12.235  21.845  0.00  0.00     0.030 A 
ENDBRANCH   2   4
BRANCH   2  11
ATOM     11  C   UNL d   1     -48.966  13.845  22.708  0.00  0.00     0.067 A 
ATOM     12  C   UNL d   1     -49.338  13.805  23.434  0.00  0.00     0.018 A 
ATOM     13  C   UNL d   1     -50.040  14.246  23.564  0.00  0.00     0.002 A 
ATOM     14  C   UNL d   1     -50.352  14.714  22.962  0.00  0.00     0.000 A 
ATOM     15  C   UNL d   1     -49.974  14.752  22.229  0.00  0.00     0.002 A 
ATOM     16  C   UNL d   1     -49.283  14.323  22.094  0.00  0.00     0.018 A 
ENDBRANCH   2  11
BRANCH   1  17
ATOM     17  C   UNL d   1     -46.452  13.545  22.383  0.00  0.00     0.057 A 
ATOM     18  C   UNL d   1     -46.223  13.314  21.612  0.00  0.00     0.007 A 
ATOM     19  C   UNL d   1     -45.519  12.901  21.500  0.00  0.00     0.024 A 
ATOM     20  C   UNL d   1     -45.034  12.712  22.144  0.00  0.00     0.094 A 
ATOM     21  C   UNL d   1     -45.252  12.936  22.908  0.00  0.00     0.024 A 
ATOM     22  C   UNL d   1     -45.966  13.356  23.038  0.00  0.00     0.007 A 
BRANCH  20  23
ATOM     23  O   UNL d   1     -44.323  12.294  22.021  0.00  0.00    -0.328 OA
ATOM     24  C   UNL d   1     -43.649  12.684  21.713  0.00  0.00     0.181 C 
ENDBRANCH  20  23
ENDBRANCH   1  17
TORSDOF 4
ENDMDL
MODEL 6
REMARK VINA RESULT:      -5.5      8.204      9.646
REMARK  4 active torsions:
REMARK  status: ('A' for Active; 'I' for Inactive)
REMARK    1  A    between atoms: N_4  and  C_2 
REMARK       I    between atoms: C_3  and  N_4 
REMARK    2  A    between atoms: C_10  and  C_3 
REMARK    3  A    between atoms: C_12  and  N_4 
REMARK    4  A    between atoms: O_18  and  C_15 
ROOT
ATOM      1  C   UNL d   1     -38.547  14.474  19.803  0.00  0.00     0.265 C 
ATOM      2  N   UNL d   1     -39.610  14.937  19.334  0.00  0.00    -0.274 N 
ATOM      3  O   UNL d   1     -38.031  14.266  19.227  0.00  0.00    -0.267 OA
ENDROOT
BRANCH   2   4
ATOM      4  C   UNL d   1     -40.148  15.156  19.864  0.00  0.00     0.079 A 
ATOM      5  C   UNL d   1     -40.719  14.702  20.158  0.00  0.00     0.116 A 
ATOM      6  S   UNL d   1     -41.131  15.133  20.665  0.00  0.00     0.213 S 
ATOM      7  C   UNL d   1     -40.813  15.850  20.682  0.00  0.00     0.100 A 
ATOM      8  O   UNL d   1     -41.543  15.563  21.173  0.00  0.00    -0.217 OA
ATOM      9  O   UNL d   1     -41.470  14.433  20.673  0.00  0.00    -0.217 OA
ATOM     10  C   UNL d   1     -40.210  15.863  20.190  0.00  0.00     0.030 A 
ENDBRANCH   2   4
BRANCH   2  11
ATOM     11  C   UNL d   1     -39.736  15.008  18.524  0.00  0.00     0.067 A 
ATOM     12  C   UNL d   1     -39.547  15.709  18.150  0.00  0.00     0.018 A 
ATOM     13  C   UNL d   1     -39.674  15.783  17.324  0.00  0.00     0.002 A 
ATOM     14  C   UNL d   1     -39.987  15.154  16.895  0.00  0.00     0.000 A 
ATOM     15  C   UNL d   1     -40.177  14.447  17.276  0.00  0.00     0.002 A 
ATOM     16  C   UNL d   1     -40.055  14.365  18.087  0.00  0.00     0.018 A 
ENDBRANCH   2  11
BRANCH   1  17
ATOM     17  C   UNL d   1     -38.399  14.394  20.611  0.00  0.00     0.057 A 
ATOM     18  C   UNL d   1     -38.116  15.042  21.058  0.00  0.00     0.007 A 
ATOM     19  C   UNL d   1     -37.971  14.951  21.864  0.00  0.00     0.024 A 
ATOM     20  C   UNL d   1     -38.103  14.223  22.237  0.00  0.00     0.094 A 
ATOM     21  C   UNL d   1     -38.382  13.579  21.803  0.00  0.00     0.024 A 
ATOM     22  C   UNL d   1     -38.534  13.656  20.982  0.00  0.00     0.007 A 
BRANCH  20  23
ATOM     23  O   UNL d   1     -37.954  14.140  23.054  0.00  0.00    -0.328 OA
ATOM     24  C   UNL d   1     -38.233  13.470  23.471  0.00  0.00     0.181 C 
ENDBRANCH  20  23
ENDBRANCH   1  17
TORSDOF 4
ENDMDL
