MODEL 1
REMARK VINA RESULT:      -4.2      0.000      0.000
REMARK  4 active torsions:
REMARK  status: ('A' for Active; 'I' for Inactive)
REMARK       I    between atoms: N_3  and  C_1 
REMARK    1  A    between atoms: C_9  and  C_1 
REMARK    2  A    between atoms: C_2  and  N_3 
REMARK    3  A    between atoms: O_15  and  C_6 
REMARK    4  A    between atoms: O_16  and  C_8 
ROOT
ATOM      1  C   UNL d   1     -41.225-122.602 -51.396  0.00  0.00     0.109 A 
ATOM      2  C   UNL d   1     -41.246-123.243 -51.907  0.00  0.00     0.046 A 
ATOM      3  C   UNL d   1     -41.179-121.707 -52.514  0.00  0.00     0.039 A 
ATOM      4  C   UNL d   1     -41.191-121.828 -51.706  0.00  0.00     0.113 A 
ATOM      5  C   UNL d   1     -41.201-122.361 -53.036  0.00  0.00     0.082 A 
ATOM      6  C   UNL d   1     -41.234-123.125 -52.724  0.00  0.00     0.106 A 
ATOM      7 CL   UNL d   1     -41.188-122.238 -53.853  0.00  0.00    -0.080 Cl
ENDROOT
BRANCH   1   8
ATOM      8  N   UNL d   1     -41.237-122.722 -50.582  0.00  0.00    -0.206 NA
ATOM      9  C   UNL d   1     -41.783-123.243 -50.253  0.00  0.00     0.279 C 
ATOM     10  O   UNL d   1     -42.317-123.642 -50.738  0.00  0.00    -0.265 OA
BRANCH   9  11
ATOM     11  C   UNL d   1     -41.802-123.369 -49.441  0.00  0.00     0.058 A 
ATOM     12  C   UNL d   1     -41.141-123.676 -49.053  0.00  0.00     0.006 A 
ATOM     13  C   UNL d   1     -41.158-123.804 -48.237  0.00  0.00     0.012 A 
ATOM     14  C   UNL d   1     -41.842-123.622 -47.814  0.00  0.00     0.058 A 
ATOM     15  C   UNL d   1     -42.505-123.314 -48.200  0.00  0.00     0.012 A 
ATOM     16 CL   UNL d   1     -41.868-123.747 -46.998  0.00  0.00    -0.082 Cl
ATOM     17  C   UNL d   1     -42.478-123.191 -49.013  0.00  0.00     0.006 A 
ENDBRANCH   9  11
ENDBRANCH   1   8
BRANCH   4  18
ATOM     18  O   UNL d   1     -41.170-121.186 -51.189  0.00  0.00    -0.327 OA
ATOM     19  C   UNL d   1     -41.126-120.419 -51.492  0.00  0.00     0.181 C 
ENDBRANCH   4  18
BRANCH   6  20
ATOM     20  O   UNL d   1     -41.256-123.776 -53.243  0.00  0.00    -0.327 OA
ATOM     21  C   UNL d   1     -41.782-123.768 -53.873  0.00  0.00     0.181 C 
ENDBRANCH   6  20
TORSDOF 4
ENDMDL
MODEL 2
REMARK VINA RESULT:      -3.0      1.159      4.445
REMARK  4 active torsions:
REMARK  status: ('A' for Active; 'I' for Inactive)
REMARK       I    between atoms: N_3  and  C_1 
REMARK    1  A    between atoms: C_9  and  C_1 
REMARK    2  A    between atoms: C_2  and  N_3 
REMARK    3  A    between atoms: O_15  and  C_6 
REMARK    4  A    between atoms: O_16  and  C_8 
ROOT
ATOM      1  C   UNL d   1     -42.318-123.417 -49.862  0.00  0.00     0.109 A 
ATOM      2  C   UNL d   1     -41.670-123.368 -49.360  0.00  0.00     0.046 A 
ATOM      3  C   UNL d   1     -43.201-123.383 -48.734  0.00  0.00     0.039 A 
ATOM      4  C   UNL d   1     -43.088-123.424 -49.542  0.00  0.00     0.113 A 
ATOM      5  C   UNL d   1     -42.540-123.333 -48.222  0.00  0.00     0.082 A 
ATOM      6  C   UNL d   1     -41.780-123.326 -48.543  0.00  0.00     0.106 A 
ATOM      7 CL   UNL d   1     -42.654-123.291 -47.404  0.00  0.00    -0.080 Cl
ENDROOT
BRANCH   1   8
ATOM      8  N   UNL d   1     -42.206-123.458 -50.676  0.00  0.00    -0.206 NA
ATOM      9  C   UNL d   1     -41.667-122.956 -51.042  0.00  0.00     0.279 C 
ATOM     10  O   UNL d   1     -41.240-122.411 -50.593  0.00  0.00    -0.265 OA
BRANCH   9  11
ATOM     11  C   UNL d   1     -41.549-122.991 -51.854  0.00  0.00     0.058 A 
ATOM     12  C   UNL d   1     -41.737-122.343 -52.329  0.00  0.00     0.006 A 
ATOM     13  C   UNL d   1     -41.620-122.376 -53.147  0.00  0.00     0.012 A 
ATOM     14  C   UNL d   1     -41.312-123.064 -53.483  0.00  0.00     0.058 A 
ATOM     15  C   UNL d   1     -41.123-123.714 -53.009  0.00  0.00     0.012 A 
ATOM     16 CL   UNL d   1     -41.191-123.105 -54.299  0.00  0.00    -0.082 Cl
ATOM     17  C   UNL d   1     -41.244-123.671 -52.196  0.00  0.00     0.006 A 
ENDBRANCH   9  11
ENDBRANCH   1   8
BRANCH   4  18
ATOM     18  O   UNL d   1     -43.736-123.474 -50.050  0.00  0.00    -0.327 OA
ATOM     19  C   UNL d   1     -44.459-123.755 -49.764  0.00  0.00     0.181 C 
ENDBRANCH   4  18
BRANCH   6  20
ATOM     20  O   UNL d   1     -41.123-123.276 -48.033  0.00  0.00    -0.327 OA
ATOM     21  C   UNL d   1     -41.145-123.669 -47.312  0.00  0.00     0.181 C 
ENDBRANCH   6  20
TORSDOF 4
ENDMDL
MODEL 3
REMARK VINA RESULT:      -1.5      0.928      1.191
REMARK  4 active torsions:
REMARK  status: ('A' for Active; 'I' for Inactive)
REMARK       I    between atoms: N_3  and  C_1 
REMARK    1  A    between atoms: C_9  and  C_1 
REMARK    2  A    between atoms: C_2  and  N_3 
REMARK    3  A    between atoms: O_15  and  C_6 
REMARK    4  A    between atoms: O_16  and  C_8 
ROOT
ATOM      1  C   UNL d   1     -41.393-122.506 -52.582  0.00  0.00     0.109 A 
ATOM      2  C   UNL d   1     -41.391-123.182 -53.049  0.00  0.00     0.046 A 
ATOM      3  C   UNL d   1     -41.453-121.689 -53.757  0.00  0.00     0.039 A 
ATOM      4  C   UNL d   1     -41.425-121.756 -52.943  0.00  0.00     0.113 A 
ATOM      5  C   UNL d   1     -41.450-122.377 -54.233  0.00  0.00     0.082 A 
ATOM      6  C   UNL d   1     -41.419-123.118 -53.872  0.00  0.00     0.106 A 
ATOM      7 CL   UNL d   1     -41.479-122.309 -55.057  0.00  0.00    -0.080 Cl
ENDROOT
BRANCH   1   8
ATOM      8  N   UNL d   1     -41.365-122.572 -51.763  0.00  0.00    -0.206 NA
ATOM      9  C   UNL d   1     -41.770-123.181 -51.386  0.00  0.00     0.279 C 
ATOM     10  O   UNL d   1     -42.204-123.725 -51.830  0.00  0.00    -0.265 OA
BRANCH   9  11
ATOM     11  C   UNL d   1     -41.747-123.255 -50.568  0.00  0.00     0.058 A 
ATOM     12  C   UNL d   1     -41.185-123.742 -50.210  0.00  0.00     0.006 A 
ATOM     13  C   UNL d   1     -41.160-123.817 -49.387  0.00  0.00     0.012 A 
ATOM     14  C   UNL d   1     -41.703-123.399 -48.927  0.00  0.00     0.058 A 
ATOM     15  C   UNL d   1     -42.266-122.910 -49.283  0.00  0.00     0.012 A 
ATOM     16 CL   UNL d   1     -41.685-123.468 -48.104  0.00  0.00    -0.082 Cl
ATOM     17  C   UNL d   1     -42.282-122.843 -50.103  0.00  0.00     0.006 A 
ENDBRANCH   9  11
ENDBRANCH   1   8
BRANCH   4  18
ATOM     18  O   UNL d   1     -41.427-121.079 -52.470  0.00  0.00    -0.327 OA
ATOM     19  C   UNL d   1     -41.359-120.335 -52.822  0.00  0.00     0.181 C 
ENDBRANCH   4  18
BRANCH   6  20
ATOM     20  O   UNL d   1     -41.417-123.803 -54.346  0.00  0.00    -0.327 OA
ATOM     21  C   UNL d   1     -41.867-123.816 -55.032  0.00  0.00     0.181 C 
ENDBRANCH   6  20
TORSDOF 4
ENDMDL
