MODEL 1
REMARK VINA RESULT:      -0.8      0.000      0.000
REMARK  2 active torsions:
REMARK  status: ('A' for Active; 'I' for Inactive)
REMARK    1  A    between atoms: S_12  and  C_3 
REMARK    2  A    between atoms: C_14  and  S_12 
ROOT
ATOM      1  N   UNL d   1     -41.130-118.863 -51.931  0.00  0.00    -0.195 NA
ATOM      2  C   UNL d   1     -41.143-119.603 -51.569  0.00  0.00     0.086 C 
ATOM      3  C   UNL d   1     -41.153-120.339 -51.195  0.00  0.00     0.170 C 
ENDROOT
BRANCH   3   4
ATOM      4  S   UNL d   1     -41.335-121.011 -51.637  0.00  0.00    -0.060 SA
BRANCH   4   5
ATOM      5  C   UNL d   1     -41.538-121.715 -51.250  0.00  0.00     0.177 A 
ATOM      6  N   UNL d   1     -41.573-122.421 -51.675  0.00  0.00    -0.270 N 
ATOM      7  C   UNL d   1     -41.773-123.127 -51.302  0.00  0.00     0.151 A 
ATOM      8  C   UNL d   1     -41.437-122.599 -52.474  0.00  0.00     0.085 A 
ATOM      9  N   UNL d   1     -41.764-123.733 -51.855  0.00  0.00    -0.227 NA
ATOM     10  C   UNL d   1     -41.941-123.115 -50.491  0.00  0.00     0.052 A 
ATOM     11  C   UNL d   1     -41.555-123.409 -52.582  0.00  0.00     0.099 A 
ATOM     12  C   UNL d   1     -41.458-123.741 -53.328  0.00  0.00     0.021 A 
ATOM     13  C   UNL d   1     -41.242-123.263 -53.963  0.00  0.00     0.002 A 
ATOM     14  C   UNL d   1     -41.123-122.454 -53.855  0.00  0.00     0.002 A 
ATOM     15  C   UNL d   1     -41.222-122.124 -53.110  0.00  0.00     0.019 A 
ATOM     16  C   UNL d   1     -42.142-123.817 -50.110  0.00  0.00     0.004 A 
ATOM     17  C   UNL d   1     -41.906-122.409 -50.066  0.00  0.00     0.086 A 
ATOM     18  C   UNL d   1     -42.311-123.814 -49.299  0.00  0.00     0.000 A 
ATOM     19  C   UNL d   1     -42.277-123.108 -48.874  0.00  0.00     0.002 A 
ATOM     20  C   UNL d   1     -42.074-122.404 -49.260  0.00  0.00     0.019 A 
ATOM     21  N   UNL d   1     -41.705-121.708 -50.448  0.00  0.00    -0.222 NA
ENDBRANCH   4   5
ENDBRANCH   3   4
TORSDOF 2
ENDMDL
MODEL 2
REMARK VINA RESULT:      -0.2      0.840      3.004
REMARK  2 active torsions:
REMARK  status: ('A' for Active; 'I' for Inactive)
REMARK    1  A    between atoms: S_12  and  C_3 
REMARK    2  A    between atoms: C_14  and  S_12 
ROOT
ATOM      1  N   UNL d   1     -41.126-118.849 -51.543  0.00  0.00    -0.195 NA
ATOM      2  C   UNL d   1     -41.135-119.565 -51.948  0.00  0.00     0.086 C 
ATOM      3  C   UNL d   1     -41.142-120.277 -52.366  0.00  0.00     0.170 C 
ENDROOT
BRANCH   3   4
ATOM      4  S   UNL d   1     -41.260-120.983 -51.955  0.00  0.00    -0.060 SA
BRANCH   4   5
ATOM      5  C   UNL d   1     -41.343-121.693 -52.371  0.00  0.00     0.177 A 
ATOM      6  N   UNL d   1     -41.344-122.411 -51.963  0.00  0.00    -0.270 N 
ATOM      7  C   UNL d   1     -41.425-123.124 -52.367  0.00  0.00     0.151 A 
ATOM      8  C   UNL d   1     -41.273-122.594 -51.157  0.00  0.00     0.085 A 
ATOM      9  N   UNL d   1     -41.407-123.740 -51.826  0.00  0.00    -0.227 NA
ATOM     10  C   UNL d   1     -41.507-123.108 -53.190  0.00  0.00     0.052 A 
ATOM     11  C   UNL d   1     -41.313-123.415 -51.075  0.00  0.00     0.099 A 
ATOM     12  C   UNL d   1     -41.257-123.754 -50.329  0.00  0.00     0.021 A 
ATOM     13  C   UNL d   1     -41.163-123.273 -49.666  0.00  0.00     0.002 A 
ATOM     14  C   UNL d   1     -41.124-122.454 -49.748  0.00  0.00     0.002 A 
ATOM     15  C   UNL d   1     -41.179-122.117 -50.495  0.00  0.00     0.019 A 
ATOM     16  C   UNL d   1     -41.590-123.817 -53.602  0.00  0.00     0.004 A 
ATOM     17  C   UNL d   1     -41.506-122.391 -53.598  0.00  0.00     0.086 A 
ATOM     18  C   UNL d   1     -41.672-123.810 -54.426  0.00  0.00     0.000 A 
ATOM     19  C   UNL d   1     -41.671-123.093 -54.834  0.00  0.00     0.002 A 
ATOM     20  C   UNL d   1     -41.588-122.383 -54.418  0.00  0.00     0.019 A 
ATOM     21  N   UNL d   1     -41.424-121.683 -53.186  0.00  0.00    -0.222 NA
ENDBRANCH   4   5
ENDBRANCH   3   4
TORSDOF 2
ENDMDL
