MODEL 1
REMARK VINA RESULT:      39.9      0.000      0.000
REMARK  5 active torsions:
REMARK  status: ('A' for Active; 'I' for Inactive)
REMARK    1  A    between atoms: C_5  and  C_1 
REMARK    2  A    between atoms: C_9  and  N_2 
REMARK    3  A    between atoms: N_8  and  C_5 
REMARK    4  A    between atoms: N_6  and  C_10 
REMARK    5  A    between atoms: C_18  and  N_8 
ROOT
ATOM      1  C   UNL d   1      13.327  12.344  -3.364  0.00  0.00     0.067 A 
ATOM      2  N   UNL d   1      13.289  13.303  -4.345  0.00  0.00    -0.230 N 
ATOM      3  C   UNL d   1      13.469  13.167  -3.522  0.00  0.00     0.087 A 
ATOM      4  N   UNL d   1      13.038  12.564  -4.690  0.00  0.00    -0.164 NA
ATOM      5  C   UNL d   1      13.062  11.974  -4.081  0.00  0.00     0.124 A 
ATOM      6  C   UNL d   1      13.729  13.729  -2.988  0.00  0.00     0.021 C 
ENDROOT
BRANCH   1   7
ATOM      7  C   UNL d   1      13.430  11.971  -2.635  0.00  0.00     0.139 C 
ATOM      8  S   UNL d   1      12.783  11.795  -2.172  0.00  0.00    -0.057 SA
BRANCH   7   9
ATOM      9  N   UNL d   1      14.180  11.780  -2.379  0.00  0.00    -0.235 NA
BRANCH   9  10
ATOM     10  C   UNL d   1      14.367  11.850  -1.592  0.00  0.00     0.082 A 
ATOM     11  C   UNL d   1      13.775  11.883  -1.028  0.00  0.00     0.019 A 
ATOM     12  C   UNL d   1      13.966  11.952  -0.250  0.00  0.00     0.002 A 
ATOM     13  C   UNL d   1      14.756  11.991  -0.014  0.00  0.00     0.000 A 
ATOM     14  C   UNL d   1      15.345  11.959  -0.569  0.00  0.00     0.002 A 
ATOM     15  C   UNL d   1      15.154  11.888  -1.363  0.00  0.00     0.019 A 
ENDBRANCH   9  10
ENDBRANCH   7   9
ENDBRANCH   1   7
BRANCH   2  16
ATOM     16  C   UNL d   1      13.346  14.021  -4.748  0.00  0.00     0.083 A 
ATOM     17  C   UNL d   1      12.772  14.606  -4.615  0.00  0.00     0.021 A 
ATOM     18  C   UNL d   1      12.821  15.328  -5.013  0.00  0.00     0.025 A 
ATOM     19  C   UNL d   1      13.444  15.465  -5.545  0.00  0.00     0.127 A 
ATOM     20  C   UNL d   1      14.018  14.880  -5.677  0.00  0.00     0.025 A 
ATOM     21  C   UNL d   1      13.961  14.161  -5.275  0.00  0.00     0.021 A 
BRANCH  19  22
ATOM     22  N   UNL d   1      13.493  16.187  -5.943  0.00  0.00    -0.114 N 
ATOM     23  O   UNL d   1      12.810  16.563  -6.210  0.00  0.00    -0.532 OA
ATOM     24  O   UNL d   1      14.230  16.539  -6.078  0.00  0.00    -0.532 OA
ENDBRANCH  19  22
ENDBRANCH   2  16
TORSDOF 5
ENDMDL
MODEL 2
REMARK VINA RESULT:      42.4      2.845      4.087
REMARK  5 active torsions:
REMARK  status: ('A' for Active; 'I' for Inactive)
REMARK    1  A    between atoms: C_5  and  C_1 
REMARK    2  A    between atoms: C_9  and  N_2 
REMARK    3  A    between atoms: N_8  and  C_5 
REMARK    4  A    between atoms: N_6  and  C_10 
REMARK    5  A    between atoms: C_18  and  N_8 
ROOT
ATOM      1  C   UNL d   1      14.506  12.916  -1.664  0.00  0.00     0.067 A 
ATOM      2  N   UNL d   1      14.865  14.115  -1.099  0.00  0.00    -0.230 N 
ATOM      3  C   UNL d   1      14.590  13.747  -1.819  0.00  0.00     0.087 A 
ATOM      4  N   UNL d   1      14.948  13.508  -0.504  0.00  0.00    -0.164 NA
ATOM      5  C   UNL d   1      14.726  12.769  -0.856  0.00  0.00     0.124 A 
ATOM      6  C   UNL d   1      14.438  14.130  -2.525  0.00  0.00     0.021 C 
ENDROOT
BRANCH   1   7
ATOM      7  C   UNL d   1      14.253  12.350  -2.208  0.00  0.00     0.139 C 
ATOM      8  S   UNL d   1      14.776  11.789  -2.485  0.00  0.00    -0.057 SA
BRANCH   7   9
ATOM      9  N   UNL d   1      13.480  12.352  -2.468  0.00  0.00    -0.235 NA
BRANCH   9  10
ATOM     10  C   UNL d   1      13.322  12.390  -3.263  0.00  0.00     0.082 A 
ATOM     11  C   UNL d   1      13.548  11.779  -3.759  0.00  0.00     0.019 A 
ATOM     12  C   UNL d   1      13.390  11.822  -4.545  0.00  0.00     0.002 A 
ATOM     13  C   UNL d   1      13.000  12.478  -4.859  0.00  0.00     0.000 A 
ATOM     14  C   UNL d   1      12.774  13.084  -4.373  0.00  0.00     0.002 A 
ATOM     15  C   UNL d   1      12.934  13.045  -3.570  0.00  0.00     0.019 A 
ENDBRANCH   9  10
ENDBRANCH   7   9
ENDBRANCH   1   7
BRANCH   2  16
ATOM     16  C   UNL d   1      15.025  14.916  -0.987  0.00  0.00     0.083 A 
ATOM     17  C   UNL d   1      14.905  15.445  -1.616  0.00  0.00     0.021 A 
ATOM     18  C   UNL d   1      15.062  16.249  -1.512  0.00  0.00     0.025 A 
ATOM     19  C   UNL d   1      15.340  16.525  -0.780  0.00  0.00     0.127 A 
ATOM     20  C   UNL d   1      15.460  15.996  -0.152  0.00  0.00     0.025 A 
ATOM     21  C   UNL d   1      15.300  15.194  -0.263  0.00  0.00     0.021 A 
BRANCH  19  22
ATOM     22  N   UNL d   1      15.497  17.329  -0.677  0.00  0.00    -0.114 N 
ATOM     23  O   UNL d   1      14.879  17.868  -0.599  0.00  0.00    -0.532 OA
ATOM     24  O   UNL d   1      16.279  17.601  -0.650  0.00  0.00    -0.532 OA
ENDBRANCH  19  22
ENDBRANCH   2  16
TORSDOF 5
ENDMDL
