MODEL 1
REMARK VINA RESULT:      -3.2      0.000      0.000
REMARK  6 active torsions:
REMARK  status: ('A' for Active; 'I' for Inactive)
REMARK    1  A    between atoms: S_6  and  C_2 
REMARK    2  A    between atoms: C_9  and  S_6 
REMARK    3  A    between atoms: C_7  and  C_9 
REMARK    4  A    between atoms: C_8  and  C_7 
REMARK    5  A    between atoms: O_12  and  C_15 
REMARK    6  A    between atoms: C_18  and  O_12 
ROOT
ATOM      1  C   UNL d   1      32.945  19.229 -23.299  0.00  0.00     0.040 A 
ATOM      2  C   UNL d   1      33.014  18.642 -22.730  0.00  0.00     0.005 A 
ATOM      3  C   UNL d   1      32.793  19.014 -24.097  0.00  0.00     0.005 A 
ATOM      4  C   UNL d   1      32.786  17.633 -23.717  0.00  0.00     0.100 A 
ATOM      5  C   UNL d   1      32.936  17.848 -22.932  0.00  0.00     0.025 A 
ATOM      6  C   UNL d   1      32.715  18.220 -24.295  0.00  0.00     0.025 A 
ENDROOT
BRANCH   1   7
ATOM      7  C   UNL d   1      33.022  20.017 -23.098  0.00  0.00     0.202 C 
ATOM      8  O   UNL d   1      33.217  20.570 -23.685  0.00  0.00    -0.286 OA
BRANCH   7   9
ATOM      9  C   UNL d   1      32.908  20.260 -22.318  0.00  0.00     0.080 C 
BRANCH   9  10
ATOM     10  S   UNL d   1      33.111  21.034 -22.094  0.00  0.00    -0.043 SA
BRANCH  10  11
ATOM     11  C   UNL d   1      32.736  21.390 -21.447  0.00  0.00     0.233 A 
ATOM     12  N   UNL d   1      33.089  21.878 -20.888  0.00  0.00    -0.029 NA
ATOM     13  C   UNL d   1      32.515  22.108 -20.344  0.00  0.00     0.788 A 
ATOM     14  N   UNL d   1      31.808  21.761 -20.569  0.00  0.00     0.050 NA
ATOM     15  N   UNL d   1      32.640  22.600 -19.693  0.00  0.00     0.064 N 
ATOM     16  N   UNL d   1      31.934  21.318 -21.246  0.00  0.00    -0.105 NA
ENDBRANCH  10  11
ENDBRANCH   9  10
ENDBRANCH   7   9
ENDBRANCH   1   7
BRANCH   4  17
ATOM     17  O   UNL d   1      32.707  16.841 -23.927  0.00  0.00    -0.307 OA
BRANCH  17  18
ATOM     18  C   UNL d   1      31.953  16.508 -24.003  0.00  0.00     0.100 A 
ATOM     19  C   UNL d   1      31.550  16.555 -24.712  0.00  0.00     0.025 A 
ATOM     20  C   UNL d   1      30.806  16.226 -24.785  0.00  0.00     0.002 A 
ATOM     21  C   UNL d   1      30.455  15.843 -24.140  0.00  0.00     0.000 A 
ATOM     22  C   UNL d   1      30.860  15.794 -23.421  0.00  0.00     0.002 A 
ATOM     23  C   UNL d   1      31.612  16.127 -23.349  0.00  0.00     0.025 A 
ENDBRANCH  17  18
ENDBRANCH   4  17
TORSDOF 6
ENDMDL
MODEL 2
REMARK VINA RESULT:      -2.7      3.391      5.302
REMARK  6 active torsions:
REMARK  status: ('A' for Active; 'I' for Inactive)
REMARK    1  A    between atoms: S_6  and  C_2 
REMARK    2  A    between atoms: C_9  and  S_6 
REMARK    3  A    between atoms: C_7  and  C_9 
REMARK    4  A    between atoms: C_8  and  C_7 
REMARK    5  A    between atoms: O_12  and  C_15 
REMARK    6  A    between atoms: C_18  and  O_12 
ROOT
ATOM      1  C   UNL d   1      32.013  17.382 -23.932  0.00  0.00     0.040 A 
ATOM      2  C   UNL d   1      32.686  17.375 -23.462  0.00  0.00     0.005 A 
ATOM      3  C   UNL d   1      31.726  18.112 -24.232  0.00  0.00     0.005 A 
ATOM      4  C   UNL d   1      32.801  18.796 -23.577  0.00  0.00     0.100 A 
ATOM      5  C   UNL d   1      33.080  18.074 -23.283  0.00  0.00     0.025 A 
ATOM      6  C   UNL d   1      32.123  18.809 -24.051  0.00  0.00     0.025 A 
ENDROOT
BRANCH   1   7
ATOM      7  C   UNL d   1      31.621  16.687 -24.110  0.00  0.00     0.202 C 
ATOM      8  O   UNL d   1      32.032  16.070 -24.482  0.00  0.00    -0.286 OA
BRANCH   7   9
ATOM      9  C   UNL d   1      30.822  16.601 -23.922  0.00  0.00     0.080 C 
BRANCH   9  10
ATOM     10  S   UNL d   1      30.504  15.841 -23.817  0.00  0.00    -0.043 SA
BRANCH  10  11
ATOM     11  C   UNL d   1      29.688  15.745 -23.705  0.00  0.00     0.233 A 
ATOM     12  N   UNL d   1      29.125  15.638 -24.294  0.00  0.00    -0.029 NA
ATOM     13  C   UNL d   1      28.386  15.567 -23.938  0.00  0.00     0.788 A 
ATOM     14  N   UNL d   1      28.495  15.631 -23.129  0.00  0.00     0.050 NA
ATOM     15  N   UNL d   1      27.672  15.453 -24.334  0.00  0.00     0.064 N 
ATOM     16  N   UNL d   1      29.292  15.741 -22.976  0.00  0.00    -0.105 NA
ENDBRANCH  10  11
ENDBRANCH   9  10
ENDBRANCH   7   9
ENDBRANCH   1   7
BRANCH   4  17
ATOM     17  O   UNL d   1      33.190  19.500 -23.402  0.00  0.00    -0.307 OA
BRANCH  17  18
ATOM     18  C   UNL d   1      33.031  19.893 -22.692  0.00  0.00     0.100 A 
ATOM     19  C   UNL d   1      33.224  19.549 -21.976  0.00  0.00     0.025 A 
ATOM     20  C   UNL d   1      33.066  19.939 -21.276  0.00  0.00     0.002 A 
ATOM     21  C   UNL d   1      32.708  20.686 -21.287  0.00  0.00     0.000 A 
ATOM     22  C   UNL d   1      32.512  21.037 -22.009  0.00  0.00     0.002 A 
ATOM     23  C   UNL d   1      32.672  20.641 -22.716  0.00  0.00     0.025 A 
ENDBRANCH  17  18
ENDBRANCH   4  17
TORSDOF 6
ENDMDL
MODEL 3
REMARK VINA RESULT:      -2.2      1.397      2.231
REMARK  6 active torsions:
REMARK  status: ('A' for Active; 'I' for Inactive)
REMARK    1  A    between atoms: S_6  and  C_2 
REMARK    2  A    between atoms: C_9  and  S_6 
REMARK    3  A    between atoms: C_7  and  C_9 
REMARK    4  A    between atoms: C_8  and  C_7 
REMARK    5  A    between atoms: O_12  and  C_15 
REMARK    6  A    between atoms: C_18  and  O_12 
ROOT
ATOM      1  C   UNL d   1      32.963  21.045 -22.224  0.00  0.00     0.040 A 
ATOM      2  C   UNL d   1      32.885  20.423 -21.695  0.00  0.00     0.005 A 
ATOM      3  C   UNL d   1      33.137  20.882 -23.030  0.00  0.00     0.005 A 
ATOM      4  C   UNL d   1      33.146  19.480 -22.738  0.00  0.00     0.100 A 
ATOM      5  C   UNL d   1      32.975  19.644 -21.945  0.00  0.00     0.025 A 
ATOM      6  C   UNL d   1      33.226  20.103 -23.276  0.00  0.00     0.025 A 
ENDROOT
BRANCH   1   7
ATOM      7  C   UNL d   1      32.874  21.818 -21.977  0.00  0.00     0.202 C 
ATOM      8  O   UNL d   1      32.955  22.435 -22.526  0.00  0.00    -0.286 OA
BRANCH   7   9
ATOM      9  C   UNL d   1      32.706  21.984 -21.186  0.00  0.00     0.080 C 
BRANCH   9  10
ATOM     10  S   UNL d   1      32.456  22.747 -20.970  0.00  0.00    -0.043 SA
BRANCH  10  11
ATOM     11  C   UNL d   1      32.621  23.037 -20.212  0.00  0.00     0.233 A 
ATOM     12  N   UNL d   1      32.211  22.859 -19.522  0.00  0.00    -0.029 NA
ATOM     13  C   UNL d   1      32.560  23.268 -18.898  0.00  0.00     0.788 A 
ATOM     14  N   UNL d   1      33.186  23.697 -19.205  0.00  0.00     0.050 NA
ATOM     15  N   UNL d   1      32.316  23.241 -18.111  0.00  0.00     0.064 N 
ATOM     16  N   UNL d   1      33.232  23.562 -20.012  0.00  0.00    -0.105 NA
ENDBRANCH  10  11
ENDBRANCH   9  10
ENDBRANCH   7   9
ENDBRANCH   1   7
BRANCH   4  17
ATOM     17  O   UNL d   1      33.237  18.703 -22.996  0.00  0.00    -0.307 OA
BRANCH  17  18
ATOM     18  C   UNL d   1      32.678  18.370 -23.506  0.00  0.00     0.100 A 
ATOM     19  C   UNL d   1      32.113  17.854 -23.221  0.00  0.00     0.025 A 
ATOM     20  C   UNL d   1      31.562  17.526 -23.727  0.00  0.00     0.002 A 
ATOM     21  C   UNL d   1      31.572  17.715 -24.533  0.00  0.00     0.000 A 
ATOM     22  C   UNL d   1      32.142  18.238 -24.825  0.00  0.00     0.002 A 
ATOM     23  C   UNL d   1      32.699  18.568 -24.312  0.00  0.00     0.025 A 
ENDBRANCH  17  18
ENDBRANCH   4  17
TORSDOF 6
ENDMDL
MODEL 4
REMARK VINA RESULT:      -1.3      2.590      5.491
REMARK  6 active torsions:
REMARK  status: ('A' for Active; 'I' for Inactive)
REMARK    1  A    between atoms: S_6  and  C_2 
REMARK    2  A    between atoms: C_9  and  S_6 
REMARK    3  A    between atoms: C_7  and  C_9 
REMARK    4  A    between atoms: C_8  and  C_7 
REMARK    5  A    between atoms: O_12  and  C_15 
REMARK    6  A    between atoms: C_18  and  O_12 
ROOT
ATOM      1  C   UNL d   1      33.031  20.349 -22.467  0.00  0.00     0.040 A 
ATOM      2  C   UNL d   1      32.961  20.065 -21.701  0.00  0.00     0.005 A 
ATOM      3  C   UNL d   1      33.173  21.168 -22.592  0.00  0.00     0.005 A 
ATOM      4  C   UNL d   1      33.170  21.378 -21.175  0.00  0.00     0.100 A 
ATOM      5  C   UNL d   1      33.029  20.571 -21.057  0.00  0.00     0.025 A 
ATOM      6  C   UNL d   1      33.241  21.671 -21.946  0.00  0.00     0.025 A 
ENDROOT
BRANCH   1   7
ATOM      7  C   UNL d   1      32.963  19.846 -23.108  0.00  0.00     0.202 C 
ATOM      8  O   UNL d   1      32.903  20.164 -23.872  0.00  0.00    -0.286 OA
BRANCH   7   9
ATOM      9  C   UNL d   1      32.955  19.029 -22.995  0.00  0.00     0.080 C 
BRANCH   9  10
ATOM     10  S   UNL d   1      32.720  18.530 -23.616  0.00  0.00    -0.043 SA
BRANCH  10  11
ATOM     11  C   UNL d   1      32.568  17.729 -23.470  0.00  0.00     0.233 A 
ATOM     12  N   UNL d   1      31.844  17.348 -23.551  0.00  0.00    -0.029 NA
ATOM     13  C   UNL d   1      31.942  16.556 -23.348  0.00  0.00     0.788 A 
ATOM     14  N   UNL d   1      32.727  16.450 -23.141  0.00  0.00     0.050 NA
ATOM     15  N   UNL d   1      31.350  15.982 -23.355  0.00  0.00     0.064 N 
ATOM     16  N   UNL d   1      33.120  17.165 -23.213  0.00  0.00    -0.105 NA
ENDBRANCH  10  11
ENDBRANCH   9  10
ENDBRANCH   7   9
ENDBRANCH   1   7
BRANCH   4  17
ATOM     17  O   UNL d   1      33.239  21.891 -20.536  0.00  0.00    -0.307 OA
BRANCH  17  18
ATOM     18  C   UNL d   1      32.687  22.499 -20.433  0.00  0.00     0.100 A 
ATOM     19  C   UNL d   1      32.514  23.008 -21.048  0.00  0.00     0.025 A 
ATOM     20  C   UNL d   1      31.969  23.608 -20.944  0.00  0.00     0.002 A 
ATOM     21  C   UNL d   1      31.587  23.702 -20.215  0.00  0.00     0.000 A 
ATOM     22  C   UNL d   1      31.760  23.188 -19.592  0.00  0.00     0.002 A 
ATOM     23  C   UNL d   1      32.311  22.583 -19.698  0.00  0.00     0.025 A 
ENDBRANCH  17  18
ENDBRANCH   4  17
TORSDOF 6
ENDMDL
