MODEL 1
REMARK VINA RESULT:      17.2      0.000      0.000
REMARK  1 active torsions:
REMARK  status: ('A' for Active; 'I' for Inactive)
REMARK    1  A    between atoms: C_6  and  C_1 
ROOT
ATOM      1  C   UNL d   1     -54.856-102.192 -38.649  0.00  0.00     0.162 A 
ATOM      2  N   UNL d   1     -54.855-102.792 -39.168  0.00  0.00    -0.225 NA
ATOM      3  N   UNL d   1     -54.808-101.486 -39.082  0.00  0.00    -0.225 NA
ATOM      4  C   UNL d   1     -54.809-102.501 -39.932  0.00  0.00     0.101 A 
ATOM      5  C   UNL d   1     -54.779-101.677 -39.877  0.00  0.00     0.101 A 
ATOM      6  C   UNL d   1     -54.791-102.878 -40.634  0.00  0.00     0.021 A 
ATOM      7  C   UNL d   1     -54.732-101.244 -40.526  0.00  0.00     0.021 A 
ATOM      8  C   UNL d   1     -54.741-102.411 -41.324  0.00  0.00     0.002 A 
ATOM      9  C   UNL d   1     -54.712-101.588 -41.270  0.00  0.00     0.002 A 
ENDROOT
BRANCH   1  10
ATOM     10  C   UNL d   1     -54.891-102.186 -37.878  0.00  0.00     0.036 A 
ATOM     11  C   UNL d   1     -55.105-102.872 -37.474  0.00  0.00     0.005 A 
ATOM     12  C   UNL d   1     -55.142-102.861 -36.635  0.00  0.00     0.021 A 
ATOM     13  C   UNL d   1     -54.955-102.135 -36.239  0.00  0.00     0.103 A 
ATOM     14  C   UNL d   1     -54.750-101.478 -36.640  0.00  0.00     0.021 A 
ATOM     15  N   UNL d   1     -54.977-102.070 -35.404  0.00  0.00    -0.148 N 
ATOM     16  C   UNL d   1     -54.713-101.490 -37.479  0.00  0.00     0.005 A 
ENDBRANCH   1  10
TORSDOF 1
ENDMDL
