MODEL 1
REMARK VINA RESULT:      44.9      0.000      0.000
REMARK  5 active torsions:
REMARK  status: ('A' for Active; 'I' for Inactive)
REMARK    1  A    between atoms: N_5  and  C_1 
REMARK       I    between atoms: C_9  and  N_5 
REMARK    2  A    between atoms: C_17  and  C_9 
REMARK    3  A    between atoms: C_12  and  C_10 
REMARK    4  A    between atoms: C_11  and  S_13 
REMARK    5  A    between atoms: S_13  and  C_17 
ROOT
ATOM      1  N   UNL d   1      58.994  49.707  50.093  0.00  0.00    -0.148 NA
ATOM      2  N   UNL d   1      59.807  49.699  50.231  0.00  0.00    -0.141 NA
ATOM      3  C   UNL d   1      58.464  49.677  50.730  0.00  0.00     0.104 A 
ATOM      4  C   UNL d   1      60.100  49.661  50.995  0.00  0.00     0.133 A 
ATOM      5  C   UNL d   1      58.757  49.639  51.502  0.00  0.00     0.023 A 
ATOM      6  C   UNL d   1      59.569  49.631  51.637  0.00  0.00     0.029 A 
ENDROOT
BRANCH   4   7
ATOM      7  S   UNL d   1      60.913  49.653  51.133  0.00  0.00    -0.061 SA
BRANCH   7   8
ATOM      8  C   UNL d   1      61.292  48.956  51.345  0.00  0.00     0.099 C 
BRANCH   8   9
ATOM      9  C   UNL d   1      61.402  48.363  50.779  0.00  0.00     0.288 C 
ATOM     10  N   UNL d   1      61.369  47.572  51.004  0.00  0.00    -0.181 NA
ATOM     11  O   UNL d   1      61.543  48.562  49.995  0.00  0.00    -0.265 OA
BRANCH  10  12
ATOM     12  C   UNL d   1      61.478  46.983  50.447  0.00  0.00     0.219 A 
ATOM     13  S   UNL d   1      61.381  46.169  50.572  0.00  0.00    -0.026 SA
ATOM     14  C   UNL d   1      61.545  45.786  49.871  0.00  0.00     0.135 A 
ATOM     15  C   UNL d   1      61.517  44.969  49.746  0.00  0.00     0.030 C 
ATOM     16  N   UNL d   1      61.743  46.354  49.309  0.00  0.00    -0.139 NA
ATOM     17  N   UNL d   1      61.702  47.096  49.664  0.00  0.00    -0.121 NA
ENDBRANCH  10  12
ENDBRANCH   8   9
ENDBRANCH   7   8
ENDBRANCH   4   7
BRANCH   3  18
ATOM     18  C   UNL d   1      57.651  49.685  50.592  0.00  0.00     0.039 A 
ATOM     19  C   UNL d   1      57.372  49.679  49.827  0.00  0.00     0.101 A 
ATOM     20  N   UNL d   1      56.566  49.687  49.685  0.00  0.00    -0.242 NA
ATOM     21  C   UNL d   1      56.034  49.701  50.325  0.00  0.00     0.099 A 
ATOM     22  C   UNL d   1      56.319  49.708  51.092  0.00  0.00     0.021 A 
ATOM     23  C   UNL d   1      57.131  49.700  51.240  0.00  0.00     0.005 A 
ENDBRANCH   3  18
TORSDOF 5
ENDMDL
