MODEL 1
REMARK VINA RESULT:     113.8      0.000      0.000
REMARK  6 active torsions:
REMARK  status: ('A' for Active; 'I' for Inactive)
REMARK    1  A    between atoms: C_12  and  N_3 
REMARK    2  A    between atoms: C_8  and  C_4 
REMARK    3  A    between atoms: O_23  and  C_11 
REMARK    4  A    between atoms: C_19  and  C_12 
REMARK    5  A    between atoms: N_13  and  C_19 
REMARK    6  A    between atoms: O_26  and  C_17 
ROOT
ATOM      1  C   UNL d   1     -49.131  28.786  34.219  0.00  0.00     0.083 A 
ATOM      2  C   UNL d   1     -49.768  29.111  33.807  0.00  0.00     0.161 A 
ATOM      3  N   UNL d   1     -48.962  30.099  34.194  0.00  0.00    -0.270 N 
ATOM      4  C   UNL d   1     -48.642  29.395  34.453  0.00  0.00     0.074 A 
ATOM      5  C   UNL d   1     -49.663  29.931  33.792  0.00  0.00     0.288 A 
ATOM      6  C   UNL d   1     -49.082  27.971  34.326  0.00  0.00     0.201 A 
ATOM      7  O   UNL d   1     -50.356  28.622  33.503  0.00  0.00    -0.302 OA
ATOM      8  C   UNL d   1     -49.671  27.482  34.021  0.00  0.00     0.064 A 
ATOM      9  C   UNL d   1     -50.308  27.807  33.610  0.00  0.00     0.103 A 
ATOM     10  O   UNL d   1     -50.170  30.476  33.437  0.00  0.00    -0.264 OA
ATOM     11  O   UNL d   1     -48.445  27.645  34.737  0.00  0.00    -0.286 OA
ATOM     12  C   UNL d   1     -49.618  26.674  34.129  0.00  0.00     0.035 A 
ATOM     13  C   UNL d   1     -50.895  27.318  33.306  0.00  0.00     0.027 A 
ATOM     14  C   UNL d   1     -50.210  26.177  33.824  0.00  0.00     0.140 A 
ATOM     15  C   UNL d   1     -50.844  26.511  33.414  0.00  0.00     0.032 A 
ATOM     16  F   UNL d   1     -50.161  25.363  33.931  0.00  0.00    -0.204 F 
ENDROOT
BRANCH   4  17
ATOM     17  C   UNL d   1     -47.936  29.320  34.881  0.00  0.00     0.041 A 
ATOM     18  C   UNL d   1     -47.910  29.521  35.679  0.00  0.00     0.118 A 
ATOM     19  C   UNL d   1     -47.207  29.445  36.099  0.00  0.00     0.116 A 
ATOM     20  C   UNL d   1     -46.526  29.166  35.722  0.00  0.00     0.026 A 
ATOM     21  C   UNL d   1     -46.552  28.964  34.921  0.00  0.00     0.002 A 
ATOM     22  C   UNL d   1     -47.259  29.041  34.500  0.00  0.00     0.004 A 
BRANCH  18  23
ATOM     23  O   UNL d   1     -48.589  29.798  36.052  0.00  0.00    -0.326 OA
ATOM     24  C   UNL d   1     -48.693  29.577  36.846  0.00  0.00     0.181 C 
ENDBRANCH  18  23
BRANCH  19  25
ATOM     25  O   UNL d   1     -47.182  29.647  36.901  0.00  0.00    -0.326 OA
ATOM     26  C   UNL d   1     -46.476  29.899  37.240  0.00  0.00     0.181 C 
ENDBRANCH  19  25
ENDBRANCH   4  17
BRANCH   3  27
ATOM     27  C   UNL d   1     -48.650  30.854  34.308  0.00  0.00     0.102 C 
BRANCH  27  28
ATOM     28  C   UNL d   1     -48.684  31.419  33.705  0.00  0.00     0.100 C 
BRANCH  28  29
ATOM     29  N   UNL d   1     -48.289  32.139  33.787  0.00  0.00    -0.298 N 
ATOM     30  C   UNL d   1     -47.551  32.162  34.153  0.00  0.00     0.107 A 
ATOM     31  C   UNL d   1     -47.158  32.873  34.236  0.00  0.00     0.142 A 
ATOM     32  O   UNL d   1     -47.504  33.572  33.949  0.00  0.00    -0.300 OA
ATOM     33  C   UNL d   1     -48.241  33.549  33.583  0.00  0.00     0.142 A 
ATOM     34  C   UNL d   1     -48.639  32.831  33.500  0.00  0.00     0.107 A 
ENDBRANCH  28  29
ENDBRANCH  27  28
ENDBRANCH   3  27
TORSDOF 6
ENDMDL
