MODEL 1
REMARK VINA RESULT:      -2.4      0.000      0.000
REMARK  1 active torsions:
REMARK  status: ('A' for Active; 'I' for Inactive)
REMARK    1  A    between atoms: C_6  and  C_2 
ROOT
ATOM      1  S   UNL d   1      32.892  21.072 -21.763  0.00  0.00    -0.024 SA
ATOM      2  C   UNL d   1      32.920  21.363 -20.997  0.00  0.00     0.135 A 
ATOM      3  N   UNL d   1      33.135  20.750 -20.490  0.00  0.00    -0.139 NA
ATOM      4  C   UNL d   1      33.092  20.273 -21.728  0.00  0.00     0.236 A 
ATOM      5  N   UNL d   1      33.241  20.073 -20.952  0.00  0.00    -0.119 NA
ATOM      6  N   UNL d   1      33.133  19.763 -22.376  0.00  0.00    -0.118 N 
ENDROOT
BRANCH   2   7
ATOM      7  C   UNL d   1      32.759  22.139 -20.770  0.00  0.00     0.029 A 
ATOM      8  C   UNL d   1      32.123  22.546 -21.087  0.00  0.00     0.023 A 
ATOM      9  C   UNL d   1      31.962  23.325 -20.860  0.00  0.00     0.099 A 
ATOM     10  N   UNL d   1      32.436  23.702 -20.314  0.00  0.00    -0.242 NA
ATOM     11  C   UNL d   1      33.077  23.302 -19.989  0.00  0.00     0.099 A 
ATOM     12  C   UNL d   1      33.238  22.522 -20.217  0.00  0.00     0.023 A 
ENDBRANCH   2   7
TORSDOF 1
ENDMDL
MODEL 2
REMARK VINA RESULT:      -2.3      6.321      7.147
REMARK  1 active torsions:
REMARK  status: ('A' for Active; 'I' for Inactive)
REMARK    1  A    between atoms: C_6  and  C_2 
ROOT
ATOM      1  S   UNL d   1      29.539  16.147 -23.867  0.00  0.00    -0.024 SA
ATOM      2  C   UNL d   1      30.228  15.875 -23.516  0.00  0.00     0.135 A 
ATOM      3  N   UNL d   1      30.031  15.472 -22.826  0.00  0.00    -0.139 NA
ATOM      4  C   UNL d   1      28.911  15.910 -23.389  0.00  0.00     0.236 A 
ATOM      5  N   UNL d   1      29.207  15.497 -22.752  0.00  0.00    -0.119 NA
ATOM      6  N   UNL d   1      28.114  16.067 -23.535  0.00  0.00    -0.118 N 
ENDROOT
BRANCH   2   7
ATOM      7  C   UNL d   1      30.992  15.986 -23.805  0.00  0.00     0.029 A 
ATOM      8  C   UNL d   1      31.323  15.453 -24.331  0.00  0.00     0.023 A 
ATOM      9  C   UNL d   1      32.091  15.564 -24.621  0.00  0.00     0.099 A 
ATOM     10  N   UNL d   1      32.530  16.209 -24.386  0.00  0.00    -0.242 NA
ATOM     11  C   UNL d   1      32.207  16.750 -23.858  0.00  0.00     0.099 A 
ATOM     12  C   UNL d   1      31.440  16.639 -23.568  0.00  0.00     0.023 A 
ENDBRANCH   2   7
TORSDOF 1
ENDMDL
MODEL 3
REMARK VINA RESULT:      -2.3      6.546      7.046
REMARK  1 active torsions:
REMARK  status: ('A' for Active; 'I' for Inactive)
REMARK    1  A    between atoms: C_6  and  C_2 
ROOT
ATOM      1  S   UNL d   1      31.346  16.322 -23.604  0.00  0.00    -0.024 SA
ATOM      2  C   UNL d   1      30.715  16.006 -24.022  0.00  0.00     0.135 A 
ATOM      3  N   UNL d   1      31.007  15.470 -24.575  0.00  0.00    -0.139 NA
ATOM      4  C   UNL d   1      32.033  15.978 -23.903  0.00  0.00     0.236 A 
ATOM      5  N   UNL d   1      31.830  15.457 -24.496  0.00  0.00    -0.119 NA
ATOM      6  N   UNL d   1      32.799  16.138 -23.641  0.00  0.00    -0.118 N 
ENDROOT
BRANCH   2   7
ATOM      7  C   UNL d   1      29.920  16.192 -23.908  0.00  0.00     0.029 A 
ATOM      8  C   UNL d   1      29.458  15.759 -23.388  0.00  0.00     0.023 A 
ATOM      9  C   UNL d   1      28.659  15.947 -23.274  0.00  0.00     0.099 A 
ATOM     10  N   UNL d   1      28.320  16.567 -23.678  0.00  0.00    -0.242 NA
ATOM     11  C   UNL d   1      28.775  17.009 -24.202  0.00  0.00     0.099 A 
ATOM     12  C   UNL d   1      29.574  16.821 -24.316  0.00  0.00     0.023 A 
ENDBRANCH   2   7
TORSDOF 1
ENDMDL
MODEL 4
REMARK VINA RESULT:      -2.2      4.390      5.529
REMARK  1 active torsions:
REMARK  status: ('A' for Active; 'I' for Inactive)
REMARK    1  A    between atoms: C_6  and  C_2 
ROOT
ATOM      1  S   UNL d   1      31.141  16.662 -23.667  0.00  0.00    -0.024 SA
ATOM      2  C   UNL d   1      31.942  16.831 -23.644  0.00  0.00     0.135 A 
ATOM      3  N   UNL d   1      32.352  16.143 -23.450  0.00  0.00    -0.139 NA
ATOM      4  C   UNL d   1      31.055  15.862 -23.485  0.00  0.00     0.236 A 
ATOM      5  N   UNL d   1      31.792  15.542 -23.352  0.00  0.00    -0.119 NA
ATOM      6  N   UNL d   1      30.337  15.456 -23.446  0.00  0.00    -0.118 N 
ENDROOT
BRANCH   2   7
ATOM      7  C   UNL d   1      32.284  17.567 -23.790  0.00  0.00     0.029 A 
ATOM      8  C   UNL d   1      32.315  17.872 -24.550  0.00  0.00     0.023 A 
ATOM      9  C   UNL d   1      32.658  18.611 -24.697  0.00  0.00     0.099 A 
ATOM     10  N   UNL d   1      32.971  19.049 -24.085  0.00  0.00    -0.242 NA
ATOM     11  C   UNL d   1      32.944  18.752 -23.319  0.00  0.00     0.099 A 
ATOM     12  C   UNL d   1      32.602  18.013 -23.171  0.00  0.00     0.023 A 
ENDBRANCH   2   7
TORSDOF 1
ENDMDL
MODEL 5
REMARK VINA RESULT:      -2.1      4.585      5.924
REMARK  1 active torsions:
REMARK  status: ('A' for Active; 'I' for Inactive)
REMARK    1  A    between atoms: C_6  and  C_2 
ROOT
ATOM      1  S   UNL d   1      32.492  18.093 -24.522  0.00  0.00    -0.024 SA
ATOM      2  C   UNL d   1      32.270  17.735 -23.819  0.00  0.00     0.135 A 
ATOM      3  N   UNL d   1      32.505  18.215 -23.193  0.00  0.00    -0.139 NA
ATOM      4  C   UNL d   1      32.867  18.801 -24.328  0.00  0.00     0.236 A 
ATOM      5  N   UNL d   1      32.877  18.880 -23.517  0.00  0.00    -0.119 NA
ATOM      6  N   UNL d   1      33.180  19.339 -24.870  0.00  0.00    -0.118 N 
ENDROOT
BRANCH   2   7
ATOM      7  C   UNL d   1      31.877  17.014 -23.749  0.00  0.00     0.029 A 
ATOM      8  C   UNL d   1      32.281  16.335 -23.534  0.00  0.00     0.023 A 
ATOM      9  C   UNL d   1      31.887  15.610 -23.463  0.00  0.00     0.099 A 
ATOM     10  N   UNL d   1      31.086  15.561 -23.608  0.00  0.00    -0.242 NA
ATOM     11  C   UNL d   1      30.671  16.237 -23.825  0.00  0.00     0.099 A 
ATOM     12  C   UNL d   1      31.065  16.962 -23.895  0.00  0.00     0.023 A 
ENDBRANCH   2   7
TORSDOF 1
ENDMDL
