MODEL 1
REMARK VINA RESULT:      32.7      0.000      0.000
REMARK  4 active torsions:
REMARK  status: ('A' for Active; 'I' for Inactive)
REMARK       I    between atoms: C_3  and  N_1 
REMARK    1  A    between atoms: C_7  and  C_3 
REMARK    2  A    between atoms: C_9  and  C_4 
REMARK    3  A    between atoms: C_12  and  C_5 
REMARK    4  A    between atoms: O_20  and  C_17 
ROOT
ATOM      1  N   UNL d   1      44.996 -16.041  44.262  0.00  0.00    -0.194 N 
ATOM      2  N   UNL d   1      44.997 -16.851  44.151  0.00  0.00    -0.163 NA
ATOM      3  C   UNL d   1      44.351 -15.579  44.559  0.00  0.00     0.286 C 
ATOM      4  C   UNL d   1      45.736 -15.758  44.033  0.00  0.00     0.088 A 
ATOM      5  C   UNL d   1      45.725 -17.079  43.856  0.00  0.00     0.103 A 
ATOM      6  C   UNL d   1      46.180 -16.398  43.785  0.00  0.00     0.040 A 
ATOM      7  O   UNL d   1      43.654 -15.972  44.757  0.00  0.00    -0.265 OA
ENDROOT
BRANCH   4   8
ATOM      8  C   UNL d   1      45.914 -14.943  44.080  0.00  0.00     0.018 A 
ATOM      9  C   UNL d   1      46.180 -14.602  44.800  0.00  0.00     0.004 A 
ATOM     10  C   UNL d   1      46.352 -13.795  44.828  0.00  0.00     0.024 A 
ATOM     11  C   UNL d   1      46.268 -13.311  44.157  0.00  0.00     0.094 A 
ATOM     12  C   UNL d   1      46.002 -13.652  43.436  0.00  0.00     0.024 A 
ATOM     13  C   UNL d   1      45.828 -14.467  43.408  0.00  0.00     0.004 A 
BRANCH  11  14
ATOM     14  O   UNL d   1      46.446 -12.496  44.202  0.00  0.00    -0.328 OA
ATOM     15  C   UNL d   1      46.636 -12.158  44.947  0.00  0.00     0.181 C 
ENDBRANCH  11  14
ENDBRANCH   4   8
BRANCH   3  16
ATOM     16  C   UNL d   1      44.412 -14.770  44.647  0.00  0.00     0.087 A 
ATOM     17  S   UNL d   1      45.022 -14.265  44.919  0.00  0.00    -0.082 SA
ATOM     18  C   UNL d   1      44.751 -13.499  44.878  0.00  0.00     0.036 A 
ATOM     19  C   UNL d   1      43.987 -13.500  44.587  0.00  0.00     0.008 A 
ATOM     20  C   UNL d   1      43.776 -14.273  44.444  0.00  0.00     0.012 A 
ENDBRANCH   3  16
BRANCH   5  21
ATOM     21  C   UNL d   1      46.028 -17.816  43.646  0.00  0.00     0.019 A 
ATOM     22  C   UNL d   1      46.287 -17.940  42.869  0.00  0.00     0.002 A 
ATOM     23  C   UNL d   1      46.588 -18.675  42.665  0.00  0.00     0.000 A 
ATOM     24  C   UNL d   1      46.634 -19.284  43.215  0.00  0.00     0.000 A 
ATOM     25  C   UNL d   1      46.374 -19.160  43.993  0.00  0.00     0.000 A 
ATOM     26  C   UNL d   1      46.072 -18.421  44.199  0.00  0.00     0.002 A 
ENDBRANCH   5  21
TORSDOF 4
ENDMDL
