MODEL 1
REMARK VINA RESULT:      80.4      0.000      0.000
REMARK  5 active torsions:
REMARK  status: ('A' for Active; 'I' for Inactive)
REMARK    1  A    between atoms: N_2  and  S_1 
REMARK    2  A    between atoms: C_4  and  S_1 
REMARK    3  A    between atoms: C_3  and  C_8 
REMARK       I    between atoms: N_7  and  C_3 
REMARK    4  A    between atoms: C_16  and  N_7 
REMARK    5  A    between atoms: C_15  and  C_16 
ROOT
ATOM      1  C   UNL d   1     -55.235-100.851 -42.981  0.00  0.00     0.104 A 
ATOM      2  C   UNL d   1     -55.038-101.657 -41.558  0.00  0.00     0.058 A 
ATOM      3  C   UNL d   1     -54.954-101.627 -42.981  0.00  0.00     0.013 A 
ATOM      4  C   UNL d   1     -55.418-100.480 -42.252  0.00  0.00     0.013 A 
ATOM      5  C   UNL d   1     -54.852-102.037 -42.283  0.00  0.00     0.005 A 
ATOM      6  C   UNL d   1     -55.314-100.898 -41.539  0.00  0.00     0.005 A 
ENDROOT
BRANCH   2   7
ATOM      7  C   UNL d   1     -54.936-102.075 -40.817  0.00  0.00     0.279 C 
ATOM      8  N   UNL d   1     -54.903-101.630 -40.115  0.00  0.00    -0.206 NA
ATOM      9  O   UNL d   1     -54.875-102.880 -40.814  0.00  0.00    -0.265 OA
BRANCH   8  10
ATOM     10  C   UNL d   1     -54.806-102.020 -39.406  0.00  0.00     0.104 C 
BRANCH  10  11
ATOM     11  C   UNL d   1     -54.959-101.630 -38.711  0.00  0.00     0.038 A 
ATOM     12  C   UNL d   1     -55.216-100.838 -38.715  0.00  0.00     0.101 A 
ATOM     13  N   UNL d   1     -55.369-100.448 -38.020  0.00  0.00    -0.242 NA
ATOM     14  C   UNL d   1     -55.269-100.836 -37.297  0.00  0.00     0.099 A 
ATOM     15  C   UNL d   1     -55.017-101.615 -37.282  0.00  0.00     0.021 A 
ATOM     16  C   UNL d   1     -54.860-102.012 -38.003  0.00  0.00     0.005 A 
ENDBRANCH  10  11
ENDBRANCH   8  10
ENDBRANCH   2   7
BRANCH   1  17
ATOM     17  S   UNL d   1     -55.339-100.433 -43.694  0.00  0.00     0.271 S 
ATOM     18  O   UNL d   1     -55.206-101.131 -44.127  0.00  0.00    -0.200 OA
ATOM     19  O   UNL d   1     -55.475 -99.716 -43.250  0.00  0.00    -0.200 OA
BRANCH  17  20
ATOM     20  N   UNL d   1     -55.443-100.010 -44.408  0.00  0.00    -0.229 N 
ATOM     21  C   UNL d   1     -54.794 -99.643 -44.754  0.00  0.00     0.092 A 
ATOM     22  C   UNL d   1     -54.898 -99.231 -45.450  0.00  0.00     0.020 A 
ATOM     23  C   UNL d   1     -55.665 -99.194 -45.793  0.00  0.00     0.003 A 
ATOM     24  C   UNL d   1     -56.297 -99.561 -45.442  0.00  0.00     0.020 A 
ATOM     25  C   UNL d   1     -56.184 -99.971 -44.745  0.00  0.00     0.092 A 
ENDBRANCH  17  20
ENDBRANCH   1  17
TORSDOF 5
ENDMDL
