MODEL 1
REMARK VINA RESULT:      -9.9      0.000      0.000
REMARK  3 active torsions:
REMARK  status: ('A' for Active; 'I' for Inactive)
REMARK    1  A    between atoms: C_6  and  C_1 
REMARK    2  A    between atoms: C_8  and  C_3 
REMARK    3  A    between atoms: C_9  and  C_4 
ROOT
ATOM      1  C   UNL d   1     -46.822  13.588  22.790  0.00  0.00     0.306 A 
ATOM      2  N   UNL d   1     -46.258  13.077  23.093  0.00  0.00    -0.152 NA
ATOM      3  C   UNL d   1     -47.617  13.367  22.781  0.00  0.00     0.114 A 
ATOM      4  C   UNL d   1     -47.852  12.635  23.076  0.00  0.00     0.094 A 
ATOM      5  C   UNL d   1     -46.485  12.347  23.388  0.00  0.00     0.371 A 
ATOM      6  N   UNL d   1     -47.280  12.126  23.379  0.00  0.00    -0.191 NA
ATOM      7  O   UNL d   1     -45.918  11.828  23.695  0.00  0.00    -0.242 OA
ATOM      8  O   UNL d   1     -47.392  14.101  22.485  0.00  0.00    -0.266 OA
ENDROOT
BRANCH   4   9
ATOM      9  C   UNL d   1     -48.644  12.416  23.067  0.00  0.00     0.018 A 
ATOM     10  C   UNL d   1     -49.136  12.614  23.698  0.00  0.00     0.004 A 
ATOM     11  C   UNL d   1     -49.936  12.392  23.689  0.00  0.00     0.030 A 
ATOM     12  C   UNL d   1     -50.239  11.975  23.053  0.00  0.00     0.140 A 
ATOM     13  C   UNL d   1     -49.741  11.774  22.413  0.00  0.00     0.030 A 
ATOM     14  F   UNL d   1     -51.030  11.756  23.044  0.00  0.00    -0.204 F 
ATOM     15  C   UNL d   1     -48.951  11.997  22.430  0.00  0.00     0.004 A 
ENDBRANCH   4   9
BRANCH   3  16
ATOM     16  C   UNL d   1     -48.183  13.881  22.476  0.00  0.00     0.202 C 
ATOM     17  O   UNL d   1     -48.580  14.413  22.972  0.00  0.00    -0.286 OA
ATOM     18  C   UNL d   1     -48.360  13.870  21.666  0.00  0.00     0.045 C 
ENDBRANCH   3  16
BRANCH   1  19
ATOM     19  C   UNL d   1     -46.107  13.989  22.708  0.00  0.00     0.470 C 
ATOM     20  F   UNL d   1     -45.458  14.339  22.616  0.00  0.00    -0.162 F 
ATOM     21  F   UNL d   1     -45.509  13.894  22.092  0.00  0.00    -0.162 F 
ATOM     22  F   UNL d   1     -45.761  14.601  23.198  0.00  0.00    -0.162 F 
ENDBRANCH   1  19
TORSDOF 3
ENDMDL
MODEL 2
REMARK VINA RESULT:      -9.3      1.758      3.589
REMARK  3 active torsions:
REMARK  status: ('A' for Active; 'I' for Inactive)
REMARK    1  A    between atoms: C_6  and  C_1 
REMARK    2  A    between atoms: C_8  and  C_3 
REMARK    3  A    between atoms: C_9  and  C_4 
ROOT
ATOM      1  C   UNL d   1     -49.545  13.688  22.007  0.00  0.00     0.306 A 
ATOM      2  N   UNL d   1     -49.730  14.384  22.399  0.00  0.00    -0.152 NA
ATOM      3  C   UNL d   1     -48.822  13.316  22.144  0.00  0.00     0.114 A 
ATOM      4  C   UNL d   1     -48.279  13.638  22.674  0.00  0.00     0.094 A 
ATOM      5  C   UNL d   1     -49.195  14.709  22.927  0.00  0.00     0.371 A 
ATOM      6  N   UNL d   1     -48.471  14.337  23.064  0.00  0.00    -0.191 NA
ATOM      7  O   UNL d   1     -49.378  15.411  23.324  0.00  0.00    -0.242 OA
ATOM      8  O   UNL d   1     -49.358  12.988  21.614  0.00  0.00    -0.266 OA
ENDROOT
BRANCH   4   9
ATOM      9  C   UNL d   1     -47.559  13.268  22.810  0.00  0.00     0.018 A 
ATOM     10  C   UNL d   1     -47.500  12.670  23.376  0.00  0.00     0.004 A 
ATOM     11  C   UNL d   1     -46.773  12.296  23.514  0.00  0.00     0.030 A 
ATOM     12  C   UNL d   1     -46.109  12.519  23.088  0.00  0.00     0.140 A 
ATOM     13  C   UNL d   1     -46.168  13.124  22.515  0.00  0.00     0.030 A 
ATOM     14  F   UNL d   1     -45.390  12.149  23.224  0.00  0.00    -0.204 F 
ATOM     15  C   UNL d   1     -46.892  13.489  22.385  0.00  0.00     0.004 A 
ENDBRANCH   4   9
BRANCH   3  16
ATOM     16  C   UNL d   1     -48.638  12.618  21.750  0.00  0.00     0.202 C 
ATOM     17  O   UNL d   1     -48.230  12.635  21.028  0.00  0.00    -0.286 OA
ATOM     18  C   UNL d   1     -48.860  11.887  22.075  0.00  0.00     0.045 C 
ENDBRANCH   3  16
BRANCH   1  19
ATOM     19  C   UNL d   1     -50.297  13.892  21.735  0.00  0.00     0.470 C 
ATOM     20  F   UNL d   1     -50.982  14.063  21.505  0.00  0.00    -0.162 F 
ATOM     21  F   UNL d   1     -51.063  13.655  22.054  0.00  0.00    -0.162 F 
ATOM     22  F   UNL d   1     -50.525  14.385  21.072  0.00  0.00    -0.162 F 
ENDBRANCH   1  19
TORSDOF 3
ENDMDL
MODEL 3
REMARK VINA RESULT:      -9.0      1.223      3.564
REMARK  3 active torsions:
REMARK  status: ('A' for Active; 'I' for Inactive)
REMARK    1  A    between atoms: C_6  and  C_1 
REMARK    2  A    between atoms: C_8  and  C_3 
REMARK    3  A    between atoms: C_9  and  C_4 
ROOT
ATOM      1  C   UNL d   1     -49.513  12.976  22.839  0.00  0.00     0.306 A 
ATOM      2  N   UNL d   1     -49.613  12.236  23.175  0.00  0.00    -0.152 NA
ATOM      3  C   UNL d   1     -48.755  13.262  22.684  0.00  0.00     0.114 A 
ATOM      4  C   UNL d   1     -48.092  12.809  22.866  0.00  0.00     0.094 A 
ATOM      5  C   UNL d   1     -48.957  11.780  23.358  0.00  0.00     0.371 A 
ATOM      6  N   UNL d   1     -48.198  12.066  23.204  0.00  0.00    -0.191 NA
ATOM      7  O   UNL d   1     -49.053  11.032  23.698  0.00  0.00    -0.242 OA
ATOM      8  O   UNL d   1     -49.412  13.721  22.500  0.00  0.00    -0.266 OA
ENDROOT
BRANCH   4   9
ATOM      9  C   UNL d   1     -47.337  13.093  22.712  0.00  0.00     0.018 A 
ATOM     10  C   UNL d   1     -46.966  12.919  21.996  0.00  0.00     0.004 A 
ATOM     11  C   UNL d   1     -46.203  13.207  21.841  0.00  0.00     0.030 A 
ATOM     12  C   UNL d   1     -45.816  13.665  22.399  0.00  0.00     0.140 A 
ATOM     13  C   UNL d   1     -46.190  13.841  23.123  0.00  0.00     0.030 A 
ATOM     14  F   UNL d   1     -45.061  13.949  22.245  0.00  0.00    -0.204 F 
ATOM     15  C   UNL d   1     -46.945  13.553  23.269  0.00  0.00     0.004 A 
ENDBRANCH   4   9
BRANCH   3  16
ATOM     16  C   UNL d   1     -48.657  14.006  22.346  0.00  0.00     0.202 C 
ATOM     17  O   UNL d   1     -48.598  14.091  21.524  0.00  0.00    -0.286 OA
ATOM     18  C   UNL d   1     -48.616  14.679  22.829  0.00  0.00     0.045 C 
ENDBRANCH   3  16
BRANCH   1  19
ATOM     19  C   UNL d   1     -50.330  12.883  22.909  0.00  0.00     0.470 C 
ATOM     20  F   UNL d   1     -51.064  12.807  22.991  0.00  0.00    -0.162 F 
ATOM     21  F   UNL d   1     -50.837  13.099  23.573  0.00  0.00    -0.162 F 
ATOM     22  F   UNL d   1     -50.893  12.551  22.354  0.00  0.00    -0.162 F 
ENDBRANCH   1  19
TORSDOF 3
ENDMDL
MODEL 4
REMARK VINA RESULT:      -8.3      2.222      2.771
REMARK  3 active torsions:
REMARK  status: ('A' for Active; 'I' for Inactive)
REMARK    1  A    between atoms: C_6  and  C_1 
REMARK    2  A    between atoms: C_8  and  C_3 
REMARK    3  A    between atoms: C_9  and  C_4 
ROOT
ATOM      1  C   UNL d   1     -48.107  12.069  23.000  0.00  0.00     0.306 A 
ATOM      2  N   UNL d   1     -48.573  11.450  23.267  0.00  0.00    -0.152 NA
ATOM      3  C   UNL d   1     -48.439  12.814  22.875  0.00  0.00     0.114 A 
ATOM      4  C   UNL d   1     -49.239  12.945  23.016  0.00  0.00     0.094 A 
ATOM      5  C   UNL d   1     -49.371  11.574  23.409  0.00  0.00     0.371 A 
ATOM      6  N   UNL d   1     -49.703  12.319  23.284  0.00  0.00    -0.191 NA
ATOM      7  O   UNL d   1     -49.846  10.952  23.678  0.00  0.00    -0.242 OA
ATOM      8  O   UNL d   1     -47.638  12.692  22.731  0.00  0.00    -0.266 OA
ENDROOT
BRANCH   4   9
ATOM      9  C   UNL d   1     -49.570  13.686  22.892  0.00  0.00     0.018 A 
ATOM     10  C   UNL d   1     -49.873  13.886  22.152  0.00  0.00     0.004 A 
ATOM     11  C   UNL d   1     -50.207  14.636  22.026  0.00  0.00     0.030 A 
ATOM     12  C   UNL d   1     -50.236  15.179  22.638  0.00  0.00     0.140 A 
ATOM     13  C   UNL d   1     -49.929  14.978  23.387  0.00  0.00     0.030 A 
ATOM     14  F   UNL d   1     -50.566  15.921  22.514  0.00  0.00    -0.204 F 
ATOM     15  C   UNL d   1     -49.601  14.234  23.503  0.00  0.00     0.004 A 
ENDBRANCH   4   9
BRANCH   3  16
ATOM     16  C   UNL d   1     -47.968  13.433  22.607  0.00  0.00     0.202 C 
ATOM     17  O   UNL d   1     -47.906  13.596  21.796  0.00  0.00    -0.286 OA
ATOM     18  C   UNL d   1     -47.551  13.902  23.149  0.00  0.00     0.045 C 
ENDBRANCH   3  16
BRANCH   1  19
ATOM     19  C   UNL d   1     -47.594  11.425  23.058  0.00  0.00     0.470 C 
ATOM     20  F   UNL d   1     -47.125  10.853  23.129  0.00  0.00    -0.162 F 
ATOM     21  F   UNL d   1     -47.037  11.242  23.692  0.00  0.00    -0.162 F 
ATOM     22  F   UNL d   1     -47.471  10.771  22.518  0.00  0.00    -0.162 F 
ENDBRANCH   1  19
TORSDOF 3
ENDMDL
MODEL 5
REMARK VINA RESULT:      -8.2      1.705      2.225
REMARK  3 active torsions:
REMARK  status: ('A' for Active; 'I' for Inactive)
REMARK    1  A    between atoms: C_6  and  C_1 
REMARK    2  A    between atoms: C_8  and  C_3 
REMARK    3  A    between atoms: C_9  and  C_4 
ROOT
ATOM      1  C   UNL d   1     -47.160  12.628  23.049  0.00  0.00     0.306 A 
ATOM      2  N   UNL d   1     -46.479  13.077  23.128  0.00  0.00    -0.152 NA
ATOM      3  C   UNL d   1     -47.885  12.998  22.913  0.00  0.00     0.114 A 
ATOM      4  C   UNL d   1     -47.933  13.818  22.854  0.00  0.00     0.094 A 
ATOM      5  C   UNL d   1     -46.520  13.893  23.071  0.00  0.00     0.371 A 
ATOM      6  N   UNL d   1     -47.245  14.263  22.934  0.00  0.00    -0.191 NA
ATOM      7  O   UNL d   1     -45.834  14.350  23.150  0.00  0.00    -0.242 OA
ATOM      8  O   UNL d   1     -47.846  12.178  22.970  0.00  0.00    -0.266 OA
ENDROOT
BRANCH   4   9
ATOM      9  C   UNL d   1     -48.654  14.185  22.718  0.00  0.00     0.018 A 
ATOM     10  C   UNL d   1     -49.106  14.461  23.351  0.00  0.00     0.004 A 
ATOM     11  C   UNL d   1     -49.835  14.832  23.214  0.00  0.00     0.030 A 
ATOM     12  C   UNL d   1     -50.109  14.926  22.448  0.00  0.00     0.140 A 
ATOM     13  C   UNL d   1     -49.654  14.647  21.806  0.00  0.00     0.030 A 
ATOM     14  F   UNL d   1     -50.831  15.294  22.312  0.00  0.00    -0.204 F 
ATOM     15  C   UNL d   1     -48.933  14.281  21.951  0.00  0.00     0.004 A 
ENDBRANCH   4   9
BRANCH   3  16
ATOM     16  C   UNL d   1     -48.568  12.545  22.834  0.00  0.00     0.202 C 
ATOM     17  O   UNL d   1     -49.061  12.409  23.486  0.00  0.00    -0.286 OA
ATOM     18  C   UNL d   1     -48.768  12.221  22.097  0.00  0.00     0.045 C 
ENDBRANCH   3  16
BRANCH   1  19
ATOM     19  C   UNL d   1     -46.558  12.079  23.178  0.00  0.00     0.470 C 
ATOM     20  F   UNL d   1     -46.029  11.575  23.307  0.00  0.00    -0.162 F 
ATOM     21  F   UNL d   1     -46.572  11.380  23.685  0.00  0.00    -0.162 F 
ATOM     22  F   UNL d   1     -45.766  12.048  22.853  0.00  0.00    -0.162 F 
ENDBRANCH   1  19
TORSDOF 3
ENDMDL
MODEL 6
REMARK VINA RESULT:      -7.3      8.166      9.669
REMARK  3 active torsions:
REMARK  status: ('A' for Active; 'I' for Inactive)
REMARK    1  A    between atoms: C_6  and  C_1 
REMARK    2  A    between atoms: C_8  and  C_3 
REMARK    3  A    between atoms: C_9  and  C_4 
ROOT
ATOM      1  C   UNL d   1     -39.470  14.866  17.321  0.00  0.00     0.306 A 
ATOM      2  N   UNL d   1     -40.101  14.983  16.811  0.00  0.00    -0.152 NA
ATOM      3  C   UNL d   1     -39.582  14.918  18.137  0.00  0.00     0.114 A 
ATOM      4  C   UNL d   1     -40.325  15.088  18.448  0.00  0.00     0.094 A 
ATOM      5  C   UNL d   1     -40.843  15.153  17.114  0.00  0.00     0.371 A 
ATOM      6  N   UNL d   1     -40.955  15.205  17.930  0.00  0.00    -0.191 NA
ATOM      7  O   UNL d   1     -41.483  15.272  16.604  0.00  0.00    -0.242 OA
ATOM      8  O   UNL d   1     -38.836  14.748  17.835  0.00  0.00    -0.266 OA
ENDROOT
BRANCH   4   9
ATOM      9  C   UNL d   1     -40.436  15.140  19.259  0.00  0.00     0.018 A 
ATOM     10  C   UNL d   1     -40.368  15.868  19.642  0.00  0.00     0.004 A 
ATOM     11  C   UNL d   1     -40.480  15.920  20.463  0.00  0.00     0.030 A 
ATOM     12  C   UNL d   1     -40.660  15.248  20.896  0.00  0.00     0.140 A 
ATOM     13  C   UNL d   1     -40.729  14.512  20.510  0.00  0.00     0.030 A 
ATOM     14  F   UNL d   1     -40.771  15.300  21.707  0.00  0.00    -0.204 F 
ATOM     15  C   UNL d   1     -40.616  14.469  19.697  0.00  0.00     0.004 A 
ENDBRANCH   4   9
BRANCH   3  16
ATOM     16  C   UNL d   1     -38.947  14.800  18.647  0.00  0.00     0.202 C 
ATOM     17  O   UNL d   1     -38.494  15.442  18.913  0.00  0.00    -0.286 OA
ATOM     18  C   UNL d   1     -38.755  14.034  18.899  0.00  0.00     0.045 C 
ENDBRANCH   3  16
BRANCH   1  19
ATOM     19  C   UNL d   1     -39.153  14.772  16.565  0.00  0.00     0.470 C 
ATOM     20  F   UNL d   1     -38.863  14.708  15.884  0.00  0.00    -0.162 F 
ATOM     21  F   UNL d   1     -38.803  15.374  16.054  0.00  0.00    -0.162 F 
ATOM     22  F   UNL d   1     -39.082  14.067  16.084  0.00  0.00    -0.162 F 
ENDBRANCH   1  19
TORSDOF 3
ENDMDL
MODEL 7
REMARK VINA RESULT:      -7.3      7.990      9.630
REMARK  3 active torsions:
REMARK  status: ('A' for Active; 'I' for Inactive)
REMARK    1  A    between atoms: C_6  and  C_1 
REMARK    2  A    between atoms: C_8  and  C_3 
REMARK    3  A    between atoms: C_9  and  C_4 
ROOT
ATOM      1  C   UNL d   1     -40.313  14.752  19.678  0.00  0.00     0.306 A 
ATOM      2  N   UNL d   1     -39.808  14.816  20.321  0.00  0.00    -0.152 NA
ATOM      3  C   UNL d   1     -40.026  14.489  18.951  0.00  0.00     0.114 A 
ATOM      4  C   UNL d   1     -39.232  14.287  18.862  0.00  0.00     0.094 A 
ATOM      5  C   UNL d   1     -39.017  14.617  20.238  0.00  0.00     0.371 A 
ATOM      6  N   UNL d   1     -38.730  14.353  19.511  0.00  0.00    -0.191 NA
ATOM      7  O   UNL d   1     -38.504  14.679  20.885  0.00  0.00    -0.242 OA
ATOM      8  O   UNL d   1     -40.820  14.688  19.030  0.00  0.00    -0.266 OA
ENDROOT
BRANCH   4   9
ATOM      9  C   UNL d   1     -38.947  14.025  18.138  0.00  0.00     0.018 A 
ATOM     10  C   UNL d   1     -38.683  14.567  17.575  0.00  0.00     0.004 A 
ATOM     11  C   UNL d   1     -38.394  14.302  16.843  0.00  0.00     0.030 A 
ATOM     12  C   UNL d   1     -38.370  13.500  16.678  0.00  0.00     0.140 A 
ATOM     13  C   UNL d   1     -38.637  12.951  17.247  0.00  0.00     0.030 A 
ATOM     14  F   UNL d   1     -38.084  13.238  15.954  0.00  0.00    -0.204 F 
ATOM     15  C   UNL d   1     -38.921  13.222  17.968  0.00  0.00     0.004 A 
ENDBRANCH   4   9
BRANCH   3  16
ATOM     16  C   UNL d   1     -40.534  14.426  18.307  0.00  0.00     0.202 C 
ATOM     17  O   UNL d   1     -40.922  13.711  18.144  0.00  0.00    -0.286 OA
ATOM     18  C   UNL d   1     -40.663  15.080  17.814  0.00  0.00     0.045 C 
ENDBRANCH   3  16
BRANCH   1  19
ATOM     19  C   UNL d   1     -40.787  15.027  20.294  0.00  0.00     0.470 C 
ATOM     20  F   UNL d   1     -41.218  15.255  20.854  0.00  0.00    -0.162 F 
ATOM     21  F   UNL d   1     -41.240  14.565  20.866  0.00  0.00    -0.162 F 
ATOM     22  F   UNL d   1     -40.961  15.831  20.536  0.00  0.00    -0.162 F 
ENDBRANCH   1  19
TORSDOF 3
ENDMDL
