MODEL 1
REMARK VINA RESULT:      -2.2      0.000      0.000
REMARK  3 active torsions:
REMARK  status: ('A' for Active; 'I' for Inactive)
REMARK    1  A    between atoms: C_6  and  N_1 
REMARK    2  A    between atoms: C_3  and  C_2 
REMARK       I    between atoms: N_4  and  C_3 
REMARK    3  A    between atoms: C_9  and  N_4 
ROOT
ATOM      1  C   UNL d   1      32.894  18.444 -23.202  0.00  0.00     0.069 A 
ATOM      2  C   UNL d   1      32.427  18.245 -23.854  0.00  0.00     0.064 A 
ATOM      3  C   UNL d   1      32.654  16.857 -23.592  0.00  0.00     0.128 A 
ATOM      4  C   UNL d   1      32.307  17.455 -24.049  0.00  0.00     0.035 A 
ATOM      5  C   UNL d   1      33.241  17.846 -22.744  0.00  0.00     0.007 A 
ATOM      6  C   UNL d   1      33.119  17.052 -22.941  0.00  0.00     0.024 A 
ATOM      7 CL   UNL d   1      32.079  18.834 -24.314  0.00  0.00    -0.082 Cl
ENDROOT
BRANCH   1   8
ATOM      8  C   UNL d   1      33.015  19.235 -23.006  0.00  0.00     0.281 C 
ATOM      9  N   UNL d   1      32.915  19.487 -22.227  0.00  0.00    -0.189 NA
ATOM     10  O   UNL d   1      33.236  19.771 -23.592  0.00  0.00    -0.265 OA
BRANCH   9  11
ATOM     11  C   UNL d   1      32.984  20.213 -21.835  0.00  0.00     0.166 A 
ATOM     12  N   UNL d   1      32.867  20.916 -22.252  0.00  0.00    -0.225 NA
ATOM     13  C   UNL d   1      32.939  21.623 -21.852  0.00  0.00     0.101 A 
ATOM     14  C   UNL d   1      33.125  21.640 -21.049  0.00  0.00     0.021 A 
ATOM     15  C   UNL d   1      33.240  20.939 -20.640  0.00  0.00     0.005 A 
ATOM     16  C   UNL d   1      33.171  20.217 -21.033  0.00  0.00     0.039 A 
ENDBRANCH   9  11
ENDBRANCH   1   8
BRANCH   3  17
ATOM     17  N   UNL d   1      32.528  16.063 -23.794  0.00  0.00    -0.114 N 
ATOM     18  O   UNL d   1      32.944  15.733 -24.425  0.00  0.00    -0.532 OA
ATOM     19  O   UNL d   1      31.993  15.604 -23.368  0.00  0.00    -0.532 OA
ENDBRANCH   3  17
TORSDOF 3
ENDMDL
MODEL 2
REMARK VINA RESULT:      -2.1      2.116      4.685
REMARK  3 active torsions:
REMARK  status: ('A' for Active; 'I' for Inactive)
REMARK    1  A    between atoms: C_6  and  N_1 
REMARK    2  A    between atoms: C_3  and  C_2 
REMARK       I    between atoms: N_4  and  C_3 
REMARK    3  A    between atoms: C_9  and  N_4 
ROOT
ATOM      1  C   UNL d   1      32.865  21.048 -21.818  0.00  0.00     0.069 A 
ATOM      2  C   UNL d   1      32.847  21.858 -21.985  0.00  0.00     0.064 A 
ATOM      3  C   UNL d   1      32.658  22.140 -20.596  0.00  0.00     0.128 A 
ATOM      4  C   UNL d   1      32.744  22.402 -21.377  0.00  0.00     0.035 A 
ATOM      5  C   UNL d   1      32.779  20.786 -21.036  0.00  0.00     0.007 A 
ATOM      6  C   UNL d   1      32.676  21.335 -20.426  0.00  0.00     0.024 A 
ATOM      7 CL   UNL d   1      32.932  22.126 -22.761  0.00  0.00    -0.082 Cl
ENDROOT
BRANCH   1   8
ATOM      8  C   UNL d   1      32.968  20.503 -22.427  0.00  0.00     0.281 C 
ATOM      9  N   UNL d   1      32.801  19.705 -22.299  0.00  0.00    -0.189 NA
ATOM     10  O   UNL d   1      33.239  20.759 -23.162  0.00  0.00    -0.265 OA
BRANCH   9  11
ATOM     11  C   UNL d   1      32.837  19.020 -22.762  0.00  0.00     0.166 A 
ATOM     12  N   UNL d   1      32.505  19.020 -23.518  0.00  0.00    -0.225 NA
ATOM     13  C   UNL d   1      32.548  18.337 -23.963  0.00  0.00     0.101 A 
ATOM     14  C   UNL d   1      32.912  17.660 -23.666  0.00  0.00     0.021 A 
ATOM     15  C   UNL d   1      33.240  17.666 -22.915  0.00  0.00     0.005 A 
ATOM     16  C   UNL d   1      33.204  18.349 -22.455  0.00  0.00     0.039 A 
ENDBRANCH   9  11
ENDBRANCH   1   8
BRANCH   3  17
ATOM     17  N   UNL d   1      32.555  22.694 -19.988  0.00  0.00    -0.114 N 
ATOM     18  O   UNL d   1      33.158  22.812 -19.437  0.00  0.00    -0.532 OA
ATOM     19  O   UNL d   1      31.854  23.124 -19.931  0.00  0.00    -0.532 OA
ENDBRANCH   3  17
TORSDOF 3
ENDMDL
MODEL 3
REMARK VINA RESULT:      -2.1      1.126      1.439
REMARK  3 active torsions:
REMARK  status: ('A' for Active; 'I' for Inactive)
REMARK    1  A    between atoms: C_6  and  N_1 
REMARK    2  A    between atoms: C_3  and  C_2 
REMARK       I    between atoms: N_4  and  C_3 
REMARK    3  A    between atoms: C_9  and  N_4 
ROOT
ATOM      1  C   UNL d   1      32.808  19.677 -22.918  0.00  0.00     0.069 A 
ATOM      2  C   UNL d   1      32.986  19.644 -23.725  0.00  0.00     0.064 A 
ATOM      3  C   UNL d   1      32.654  18.252 -23.741  0.00  0.00     0.128 A 
ATOM      4  C   UNL d   1      32.910  18.935 -24.135  0.00  0.00     0.035 A 
ATOM      5  C   UNL d   1      32.552  18.994 -22.523  0.00  0.00     0.007 A 
ATOM      6  C   UNL d   1      32.476  18.282 -22.937  0.00  0.00     0.024 A 
ATOM      7 CL   UNL d   1      33.241  20.319 -24.125  0.00  0.00    -0.082 Cl
ENDROOT
BRANCH   1   8
ATOM      8  C   UNL d   1      32.884  20.386 -22.507  0.00  0.00     0.281 C 
ATOM      9  N   UNL d   1      32.672  20.427 -21.711  0.00  0.00    -0.189 NA
ATOM     10  O   UNL d   1      33.173  21.054 -22.895  0.00  0.00    -0.265 OA
BRANCH   9  11
ATOM     11  C   UNL d   1      32.672  21.023 -21.136  0.00  0.00     0.166 A 
ATOM     12  N   UNL d   1      32.108  21.625 -21.173  0.00  0.00    -0.225 NA
ATOM     13  C   UNL d   1      32.120  22.206 -20.599  0.00  0.00     0.101 A 
ATOM     14  C   UNL d   1      32.681  22.194 -19.996  0.00  0.00     0.021 A 
ATOM     15  C   UNL d   1      33.239  21.593 -19.965  0.00  0.00     0.005 A 
ATOM     16  C   UNL d   1      33.237  21.001 -20.538  0.00  0.00     0.039 A 
ENDBRANCH   9  11
ENDBRANCH   1   8
BRANCH   3  17
ATOM     17  N   UNL d   1      32.580  17.541 -24.160  0.00  0.00    -0.114 N 
ATOM     18  O   UNL d   1      33.103  16.922 -24.008  0.00  0.00    -0.532 OA
ATOM     19  O   UNL d   1      31.986  17.451 -24.725  0.00  0.00    -0.532 OA
ENDBRANCH   3  17
TORSDOF 3
ENDMDL
MODEL 4
REMARK VINA RESULT:      -2.0      1.454      4.289
REMARK  3 active torsions:
REMARK  status: ('A' for Active; 'I' for Inactive)
REMARK    1  A    between atoms: C_6  and  N_1 
REMARK    2  A    between atoms: C_3  and  C_2 
REMARK       I    between atoms: N_4  and  C_3 
REMARK    3  A    between atoms: C_9  and  N_4 
ROOT
ATOM      1  C   UNL d   1      32.983  19.245 -23.167  0.00  0.00     0.069 A 
ATOM      2  C   UNL d   1      33.143  19.986 -23.499  0.00  0.00     0.064 A 
ATOM      3  C   UNL d   1      33.107  20.575 -22.196  0.00  0.00     0.128 A 
ATOM      4  C   UNL d   1      33.204  20.649 -23.016  0.00  0.00     0.035 A 
ATOM      5  C   UNL d   1      32.886  19.172 -22.347  0.00  0.00     0.007 A 
ATOM      6  C   UNL d   1      32.948  19.839 -21.863  0.00  0.00     0.024 A 
ATOM      7 CL   UNL d   1      33.241  20.066 -24.314  0.00  0.00    -0.082 Cl
ENDROOT
BRANCH   1   8
ATOM      8  C   UNL d   1      32.922  18.581 -23.650  0.00  0.00     0.281 C 
ATOM      9  N   UNL d   1      32.547  17.901 -23.371  0.00  0.00    -0.189 NA
ATOM     10  O   UNL d   1      33.236  18.600 -24.413  0.00  0.00    -0.265 OA
BRANCH   9  11
ATOM     11  C   UNL d   1      32.386  17.152 -23.686  0.00  0.00     0.166 A 
ATOM     12  N   UNL d   1      33.004  16.619 -23.811  0.00  0.00    -0.225 NA
ATOM     13  C   UNL d   1      32.829  15.885 -24.122  0.00  0.00     0.101 A 
ATOM     14  C   UNL d   1      32.054  15.677 -24.309  0.00  0.00     0.021 A 
ATOM     15  C   UNL d   1      31.444  16.211 -24.182  0.00  0.00     0.005 A 
ATOM     16  C   UNL d   1      31.607  16.956 -23.869  0.00  0.00     0.039 A 
ENDBRANCH   9  11
ENDBRANCH   1   8
BRANCH   3  17
ATOM     17  N   UNL d   1      33.170  21.247 -21.715  0.00  0.00    -0.114 N 
ATOM     18  O   UNL d   1      33.241  21.158 -20.897  0.00  0.00    -0.532 OA
ATOM     19  O   UNL d   1      33.162  22.001 -22.048  0.00  0.00    -0.532 OA
ENDBRANCH   3  17
TORSDOF 3
ENDMDL
MODEL 5
REMARK VINA RESULT:      -1.9      3.032      4.175
REMARK  3 active torsions:
REMARK  status: ('A' for Active; 'I' for Inactive)
REMARK    1  A    between atoms: C_6  and  N_1 
REMARK    2  A    between atoms: C_3  and  C_2 
REMARK       I    between atoms: N_4  and  C_3 
REMARK    3  A    between atoms: C_9  and  N_4 
ROOT
ATOM      1  C   UNL d   1      29.923  16.689 -24.199  0.00  0.00     0.069 A 
ATOM      2  C   UNL d   1      29.808  15.986 -23.778  0.00  0.00     0.064 A 
ATOM      3  C   UNL d   1      28.406  16.260 -23.704  0.00  0.00     0.128 A 
ATOM      4  C   UNL d   1      29.053  15.771 -23.532  0.00  0.00     0.035 A 
ATOM      5  C   UNL d   1      29.275  17.177 -24.371  0.00  0.00     0.007 A 
ATOM      6  C   UNL d   1      28.517  16.960 -24.122  0.00  0.00     0.024 A 
ATOM      7 CL   UNL d   1      30.448  15.495 -23.603  0.00  0.00    -0.082 Cl
ENDROOT
BRANCH   1   8
ATOM      8  C   UNL d   1      30.678  16.904 -24.446  0.00  0.00     0.281 C 
ATOM      9  N   UNL d   1      31.056  17.552 -24.103  0.00  0.00    -0.189 NA
ATOM     10  O   UNL d   1      31.054  16.469 -25.037  0.00  0.00    -0.265 OA
BRANCH   9  11
ATOM     11  C   UNL d   1      31.790  17.922 -24.204  0.00  0.00     0.166 A 
ATOM     12  N   UNL d   1      32.043  18.125 -24.964  0.00  0.00    -0.225 NA
ATOM     13  C   UNL d   1      32.769  18.489 -25.048  0.00  0.00     0.101 A 
ATOM     14  C   UNL d   1      33.241  18.651 -24.393  0.00  0.00     0.021 A 
ATOM     15  C   UNL d   1      32.984  18.446 -23.641  0.00  0.00     0.005 A 
ATOM     16  C   UNL d   1      32.253  18.079 -23.542  0.00  0.00     0.039 A 
ENDBRANCH   9  11
ENDBRANCH   1   8
BRANCH   3  17
ATOM     17  N   UNL d   1      27.648  16.038 -23.452  0.00  0.00    -0.114 N 
ATOM     18  O   UNL d   1      27.313  16.407 -22.795  0.00  0.00    -0.532 OA
ATOM     19  O   UNL d   1      27.230  15.453 -23.855  0.00  0.00    -0.532 OA
ENDBRANCH   3  17
TORSDOF 3
ENDMDL
MODEL 6
REMARK VINA RESULT:       0.5      3.996      6.117
REMARK  3 active torsions:
REMARK  status: ('A' for Active; 'I' for Inactive)
REMARK    1  A    between atoms: C_6  and  N_1 
REMARK    2  A    between atoms: C_3  and  C_2 
REMARK       I    between atoms: N_4  and  C_3 
REMARK    3  A    between atoms: C_9  and  N_4 
ROOT
ATOM      1  C   UNL d   1      32.676  22.598 -19.938  0.00  0.00     0.069 A 
ATOM      2  C   UNL d   1      32.875  22.176 -19.255  0.00  0.00     0.064 A 
ATOM      3  C   UNL d   1      32.339  23.231 -18.450  0.00  0.00     0.128 A 
ATOM      4  C   UNL d   1      32.707  22.491 -18.513  0.00  0.00     0.035 A 
ATOM      5  C   UNL d   1      32.308  23.338 -19.875  0.00  0.00     0.007 A 
ATOM      6  C   UNL d   1      32.141  23.653 -19.128  0.00  0.00     0.024 A 
ATOM      7 CL   UNL d   1      33.241  21.439 -19.310  0.00  0.00    -0.082 Cl
ENDROOT
BRANCH   1   8
ATOM      8  C   UNL d   1      32.843  22.283 -20.680  0.00  0.00     0.281 C 
ATOM      9  N   UNL d   1      32.789  22.759 -21.352  0.00  0.00    -0.189 NA
ATOM     10  O   UNL d   1      33.065  21.491 -20.748  0.00  0.00    -0.265 OA
BRANCH   9  11
ATOM     11  C   UNL d   1      32.911  22.641 -22.163  0.00  0.00     0.166 A 
ATOM     12  N   UNL d   1      33.069  21.881 -22.446  0.00  0.00    -0.225 NA
ATOM     13  C   UNL d   1      33.187  21.780 -23.247  0.00  0.00     0.101 A 
ATOM     14  C   UNL d   1      33.150  22.420 -23.765  0.00  0.00     0.021 A 
ATOM     15  C   UNL d   1      32.992  23.172 -23.478  0.00  0.00     0.005 A 
ATOM     16  C   UNL d   1      32.871  23.288 -22.671  0.00  0.00     0.039 A 
ENDBRANCH   9  11
ENDBRANCH   1   8
BRANCH   3  17
ATOM     17  N   UNL d   1      32.174  23.543 -17.700  0.00  0.00    -0.114 N 
ATOM     18  O   UNL d   1      31.392  23.702 -17.489  0.00  0.00    -0.532 OA
ATOM     19  O   UNL d   1      32.784  23.694 -17.167  0.00  0.00    -0.532 OA
ENDBRANCH   3  17
TORSDOF 3
ENDMDL
