MODEL 1
REMARK VINA RESULT:      -2.6      0.000      0.000
REMARK  1 active torsions:
REMARK  status: ('A' for Active; 'I' for Inactive)
REMARK    1  A    between atoms: C_6  and  N_1 
ROOT
ATOM      1  C   UNL d   1      32.661  21.745 -21.291  0.00  0.00     0.086 A 
ATOM      2  C   UNL d   1      32.911  21.631 -22.062  0.00  0.00     0.023 A 
ATOM      3  C   UNL d   1      32.602  21.104 -20.774  0.00  0.00     0.023 A 
ATOM      4  C   UNL d   1      33.048  20.235 -21.816  0.00  0.00     0.196 A 
ATOM      5  C   UNL d   1      32.796  20.346 -21.037  0.00  0.00     0.044 A 
ATOM      6  C   UNL d   1      33.105  20.873 -22.325  0.00  0.00     0.044 A 
ATOM      7  O   UNL d   1      33.241  19.481 -22.077  0.00  0.00    -0.287 OA
ENDROOT
BRANCH   1   8
ATOM      8  N   UNL d   1      32.469  22.497 -21.034  0.00  0.00    -0.189 N 
ATOM      9  N   UNL d   1      31.746  22.880 -21.142  0.00  0.00    -0.038 NA
ATOM     10  N   UNL d   1      31.802  23.626 -20.794  0.00  0.00    -0.022 NA
ATOM     11  N   UNL d   1      32.546  23.702 -20.476  0.00  0.00    -0.104 NA
ATOM     12  C   UNL d   1      32.965  23.005 -20.621  0.00  0.00     0.226 A 
ENDBRANCH   1   8
TORSDOF 1
ENDMDL
MODEL 2
REMARK VINA RESULT:      -2.4      6.538      6.987
REMARK  1 active torsions:
REMARK  status: ('A' for Active; 'I' for Inactive)
REMARK    1  A    between atoms: C_6  and  N_1 
ROOT
ATOM      1  C   UNL d   1      30.362  16.040 -23.543  0.00  0.00     0.086 A 
ATOM      2  C   UNL d   1      29.985  15.576 -22.984  0.00  0.00     0.023 A 
ATOM      3  C   UNL d   1      29.920  16.463 -24.098  0.00  0.00     0.023 A 
ATOM      4  C   UNL d   1      28.720  15.945 -23.522  0.00  0.00     0.196 A 
ATOM      5  C   UNL d   1      29.096  16.415 -24.088  0.00  0.00     0.044 A 
ATOM      6  C   UNL d   1      29.162  15.528 -22.973  0.00  0.00     0.044 A 
ATOM      7  O   UNL d   1      27.900  15.898 -23.512  0.00  0.00    -0.287 OA
ENDROOT
BRANCH   1   8
ATOM      8  N   UNL d   1      31.178  16.085 -23.550  0.00  0.00    -0.189 N 
ATOM      9  N   UNL d   1      31.630  16.766 -23.440  0.00  0.00    -0.038 NA
ATOM     10  N   UNL d   1      32.426  16.553 -23.492  0.00  0.00    -0.022 NA
ATOM     11  N   UNL d   1      32.464  15.753 -23.632  0.00  0.00    -0.104 NA
ATOM     12  C   UNL d   1      31.694  15.457 -23.669  0.00  0.00     0.226 A 
ENDBRANCH   1   8
TORSDOF 1
ENDMDL
MODEL 3
REMARK VINA RESULT:      -2.3      2.273      3.134
REMARK  1 active torsions:
REMARK  status: ('A' for Active; 'I' for Inactive)
REMARK    1  A    between atoms: C_6  and  N_1 
ROOT
ATOM      1  C   UNL d   1      32.827  21.110 -21.662  0.00  0.00     0.086 A 
ATOM      2  C   UNL d   1      32.403  21.141 -20.962  0.00  0.00     0.023 A 
ATOM      3  C   UNL d   1      33.091  21.807 -22.018  0.00  0.00     0.023 A 
ATOM      4  C   UNL d   1      32.501  22.561 -20.960  0.00  0.00     0.196 A 
ATOM      5  C   UNL d   1      32.928  22.534 -21.666  0.00  0.00     0.044 A 
ATOM      6  C   UNL d   1      32.240  21.869 -20.609  0.00  0.00     0.044 A 
ATOM      7  O   UNL d   1      32.338  23.286 -20.609  0.00  0.00    -0.287 OA
ENDROOT
BRANCH   1   8
ATOM      8  N   UNL d   1      32.987  20.387 -22.008  0.00  0.00    -0.189 N 
ATOM      9  N   UNL d   1      33.072  19.666 -21.615  0.00  0.00    -0.038 NA
ATOM     10  N   UNL d   1      33.229  19.087 -22.181  0.00  0.00    -0.022 NA
ATOM     11  N   UNL d   1      33.241  19.444 -22.912  0.00  0.00    -0.104 NA
ATOM     12  C   UNL d   1      33.091  20.250 -22.811  0.00  0.00     0.226 A 
ENDBRANCH   1   8
TORSDOF 1
ENDMDL
MODEL 4
REMARK VINA RESULT:      -2.3      6.178      6.836
REMARK  1 active torsions:
REMARK  status: ('A' for Active; 'I' for Inactive)
REMARK    1  A    between atoms: C_6  and  N_1 
ROOT
ATOM      1  C   UNL d   1      30.211  16.443 -23.972  0.00  0.00     0.086 A 
ATOM      2  C   UNL d   1      30.345  17.158 -24.349  0.00  0.00     0.023 A 
ATOM      3  C   UNL d   1      30.830  16.050 -23.594  0.00  0.00     0.023 A 
ATOM      4  C   UNL d   1      31.719  17.101 -23.977  0.00  0.00     0.196 A 
ATOM      5  C   UNL d   1      31.587  16.380 -23.596  0.00  0.00     0.044 A 
ATOM      6  C   UNL d   1      31.101  17.488 -24.352  0.00  0.00     0.044 A 
ATOM      7  O   UNL d   1      32.471  17.429 -23.979  0.00  0.00    -0.287 OA
ENDROOT
BRANCH   1   8
ATOM      8  N   UNL d   1      29.460  16.120 -23.972  0.00  0.00    -0.189 N 
ATOM      9  N   UNL d   1      28.895  16.197 -23.375  0.00  0.00    -0.038 NA
ATOM     10  N   UNL d   1      28.222  15.781 -23.609  0.00  0.00    -0.022 NA
ATOM     11  N   UNL d   1      28.368  15.453 -24.338  0.00  0.00    -0.104 NA
ATOM     12  C   UNL d   1      29.134  15.659 -24.569  0.00  0.00     0.226 A 
ENDBRANCH   1   8
TORSDOF 1
ENDMDL
MODEL 5
REMARK VINA RESULT:      -2.2      4.685      5.314
REMARK  1 active torsions:
REMARK  status: ('A' for Active; 'I' for Inactive)
REMARK    1  A    between atoms: C_6  and  N_1 
ROOT
ATOM      1  C   UNL d   1      31.815  17.537 -23.959  0.00  0.00     0.086 A 
ATOM      2  C   UNL d   1      32.001  16.853 -23.549  0.00  0.00     0.023 A 
ATOM      3  C   UNL d   1      31.096  17.598 -24.361  0.00  0.00     0.023 A 
ATOM      4  C   UNL d   1      30.755  16.279 -23.933  0.00  0.00     0.196 A 
ATOM      5  C   UNL d   1      30.565  16.967 -24.348  0.00  0.00     0.044 A 
ATOM      6  C   UNL d   1      31.469  16.222 -23.535  0.00  0.00     0.044 A 
ATOM      7  O   UNL d   1      30.227  15.651 -23.919  0.00  0.00    -0.287 OA
ENDROOT
BRANCH   1   8
ATOM      8  N   UNL d   1      32.344  18.160 -23.970  0.00  0.00    -0.189 N 
ATOM      9  N   UNL d   1      32.551  18.635 -23.328  0.00  0.00    -0.038 NA
ATOM     10  N   UNL d   1      33.101  19.191 -23.592  0.00  0.00    -0.022 NA
ATOM     11  N   UNL d   1      33.231  19.062 -24.384  0.00  0.00    -0.104 NA
ATOM     12  C   UNL d   1      32.764  18.423 -24.624  0.00  0.00     0.226 A 
ENDBRANCH   1   8
TORSDOF 1
ENDMDL
