MODEL 1
REMARK VINA RESULT:      -7.3      0.000      0.000
REMARK  3 active torsions:
REMARK  status: ('A' for Active; 'I' for Inactive)
REMARK    1  A    between atoms: C_2  and  S_1 
REMARK    2  A    between atoms: N_3  and  S_1 
REMARK    3  A    between atoms: O_17  and  C_7 
ROOT
ATOM      1  S   UNL d   1     -48.202  13.428  22.446  0.00  0.00     0.273 S 
ATOM      2  O   UNL d   1     -48.204  12.987  21.732  0.00  0.00    -0.200 OA
ATOM      3  O   UNL d   1     -48.193  13.863  23.156  0.00  0.00    -0.200 OA
ENDROOT
BRANCH   1   4
ATOM      4  C   UNL d   1     -47.423  13.138  22.622  0.00  0.00     0.127 A 
ATOM      5  C   UNL d   1     -46.778  13.552  22.339  0.00  0.00     0.026 A 
ATOM      6  C   UNL d   1     -46.011  13.288  22.499  0.00  0.00     0.059 A 
ATOM      7 CL   UNL d   1     -45.358  13.712  22.207  0.00  0.00    -0.082 Cl
ATOM      8  C   UNL d   1     -45.891  12.595  22.951  0.00  0.00     0.013 A 
ATOM      9  C   UNL d   1     -46.566  12.181  23.236  0.00  0.00     0.026 A 
ATOM     10  C   UNL d   1     -47.325  12.456  23.069  0.00  0.00     0.106 A 
BRANCH  10  11
ATOM     11  O   UNL d   1     -47.978  12.032  23.360  0.00  0.00    -0.327 OA
ATOM     12  C   UNL d   1     -47.867  11.285  23.698  0.00  0.00     0.181 C 
ENDBRANCH  10  11
ENDBRANCH   1   4
BRANCH   1  13
ATOM     13  N   UNL d   1     -48.958  13.715  22.285  0.00  0.00    -0.226 N 
ATOM     14  C   UNL d   1     -49.291  14.318  22.730  0.00  0.00     0.111 A 
ATOM     15  C   UNL d   1     -50.047  14.605  22.568  0.00  0.00     0.100 A 
ATOM     16  N   UNL d   1     -50.485  14.285  21.947  0.00  0.00    -0.299 N 
ATOM     17  C   UNL d   1     -50.154  13.680  21.499  0.00  0.00     0.100 A 
ATOM     18  C   UNL d   1     -51.047  14.517  21.848  0.00  0.00     0.100 C 
ATOM     19  C   UNL d   1     -49.398  13.395  21.663  0.00  0.00     0.111 A 
ENDBRANCH   1  13
TORSDOF 3
ENDMDL
MODEL 2
REMARK VINA RESULT:      -7.2      1.631      3.598
REMARK  3 active torsions:
REMARK  status: ('A' for Active; 'I' for Inactive)
REMARK    1  A    between atoms: C_2  and  S_1 
REMARK    2  A    between atoms: N_3  and  S_1 
REMARK    3  A    between atoms: O_17  and  C_7 
ROOT
ATOM      1  S   UNL d   1     -48.486  13.408  23.026  0.00  0.00     0.273 S 
ATOM      2  O   UNL d   1     -47.978  13.825  22.504  0.00  0.00    -0.200 OA
ATOM      3  O   UNL d   1     -48.995  12.998  23.542  0.00  0.00    -0.200 OA
ENDROOT
BRANCH   1   4
ATOM      4  C   UNL d   1     -49.113  13.952  22.850  0.00  0.00     0.127 A 
ATOM      5  C   UNL d   1     -49.204  14.612  23.324  0.00  0.00     0.026 A 
ATOM      6  C   UNL d   1     -49.808  15.155  23.171  0.00  0.00     0.059 A 
ATOM      7 CL   UNL d   1     -49.895  15.825  23.657  0.00  0.00    -0.082 Cl
ATOM      8  C   UNL d   1     -50.330  15.034  22.530  0.00  0.00     0.013 A 
ATOM      9  C   UNL d   1     -50.224  14.349  22.051  0.00  0.00     0.026 A 
ATOM     10  C   UNL d   1     -49.617  13.816  22.216  0.00  0.00     0.106 A 
BRANCH  10  11
ATOM     11  O   UNL d   1     -49.529  13.146  21.730  0.00  0.00    -0.327 OA
ATOM     12  C   UNL d   1     -50.058  13.017  21.108  0.00  0.00     0.181 C 
ENDBRANCH  10  11
ENDBRANCH   1   4
BRANCH   1  13
ATOM     13  N   UNL d   1     -47.884  12.873  23.203  0.00  0.00    -0.226 N 
ATOM     14  C   UNL d   1     -48.047  12.134  23.520  0.00  0.00     0.111 A 
ATOM     15  C   UNL d   1     -47.444  11.599  23.698  0.00  0.00     0.100 A 
ATOM     16  N   UNL d   1     -46.659  11.804  23.557  0.00  0.00    -0.299 N 
ATOM     17  C   UNL d   1     -46.491  12.544  23.239  0.00  0.00     0.100 A 
ATOM     18  C   UNL d   1     -46.227  11.386  23.698  0.00  0.00     0.100 C 
ATOM     19  C   UNL d   1     -47.096  13.076  23.062  0.00  0.00     0.111 A 
ENDBRANCH   1  13
TORSDOF 3
ENDMDL
MODEL 3
REMARK VINA RESULT:      -6.7      1.783      3.377
REMARK  3 active torsions:
REMARK  status: ('A' for Active; 'I' for Inactive)
REMARK    1  A    between atoms: C_2  and  S_1 
REMARK    2  A    between atoms: N_3  and  S_1 
REMARK    3  A    between atoms: O_17  and  C_7 
ROOT
ATOM      1  S   UNL d   1     -48.563  13.316  22.406  0.00  0.00     0.273 S 
ATOM      2  O   UNL d   1     -48.504  12.816  21.734  0.00  0.00    -0.200 OA
ATOM      3  O   UNL d   1     -48.627  13.811  23.072  0.00  0.00    -0.200 OA
ENDROOT
BRANCH   1   4
ATOM      4  C   UNL d   1     -49.409  13.259  22.375  0.00  0.00     0.127 A 
ATOM      5  C   UNL d   1     -49.821  13.795  21.917  0.00  0.00     0.026 A 
ATOM      6  C   UNL d   1     -50.646  13.758  21.872  0.00  0.00     0.059 A 
ATOM      7 CL   UNL d   1     -51.060  14.307  21.404  0.00  0.00    -0.082 Cl
ATOM      8  C   UNL d   1     -51.064  13.170  22.294  0.00  0.00     0.013 A 
ATOM      9  C   UNL d   1     -50.624  12.625  22.762  0.00  0.00     0.026 A 
ATOM     10  C   UNL d   1     -49.802  12.675  22.797  0.00  0.00     0.106 A 
BRANCH  10  11
ATOM     11  O   UNL d   1     -49.388  12.126  23.265  0.00  0.00    -0.327 OA
ATOM     12  C   UNL d   1     -49.803  11.552  23.692  0.00  0.00     0.181 C 
ENDBRANCH  10  11
ENDBRANCH   1   4
BRANCH   1  13
ATOM     13  N   UNL d   1     -47.741  13.378  22.446  0.00  0.00    -0.226 N 
ATOM     14  C   UNL d   1     -47.376  13.915  22.947  0.00  0.00     0.111 A 
ATOM     15  C   UNL d   1     -46.554  13.977  22.987  0.00  0.00     0.100 A 
ATOM     16  N   UNL d   1     -46.082  13.492  22.516  0.00  0.00    -0.299 N 
ATOM     17  C   UNL d   1     -46.444  12.952  22.012  0.00  0.00     0.100 A 
ATOM     18  C   UNL d   1     -45.471  13.558  22.564  0.00  0.00     0.100 C 
ATOM     19  C   UNL d   1     -47.266  12.893  21.975  0.00  0.00     0.111 A 
ENDBRANCH   1  13
TORSDOF 3
ENDMDL
