MODEL 1
REMARK VINA RESULT:      -5.9      0.000      0.000
REMARK  6 active torsions:
REMARK  status: ('A' for Active; 'I' for Inactive)
REMARK    1  A    between atoms: N_2  and  S_1 
REMARK    2  A    between atoms: C_4  and  S_1 
REMARK    3  A    between atoms: C_3  and  N_2 
REMARK    4  A    between atoms: N_7  and  C_3 
REMARK    5  A    between atoms: C_14  and  N_7 
REMARK    6  A    between atoms: C_15  and  C_13 
ROOT
ATOM      1  S   UNL d   1     -41.768-122.843 -51.054  0.00  0.00     0.287 S 
ATOM      2  O   UNL d   1     -42.421-123.349 -51.170  0.00  0.00    -0.198 OA
ATOM      3  O   UNL d   1     -41.123-122.343 -50.937  0.00  0.00    -0.198 OA
ENDROOT
BRANCH   1   4
ATOM      4  N   UNL d   1     -41.721-122.715 -51.871  0.00  0.00    -0.128 NA
BRANCH   4   5
ATOM      5  C   UNL d   1     -41.380-122.903 -52.597  0.00  0.00     0.232 C 
ATOM      6  S   UNL d   1     -41.265-123.692 -52.807  0.00  0.00    -0.036 SA
BRANCH   5   7
ATOM      7  N   UNL d   1     -41.155-122.301 -53.112  0.00  0.00    -0.217 NA
BRANCH   7   8
ATOM      8  C   UNL d   1     -41.484-122.267 -53.868  0.00  0.00     0.084 A 
ATOM      9  C   UNL d   1     -42.167-121.823 -53.994  0.00  0.00     0.019 A 
ATOM     10  C   UNL d   1     -42.498-121.788 -54.747  0.00  0.00     0.002 A 
ATOM     11  C   UNL d   1     -42.148-122.193 -55.370  0.00  0.00     0.000 A 
ATOM     12  C   UNL d   1     -41.467-122.635 -55.243  0.00  0.00     0.002 A 
ATOM     13  C   UNL d   1     -41.133-122.674 -54.494  0.00  0.00     0.019 A 
ENDBRANCH   7   8
ENDBRANCH   5   7
ENDBRANCH   4   5
ENDBRANCH   1   4
BRANCH   1  14
ATOM     14  C   UNL d   1     -41.816-122.973 -50.231  0.00  0.00     0.105 A 
ATOM     15  C   UNL d   1     -41.160-123.268 -49.828  0.00  0.00     0.013 A 
ATOM     16  C   UNL d   1     -41.200-123.400 -49.005  0.00  0.00     0.001 A 
ATOM     17  C   UNL d   1     -41.905-123.234 -48.592  0.00  0.00     0.000 A 
ATOM     18  C   UNL d   1     -42.561-122.937 -49.004  0.00  0.00     0.001 A 
ATOM     19  C   UNL d   1     -42.521-122.807 -49.818  0.00  0.00     0.013 A 
BRANCH  17  20
ATOM     20  C   UNL d   1     -41.949-123.363 -47.778  0.00  0.00     0.000 C 
ATOM     21  C   UNL d   1     -42.481-123.160 -47.173  0.00  0.00     0.000 C 
ENDBRANCH  17  20
ENDBRANCH   1  14
TORSDOF 6
ENDMDL
MODEL 2
REMARK VINA RESULT:      -5.0      0.856      5.040
REMARK  6 active torsions:
REMARK  status: ('A' for Active; 'I' for Inactive)
REMARK    1  A    between atoms: N_2  and  S_1 
REMARK    2  A    between atoms: C_4  and  S_1 
REMARK    3  A    between atoms: C_3  and  N_2 
REMARK    4  A    between atoms: N_7  and  C_3 
REMARK    5  A    between atoms: C_14  and  N_7 
REMARK    6  A    between atoms: C_15  and  C_13 
ROOT
ATOM      1  S   UNL d   1     -41.357-122.903 -52.416  0.00  0.00     0.287 S 
ATOM      2  O   UNL d   1     -41.155-122.111 -52.248  0.00  0.00    -0.198 OA
ATOM      3  O   UNL d   1     -41.556-123.686 -52.584  0.00  0.00    -0.198 OA
ENDROOT
BRANCH   1   4
ATOM      4  N   UNL d   1     -41.215-123.108 -51.626  0.00  0.00    -0.128 NA
BRANCH   4   5
ATOM      5  C   UNL d   1     -41.385-123.000 -50.828  0.00  0.00     0.232 C 
ATOM      6  S   UNL d   1     -41.123-122.324 -50.435  0.00  0.00    -0.036 SA
BRANCH   5   7
ATOM      7  N   UNL d   1     -41.819-123.571 -50.421  0.00  0.00    -0.217 NA
BRANCH   7   8
ATOM      8  C   UNL d   1     -41.916-123.504 -49.605  0.00  0.00     0.084 A 
ATOM      9  C   UNL d   1     -42.587-123.132 -49.304  0.00  0.00     0.019 A 
ATOM     10  C   UNL d   1     -42.686-123.063 -48.490  0.00  0.00     0.002 A 
ATOM     11  C   UNL d   1     -42.119-123.365 -47.979  0.00  0.00     0.000 A 
ATOM     12  C   UNL d   1     -41.450-123.736 -48.279  0.00  0.00     0.002 A 
ATOM     13  C   UNL d   1     -41.346-123.807 -49.091  0.00  0.00     0.019 A 
ENDBRANCH   7   8
ENDBRANCH   5   7
ENDBRANCH   4   5
ENDBRANCH   1   4
BRANCH   1  14
ATOM     14  C   UNL d   1     -41.500-122.696 -53.212  0.00  0.00     0.105 A 
ATOM     15  C   UNL d   1     -41.236-123.194 -53.814  0.00  0.00     0.013 A 
ATOM     16  C   UNL d   1     -41.375-122.994 -54.612  0.00  0.00     0.001 A 
ATOM     17  C   UNL d   1     -41.781-122.289 -54.799  0.00  0.00     0.000 A 
ATOM     18  C   UNL d   1     -42.043-121.794 -54.188  0.00  0.00     0.001 A 
ATOM     19  C   UNL d   1     -41.905-121.992 -53.399  0.00  0.00     0.013 A 
BRANCH  17  20
ATOM     20  C   UNL d   1     -41.920-122.088 -55.586  0.00  0.00     0.000 C 
ATOM     21  C   UNL d   1     -42.594-121.940 -56.051  0.00  0.00     0.000 C 
ENDBRANCH  17  20
ENDBRANCH   1  14
TORSDOF 6
ENDMDL
