MODEL 1
REMARK VINA RESULT:     137.9      0.000      0.000
REMARK  2 active torsions:
REMARK  status: ('A' for Active; 'I' for Inactive)
REMARK    1  A    between atoms: N_11  and  C_4 
REMARK    2  A    between atoms: C_16  and  N_12 
ROOT
ATOM      1  N   UNL d   1      60.566  47.948  50.573  0.00  0.00    -0.195 N 
ATOM      2  C   UNL d   1      61.249  47.756  50.188  0.00  0.00     0.168 A 
ATOM      3  C   UNL d   1      61.491  47.000  50.141  0.00  0.00     0.073 A 
ATOM      4  C   UNL d   1      60.340  48.709  50.609  0.00  0.00     0.153 A 
ATOM      5  N   UNL d   1      60.362  46.627  50.868  0.00  0.00    -0.143 NA
ATOM      6  C   UNL d   1      61.045  46.435  50.483  0.00  0.00     0.185 A 
ATOM      7  N   UNL d   1      61.688  48.331  49.849  0.00  0.00    -0.227 NA
ATOM      8  C   UNL d   1      62.166  46.811  49.761  0.00  0.00     0.007 A 
ATOM      9  N   UNL d   1      61.277  45.665  50.445  0.00  0.00    -0.225 NA
ATOM     10  C   UNL d   1      60.772  49.281  50.275  0.00  0.00     0.057 A 
ATOM     11  C   UNL d   1      62.408  46.053  49.715  0.00  0.00     0.019 A 
ATOM     12  C   UNL d   1      61.455  49.090  49.890  0.00  0.00     0.086 A 
ATOM     13  C   UNL d   1      61.960  45.473  50.059  0.00  0.00     0.083 A 
ATOM     14  C   UNL d   1      62.606  47.389  49.421  0.00  0.00     0.000 C 
ATOM     15  C   UNL d   1      61.909  49.690  49.538  0.00  0.00     0.021 C 
ATOM     16  C   UNL d   1      62.194  44.719  50.018  0.00  0.00     0.021 C 
ENDROOT
BRANCH   4  17
ATOM     17  N   UNL d   1      59.635  48.898  51.007  0.00  0.00    -0.286 N 
ATOM     18  C   UNL d   1      58.971  48.416  50.871  0.00  0.00     0.101 A 
ATOM     19  C   UNL d   1      58.251  48.576  51.251  0.00  0.00     0.100 A 
ATOM     20  N   UNL d   1      58.201  49.218  51.767  0.00  0.00    -0.301 N 
ATOM     21  C   UNL d   1      58.859  49.706  51.910  0.00  0.00     0.100 A 
ATOM     22  C   UNL d   1      59.580  49.542  51.526  0.00  0.00     0.101 A 
BRANCH  20  23
ATOM     23  C   UNL d   1      57.486  49.380  52.147  0.00  0.00     0.065 A 
ATOM     24  C   UNL d   1      57.450  49.413  52.980  0.00  0.00     0.029 A 
ATOM     25  C   UNL d   1      56.724  49.577  53.362  0.00  0.00     0.059 A 
ATOM     26 CL   UNL d   1      56.685  49.610  54.190  0.00  0.00    -0.082 Cl
ATOM     27  C   UNL d   1      56.034  49.708  52.907  0.00  0.00     0.011 A 
ATOM     28  C   UNL d   1      56.076  49.673  52.070  0.00  0.00     0.002 A 
ATOM     29  C   UNL d   1      56.795  49.511  51.698  0.00  0.00     0.018 A 
ENDBRANCH  20  23
ENDBRANCH   4  17
TORSDOF 2
ENDMDL
