MODEL 1
REMARK VINA RESULT:      90.9      0.000      0.000
REMARK  8 active torsions:
REMARK  status: ('A' for Active; 'I' for Inactive)
REMARK    1  A    between atoms: C_5  and  C_1 
REMARK    2  A    between atoms: N_6  and  C_2 
REMARK    3  A    between atoms: C_7  and  C_5 
REMARK    4  A    between atoms: C_8  and  C_5 
REMARK    5  A    between atoms: O_13  and  C_7 
REMARK    6  A    between atoms: C_12  and  C_16 
REMARK    7  A    between atoms: C_22  and  O_13 
REMARK    8  A    between atoms: C_25  and  C_22 
ROOT
ATOM      1  C   UNL d   1     -54.950-100.565 -41.251  0.00  0.00     0.296 C 
ATOM      2  O   UNL d   1     -54.943-101.349 -40.984  0.00  0.00    -0.259 OA
ATOM      3  O   UNL d   1     -54.831 -99.949 -40.716  0.00  0.00    -0.296 OA
ATOM      4  C   UNL d   1     -54.712 -99.333 -40.181  0.00  0.00     0.185 C 
ENDROOT
BRANCH   1   5
ATOM      5  C   UNL d   1     -55.076-100.405 -42.050  0.00  0.00     0.065 A 
ATOM      6  C   UNL d   1     -54.965-100.293 -42.933  0.00  0.00     0.018 A 
ATOM      7  C   UNL d   1     -55.945-100.009 -43.104  0.00  0.00     0.057 A 
ATOM      8  N   UNL d   1     -56.266 -99.836 -43.661  0.00  0.00    -0.192 NA
ATOM      9  C   UNL d   1     -56.402 -99.930 -42.852  0.00  0.00     0.057 A 
ATOM     10  C   UNL d   1     -55.364-100.236 -42.636  0.00  0.00     0.018 A 
BRANCH   8  11
ATOM     11  C   UNL d   1     -56.822 -99.601 -44.225  0.00  0.00     0.145 A 
ATOM     12  C   UNL d   1     -56.418 -99.291 -44.868  0.00  0.00     0.117 A 
ATOM     13  N   UNL d   1     -56.839 -99.009 -45.521  0.00  0.00    -0.241 NA
ATOM     14  C   UNL d   1     -57.655 -99.038 -45.529  0.00  0.00     0.099 A 
ATOM     15  C   UNL d   1     -58.070 -99.350 -44.881  0.00  0.00     0.100 A 
ATOM     16  C   UNL d   1     -58.074 -98.759 -46.175  0.00  0.00     0.021 A 
ATOM     17  C   UNL d   1     -58.896 -99.380 -44.888  0.00  0.00     0.021 A 
ATOM     18  N   UNL d   1     -57.649 -99.632 -44.228  0.00  0.00    -0.230 NA
ATOM     19  C   UNL d   1     -59.305 -99.099 -45.538  0.00  0.00     0.002 A 
ATOM     20  C   UNL d   1     -58.899 -98.786 -46.188  0.00  0.00     0.002 A 
BRANCH  12  21
ATOM     21  C   UNL d   1     -55.609 -99.333 -44.706  0.00  0.00     0.104 C 
BRANCH  21  22
ATOM     22  C   UNL d   1     -55.034 -99.700 -45.183  0.00  0.00     0.303 C 
ATOM     23  O   UNL d   1     -54.717 -99.297 -45.827  0.00  0.00    -0.259 OA
BRANCH  22  24
ATOM     24  O   UNL d   1     -54.785-100.468 -45.009  0.00  0.00    -0.271 OA
BRANCH  24  25
ATOM     25  C   UNL d   1     -55.319-101.094 -45.042  0.00  0.00     0.126 C 
BRANCH  25  26
ATOM     26  C   UNL d   1     -55.047-101.870 -45.054  0.00  0.00     0.025 C 
ATOM     27  C   UNL d   1     -55.060-102.299 -45.753  0.00  0.00     0.002 C 
ATOM     28  C   UNL d   1     -54.760-102.216 -44.361  0.00  0.00     0.002 C 
ENDBRANCH  25  26
ENDBRANCH  24  25
ENDBRANCH  22  24
ENDBRANCH  21  22
BRANCH  21  29
ATOM     29  C   UNL d   1     -55.469 -98.950 -43.993  0.00  0.00     0.129 C 
ATOM     30  N   UNL d   1     -54.889 -99.147 -43.433  0.00  0.00    -0.146 N 
ENDBRANCH  21  29
ENDBRANCH  12  21
ENDBRANCH   8  11
ENDBRANCH   1   5
TORSDOF 8
ENDMDL
