MODEL 1
REMARK VINA RESULT:      -5.7      0.000      0.000
REMARK  1 active torsions:
REMARK  status: ('A' for Active; 'I' for Inactive)
REMARK    1  A    between atoms: C_2  and  C_1 
REMARK       I    between atoms: N_3  and  C_2 
ROOT
ATOM      1  C   UNL d   1      56.938  -0.103  31.433  0.00  0.00     0.248 C 
ATOM      2  N   UNL d   1      57.638   0.208  31.752  0.00  0.00    -0.278 N 
ATOM      3  C   UNL d   1      58.177   0.400  31.274  0.00  0.00     0.067 A 
ATOM      4  C   UNL d   1      57.682   0.272  32.459  0.00  0.00     0.067 A 
ATOM      5  C   UNL d   1      58.383   0.581  32.738  0.00  0.00     0.018 A 
ATOM      6  C   UNL d   1      58.816   0.681  31.529  0.00  0.00     0.019 A 
ATOM      7  O   UNL d   1      57.001  -0.132  30.600  0.00  0.00    -0.271 OA
ATOM      8  C   UNL d   1      58.067   0.306  30.543  0.00  0.00     0.019 C 
ATOM      9  C   UNL d   1      57.083   0.058  32.984  0.00  0.00     0.018 A 
ATOM     10  C   UNL d   1      58.499   0.682  33.544  0.00  0.00     0.002 A 
ATOM     11  C   UNL d   1      57.196   0.158  33.796  0.00  0.00     0.002 A 
ATOM     12  C   UNL d   1      57.905   0.471  34.073  0.00  0.00     0.000 A 
ENDROOT
BRANCH   1  13
ATOM     13  C   UNL d   1      56.433  -0.273  32.040  0.00  0.00     0.112 A 
ATOM     14  C   UNL d   1      55.512  -0.144  33.117  0.00  0.00     0.025 A 
ATOM     15  C   UNL d   1      55.943  -0.692  32.649  0.00  0.00     0.074 A 
ATOM     16  C   UNL d   1      55.578   0.678  32.979  0.00  0.00     0.002 C 
ATOM     17  C   UNL d   1      55.087  -0.618  33.651  0.00  0.00     0.002 C 
ATOM     18  C   UNL d   1      55.513  -1.163  33.189  0.00  0.00     0.012 C 
ATOM     19  C   UNL d   1      56.269  -0.054  32.218  0.00  0.00    -0.023 A 
ATOM     20  C   UNL d   1      55.879  -1.502  32.782  0.00  0.00     0.172 A 
ATOM     21  C   UNL d   1      56.770   0.232  31.607  0.00  0.00    -0.018 A 
ATOM     22  C   UNL d   1      56.379  -1.216  32.172  0.00  0.00     0.024 A 
ATOM     23  O   UNL d   1      55.549  -2.138  33.216  0.00  0.00    -0.291 OA
ENDBRANCH   1  13
TORSDOF 1
ENDMDL
MODEL 2
REMARK VINA RESULT:      -4.5      1.217      2.604
REMARK  1 active torsions:
REMARK  status: ('A' for Active; 'I' for Inactive)
REMARK    1  A    between atoms: C_2  and  C_1 
REMARK       I    between atoms: N_3  and  C_2 
ROOT
ATOM      1  C   UNL d   1      55.162  -0.156  33.529  0.00  0.00     0.248 C 
ATOM      2  N   UNL d   1      55.581   0.157  34.173  0.00  0.00    -0.278 N 
ATOM      3  C   UNL d   1      55.193   0.330  34.785  0.00  0.00     0.067 A 
ATOM      4  C   UNL d   1      56.284   0.242  34.102  0.00  0.00     0.067 A 
ATOM      5  C   UNL d   1      56.665   0.553  34.753  0.00  0.00     0.018 A 
ATOM      6  C   UNL d   1      55.540   0.613  35.378  0.00  0.00     0.019 A 
ATOM      7  O   UNL d   1      54.351  -0.210  33.727  0.00  0.00    -0.271 OA
ATOM      8  C   UNL d   1      54.457   0.216  34.794  0.00  0.00     0.019 C 
ATOM      9  C   UNL d   1      56.710   0.050  33.423  0.00  0.00     0.018 A 
ATOM     10  C   UNL d   1      57.476   0.676  34.737  0.00  0.00     0.002 A 
ATOM     11  C   UNL d   1      57.526   0.172  33.403  0.00  0.00     0.002 A 
ATOM     12  C   UNL d   1      57.907   0.486  34.063  0.00  0.00     0.000 A 
ENDROOT
BRANCH   1  13
ATOM     13  C   UNL d   1      55.683  -0.303  32.930  0.00  0.00     0.112 A 
ATOM     14  C   UNL d   1      56.587  -0.135  31.845  0.00  0.00     0.025 A 
ATOM     15  C   UNL d   1      56.216  -0.699  32.343  0.00  0.00     0.074 A 
ATOM     16  C   UNL d   1      56.432   0.682  31.938  0.00  0.00     0.002 C 
ATOM     17  C   UNL d   1      57.061  -0.588  31.334  0.00  0.00     0.002 C 
ATOM     18  C   UNL d   1      56.695  -1.150  31.827  0.00  0.00     0.012 C 
ATOM     19  C   UNL d   1      55.823  -0.078  32.740  0.00  0.00    -0.023 A 
ATOM     20  C   UNL d   1      56.367  -1.503  32.253  0.00  0.00     0.172 A 
ATOM     21  C   UNL d   1      55.293   0.185  33.337  0.00  0.00    -0.018 A 
ATOM     22  C   UNL d   1      55.838  -1.241  32.849  0.00  0.00     0.024 A 
ATOM     23  O   UNL d   1      56.764  -2.123  31.852  0.00  0.00    -0.291 OA
ENDBRANCH   1  13
TORSDOF 1
ENDMDL
MODEL 3
REMARK VINA RESULT:      -3.0      1.202      2.207
REMARK  1 active torsions:
REMARK  status: ('A' for Active; 'I' for Inactive)
REMARK    1  A    between atoms: C_2  and  C_1 
REMARK       I    between atoms: N_3  and  C_2 
ROOT
ATOM      1  C   UNL d   1      56.796   0.282  32.380  0.00  0.00     0.248 C 
ATOM      2  N   UNL d   1      56.687  -0.501  32.130  0.00  0.00    -0.278 N 
ATOM      3  C   UNL d   1      57.020  -0.710  31.497  0.00  0.00     0.067 A 
ATOM      4  C   UNL d   1      56.282  -0.925  32.534  0.00  0.00     0.067 A 
ATOM      5  C   UNL d   1      56.195  -1.689  32.260  0.00  0.00     0.018 A 
ATOM      6  C   UNL d   1      56.941  -1.406  31.248  0.00  0.00     0.019 A 
ATOM      7  O   UNL d   1      57.285   0.682  31.831  0.00  0.00    -0.271 OA
ATOM      8  C   UNL d   1      57.431  -0.216  31.121  0.00  0.00     0.019 C 
ATOM      9  C   UNL d   1      55.915  -0.690  33.234  0.00  0.00     0.018 A 
ATOM     10  C   UNL d   1      55.742  -2.229  32.679  0.00  0.00     0.002 A 
ATOM     11  C   UNL d   1      55.458  -1.231  33.658  0.00  0.00     0.002 A 
ATOM     12  C   UNL d   1      55.373  -2.000  33.377  0.00  0.00     0.000 A 
ENDROOT
BRANCH   1  13
ATOM     13  C   UNL d   1      56.392   0.391  33.070  0.00  0.00     0.112 A 
ATOM     14  C   UNL d   1      55.346   0.573  34.017  0.00  0.00     0.025 A 
ATOM     15  C   UNL d   1      56.177   0.507  33.922  0.00  0.00     0.074 A 
ATOM     16  C   UNL d   1      54.837   0.527  33.355  0.00  0.00     0.002 C 
ATOM     17  C   UNL d   1      55.238   0.677  34.834  0.00  0.00     0.002 C 
ATOM     18  C   UNL d   1      56.062   0.612  34.744  0.00  0.00     0.012 C 
ATOM     19  C   UNL d   1      56.068   0.416  33.098  0.00  0.00    -0.023 A 
ATOM     20  C   UNL d   1      56.680   0.551  34.573  0.00  0.00     0.172 A 
ATOM     21  C   UNL d   1      56.386   0.303  32.329  0.00  0.00    -0.018 A 
ATOM     22  C   UNL d   1      56.998   0.439  33.805  0.00  0.00     0.024 A 
ATOM     23  O   UNL d   1      56.785   0.643  35.399  0.00  0.00    -0.291 OA
ENDBRANCH   1  13
TORSDOF 1
ENDMDL
MODEL 4
REMARK VINA RESULT:      -2.9      2.565      4.044
REMARK  1 active torsions:
REMARK  status: ('A' for Active; 'I' for Inactive)
REMARK    1  A    between atoms: C_2  and  C_1 
REMARK       I    between atoms: N_3  and  C_2 
ROOT
ATOM      1  C   UNL d   1      59.936   0.268  29.372  0.00  0.00     0.248 C 
ATOM      2  N   UNL d   1      59.981  -0.521  29.117  0.00  0.00    -0.278 N 
ATOM      3  C   UNL d   1      60.595  -0.728  28.750  0.00  0.00     0.067 A 
ATOM      4  C   UNL d   1      59.432  -0.949  29.265  0.00  0.00     0.067 A 
ATOM      5  C   UNL d   1      59.509  -1.717  29.000  0.00  0.00     0.018 A 
ATOM      6  C   UNL d   1      60.664  -1.428  28.509  0.00  0.00     0.019 A 
ATOM      7  O   UNL d   1      60.631   0.673  29.145  0.00  0.00    -0.271 OA
ATOM      8  C   UNL d   1      61.133  -0.228  28.629  0.00  0.00     0.019 C 
ATOM      9  C   UNL d   1      58.754  -0.715  29.672  0.00  0.00     0.018 A 
ATOM     10  C   UNL d   1      58.912  -2.263  29.137  0.00  0.00     0.002 A 
ATOM     11  C   UNL d   1      58.152  -1.262  29.811  0.00  0.00     0.002 A 
ATOM     12  C   UNL d   1      58.233  -2.036  29.542  0.00  0.00     0.000 A 
ENDROOT
BRANCH   1  13
ATOM     13  C   UNL d   1      59.233   0.374  29.755  0.00  0.00     0.112 A 
ATOM     14  C   UNL d   1      57.846   0.536  30.027  0.00  0.00     0.025 A 
ATOM     15  C   UNL d   1      58.609   0.498  30.373  0.00  0.00     0.074 A 
ATOM     16  C   UNL d   1      57.749   0.460  29.200  0.00  0.00     0.002 C 
ATOM     17  C   UNL d   1      57.332   0.651  30.671  0.00  0.00     0.002 C 
ATOM     18  C   UNL d   1      58.088   0.613  31.017  0.00  0.00     0.012 C 
ATOM     19  C   UNL d   1      58.939   0.388  29.613  0.00  0.00    -0.023 A 
ATOM     20  C   UNL d   1      58.707   0.571  31.187  0.00  0.00     0.172 A 
ATOM     21  C   UNL d   1      59.609   0.273  29.119  0.00  0.00    -0.018 A 
ATOM     22  C   UNL d   1      59.376   0.457  30.694  0.00  0.00     0.024 A 
ATOM     23  O   UNL d   1      58.372   0.681  31.948  0.00  0.00    -0.291 OA
ENDBRANCH   1  13
TORSDOF 1
ENDMDL
