MODEL 1
REMARK VINA RESULT:      -6.2      0.000      0.000
REMARK  5 active torsions:
REMARK  status: ('A' for Active; 'I' for Inactive)
REMARK    1  A    between atoms: N_4  and  C_1 
REMARK       I    between atoms: C_7  and  N_4 
REMARK    2  A    between atoms: C_8  and  C_7 
REMARK    3  A    between atoms: C_12  and  C_8 
REMARK    4  A    between atoms: S_10  and  C_12 
REMARK    5  A    between atoms: C_11  and  S_10 
ROOT
ATOM      1  C   UNL d   1     -41.122-122.671 -52.056  0.00  0.00     0.070 C 
ENDROOT
BRANCH   1   2
ATOM      2  C   UNL d   1     -41.469-122.660 -52.796  0.00  0.00     0.281 C 
ATOM      3  N   UNL d   1     -41.564-121.954 -53.210  0.00  0.00    -0.187 NA
ATOM      4  O   UNL d   1     -41.724-123.381 -53.121  0.00  0.00    -0.265 OA
BRANCH   3   5
ATOM      5  C   UNL d   1     -41.937-121.957 -54.002  0.00  0.00     0.194 A 
ATOM      6  N   UNL d   1     -42.627-121.507 -54.057  0.00  0.00    -0.107 NA
ATOM      7  O   UNL d   1     -42.910-121.562 -54.822  0.00  0.00    -0.210 OA
ATOM      8  C   UNL d   1     -42.390-122.051 -55.246  0.00  0.00     0.128 A 
ATOM      9  C   UNL d   1     -41.791-122.289 -54.725  0.00  0.00     0.068 A 
ATOM     10  C   UNL d   1     -42.463-122.256 -56.036  0.00  0.00     0.029 C 
ENDBRANCH   3   5
ENDBRANCH   1   2
BRANCH   1  11
ATOM     11  C   UNL d   1     -41.536-122.892 -51.383  0.00  0.00     0.040 C 
BRANCH  11  12
ATOM     12  S   UNL d   1     -41.185-122.829 -50.638  0.00  0.00    -0.086 SA
BRANCH  12  13
ATOM     13  C   UNL d   1     -41.617-123.054 -49.956  0.00  0.00     0.029 A 
ATOM     14  C   UNL d   1     -42.367-122.735 -49.819  0.00  0.00     0.007 A 
ATOM     15  C   UNL d   1     -42.798-122.962 -49.137  0.00  0.00     0.012 A 
ATOM     16  C   UNL d   1     -42.467-123.501 -48.610  0.00  0.00     0.058 A 
ATOM     17  C   UNL d   1     -41.717-123.817 -48.751  0.00  0.00     0.012 A 
ATOM     18 CL   UNL d   1     -42.899-123.725 -47.931  0.00  0.00    -0.082 Cl
ATOM     19  C   UNL d   1     -41.294-123.593 -49.424  0.00  0.00     0.007 A 
ENDBRANCH  12  13
ENDBRANCH  11  12
ENDBRANCH   1  11
TORSDOF 5
ENDMDL
MODEL 2
REMARK VINA RESULT:      -5.4      2.593      5.170
REMARK  5 active torsions:
REMARK  status: ('A' for Active; 'I' for Inactive)
REMARK    1  A    between atoms: N_4  and  C_1 
REMARK       I    between atoms: C_7  and  N_4 
REMARK    2  A    between atoms: C_8  and  C_7 
REMARK    3  A    between atoms: C_12  and  C_8 
REMARK    4  A    between atoms: S_10  and  C_12 
REMARK    5  A    between atoms: C_11  and  S_10 
ROOT
ATOM      1  C   UNL d   1     -41.266-122.691 -51.735  0.00  0.00     0.070 C 
ENDROOT
BRANCH   1   2
ATOM      2  C   UNL d   1     -41.625-122.970 -51.057  0.00  0.00     0.281 C 
ATOM      3  N   UNL d   1     -41.696-122.495 -50.387  0.00  0.00    -0.187 NA
ATOM      4  O   UNL d   1     -41.918-123.749 -51.059  0.00  0.00    -0.265 OA
BRANCH   3   5
ATOM      5  C   UNL d   1     -42.084-122.807 -49.666  0.00  0.00     0.194 A 
ATOM      6  N   UNL d   1     -42.853-122.533 -49.545  0.00  0.00    -0.107 NA
ATOM      7  O   UNL d   1     -43.140-122.869 -48.857  0.00  0.00    -0.210 OA
ATOM      8  C   UNL d   1     -42.543-123.356 -48.549  0.00  0.00     0.128 A 
ATOM      9  C   UNL d   1     -41.893-123.308 -49.061  0.00  0.00     0.068 A 
ATOM     10  C   UNL d   1     -42.596-123.800 -47.862  0.00  0.00     0.029 C 
ENDBRANCH   3   5
ENDBRANCH   1   2
BRANCH   1  11
ATOM     11  C   UNL d   1     -41.576-122.827 -52.482  0.00  0.00     0.040 C 
BRANCH  11  12
ATOM     12  S   UNL d   1     -41.123-122.680 -53.156  0.00  0.00    -0.086 SA
BRANCH  12  13
ATOM     13  C   UNL d   1     -41.504-122.518 -53.884  0.00  0.00     0.029 A 
ATOM     14  C   UNL d   1     -41.473-123.070 -54.498  0.00  0.00     0.007 A 
ATOM     15  C   UNL d   1     -41.854-122.907 -55.226  0.00  0.00     0.012 A 
ATOM     16  C   UNL d   1     -42.256-122.194 -55.322  0.00  0.00     0.058 A 
ATOM     17  C   UNL d   1     -42.284-121.645 -54.706  0.00  0.00     0.012 A 
ATOM     18 CL   UNL d   1     -42.635-122.034 -56.048  0.00  0.00    -0.082 Cl
ATOM     19  C   UNL d   1     -41.908-121.808 -53.988  0.00  0.00     0.007 A 
ENDBRANCH  12  13
ENDBRANCH  11  12
ENDBRANCH   1  11
TORSDOF 5
ENDMDL
