MODEL 1
REMARK VINA RESULT:      35.4      0.000      0.000
REMARK  2 active torsions:
REMARK  status: ('A' for Active; 'I' for Inactive)
REMARK    1  A    between atoms: N_5  and  C_1 
REMARK    2  A    between atoms: C_8  and  C_4 
ROOT
ATOM      1  C   UNL d   1      14.184  12.531  -2.055  0.00  0.00     0.166 A 
ATOM      2  N   UNL d   1      13.894  12.032  -2.621  0.00  0.00    -0.225 NA
ATOM      3  N   UNL d   1      13.739  13.621  -2.860  0.00  0.00    -0.241 NA
ATOM      4  C   UNL d   1      14.105  13.340  -2.176  0.00  0.00     0.116 A 
ATOM      5  C   UNL d   1      13.530  12.280  -3.301  0.00  0.00     0.101 A 
ATOM      6  C   UNL d   1      13.451  13.090  -3.423  0.00  0.00     0.099 A 
ATOM      7  C   UNL d   1      13.239  11.781  -3.868  0.00  0.00     0.021 A 
ATOM      8  C   UNL d   1      13.084  13.370  -4.107  0.00  0.00     0.021 A 
ATOM      9  C   UNL d   1      12.810  12.844  -4.644  0.00  0.00     0.002 A 
ATOM     10  C   UNL d   1      12.889  12.035  -4.523  0.00  0.00     0.002 A 
ENDROOT
BRANCH   1  11
ATOM     11  N   UNL d   1      14.547  12.282  -1.377  0.00  0.00    -0.284 N 
ATOM     12  C   UNL d   1      15.373  12.217  -1.380  0.00  0.00     0.108 A 
ATOM     13  C   UNL d   1      15.757  11.959  -0.680  0.00  0.00     0.142 A 
ATOM     14  O   UNL d   1      15.310  11.779  -0.016  0.00  0.00    -0.300 OA
ATOM     15  C   UNL d   1      14.495  11.849  -0.030  0.00  0.00     0.142 A 
ATOM     16  C   UNL d   1      14.092  12.101  -0.706  0.00  0.00     0.108 A 
ENDBRANCH   1  11
BRANCH   4  17
ATOM     17  C   UNL d   1      14.392  13.871  -1.616  0.00  0.00     0.021 A 
ATOM     18  C   UNL d   1      15.028  14.363  -1.800  0.00  0.00     0.002 A 
ATOM     19  C   UNL d   1      15.317  14.896  -1.239  0.00  0.00     0.000 A 
ATOM     20  C   UNL d   1      14.969  14.936  -0.492  0.00  0.00     0.000 A 
ATOM     21  C   UNL d   1      14.332  14.443  -0.307  0.00  0.00     0.000 A 
ATOM     22  C   UNL d   1      14.044  13.911  -0.869  0.00  0.00     0.002 A 
ENDBRANCH   4  17
TORSDOF 2
ENDMDL
MODEL 2
REMARK VINA RESULT:      35.8      0.792      2.013
REMARK  2 active torsions:
REMARK  status: ('A' for Active; 'I' for Inactive)
REMARK    1  A    between atoms: N_5  and  C_1 
REMARK    2  A    between atoms: C_8  and  C_4 
ROOT
ATOM      1  C   UNL d   1      14.083  13.398  -2.188  0.00  0.00     0.166 A 
ATOM      2  N   UNL d   1      13.711  13.637  -2.865  0.00  0.00    -0.225 NA
ATOM      3  N   UNL d   1      13.903  12.052  -2.623  0.00  0.00    -0.241 NA
ATOM      4  C   UNL d   1      14.180  12.591  -2.064  0.00  0.00     0.116 A 
ATOM      5  C   UNL d   1      13.429  13.129  -3.430  0.00  0.00     0.101 A 
ATOM      6  C   UNL d   1      13.526  12.322  -3.307  0.00  0.00     0.099 A 
ATOM      7  C   UNL d   1      13.057  13.367  -4.109  0.00  0.00     0.021 A 
ATOM      8  C   UNL d   1      13.248  11.783  -3.866  0.00  0.00     0.021 A 
ATOM      9  C   UNL d   1      12.885  12.058  -4.525  0.00  0.00     0.002 A 
ATOM     10  C   UNL d   1      12.788  12.865  -4.648  0.00  0.00     0.002 A 
ENDROOT
BRANCH   1  11
ATOM     11  N   UNL d   1      14.364  13.905  -1.625  0.00  0.00    -0.284 N 
ATOM     12  C   UNL d   1      14.939  14.457  -1.852  0.00  0.00     0.108 A 
ATOM     13  C   UNL d   1      15.236  14.987  -1.273  0.00  0.00     0.142 A 
ATOM     14  O   UNL d   1      14.953  14.947  -0.504  0.00  0.00    -0.300 OA
ATOM     15  C   UNL d   1      14.385  14.396  -0.297  0.00  0.00     0.142 A 
ATOM     16  C   UNL d   1      14.075  13.862  -0.847  0.00  0.00     0.108 A 
ENDBRANCH   1  11
BRANCH   4  17
ATOM     17  C   UNL d   1      14.555  12.321  -1.383  0.00  0.00     0.021 A 
ATOM     18  C   UNL d   1      15.378  12.269  -1.357  0.00  0.00     0.002 A 
ATOM     19  C   UNL d   1      15.756  11.998  -0.674  0.00  0.00     0.000 A 
ATOM     20  C   UNL d   1      15.309  11.779  -0.016  0.00  0.00     0.000 A 
ATOM     21  C   UNL d   1      14.484  11.831  -0.041  0.00  0.00     0.000 A 
ATOM     22  C   UNL d   1      14.108  12.102  -0.725  0.00  0.00     0.002 A 
ENDBRANCH   4  17
TORSDOF 2
ENDMDL
MODEL 3
REMARK VINA RESULT:      35.9      8.536      9.771
REMARK  2 active torsions:
REMARK  status: ('A' for Active; 'I' for Inactive)
REMARK    1  A    between atoms: N_5  and  C_1 
REMARK    2  A    between atoms: C_8  and  C_4 
ROOT
ATOM      1  C   UNL d   1      24.066  13.146  -2.084  0.00  0.00     0.166 A 
ATOM      2  N   UNL d   1      24.482  13.254  -2.769  0.00  0.00    -0.225 NA
ATOM      3  N   UNL d   1      23.325  12.129  -2.753  0.00  0.00    -0.241 NA
ATOM      4  C   UNL d   1      23.477  12.573  -2.075  0.00  0.00     0.116 A 
ATOM      5  C   UNL d   1      24.353  12.832  -3.449  0.00  0.00     0.101 A 
ATOM      6  C   UNL d   1      23.763  12.259  -3.441  0.00  0.00     0.099 A 
ATOM      7  C   UNL d   1      24.768  12.940  -4.136  0.00  0.00     0.021 A 
ATOM      8  C   UNL d   1      23.611  11.815  -4.119  0.00  0.00     0.021 A 
ATOM      9  C   UNL d   1      24.044  11.951  -4.778  0.00  0.00     0.002 A 
ATOM     10  C   UNL d   1      24.633  12.524  -4.787  0.00  0.00     0.002 A 
ENDROOT
BRANCH   1  11
ATOM     11  N   UNL d   1      24.196  13.568  -1.407  0.00  0.00    -0.284 N 
ATOM     12  C   UNL d   1      24.627  13.205  -0.800  0.00  0.00     0.108 A 
ATOM     13  C   UNL d   1      24.766  13.637  -0.094  0.00  0.00     0.142 A 
ATOM     14  O   UNL d   1      24.474  14.401  -0.022  0.00  0.00    -0.300 OA
ATOM     15  C   UNL d   1      24.050  14.744  -0.631  0.00  0.00     0.142 A 
ATOM     16  C   UNL d   1      23.899  14.342  -1.337  0.00  0.00     0.108 A 
ENDBRANCH   1  11
BRANCH   4  17
ATOM     17  C   UNL d   1      23.039  12.443  -1.390  0.00  0.00     0.021 A 
ATOM     18  C   UNL d   1      22.327  12.843  -1.273  0.00  0.00     0.002 A 
ATOM     19  C   UNL d   1      21.886  12.713  -0.586  0.00  0.00     0.000 A 
ATOM     20  C   UNL d   1      22.159  12.182  -0.017  0.00  0.00     0.000 A 
ATOM     21  C   UNL d   1      22.873  11.781  -0.134  0.00  0.00     0.000 A 
ATOM     22  C   UNL d   1      23.312  11.912  -0.821  0.00  0.00     0.002 A 
ENDBRANCH   4  17
TORSDOF 2
ENDMDL
MODEL 4
REMARK VINA RESULT:      38.1      1.541      3.889
REMARK  2 active torsions:
REMARK  status: ('A' for Active; 'I' for Inactive)
REMARK    1  A    between atoms: N_5  and  C_1 
REMARK    2  A    between atoms: C_8  and  C_4 
ROOT
ATOM      1  C   UNL d   1      13.994  13.441  -2.671  0.00  0.00     0.166 A 
ATOM      2  N   UNL d   1      14.226  13.660  -1.928  0.00  0.00    -0.225 NA
ATOM      3  N   UNL d   1      14.186  12.085  -2.275  0.00  0.00    -0.241 NA
ATOM      4  C   UNL d   1      13.973  12.638  -2.848  0.00  0.00     0.116 A 
ATOM      5  C   UNL d   1      14.440  13.138  -1.347  0.00  0.00     0.101 A 
ATOM      6  C   UNL d   1      14.420  12.335  -1.523  0.00  0.00     0.099 A 
ATOM      7  C   UNL d   1      14.673  13.357  -0.603  0.00  0.00     0.021 A 
ATOM      8  C   UNL d   1      14.633  11.782  -0.950  0.00  0.00     0.021 A 
ATOM      9  C   UNL d   1      14.857  12.039  -0.226  0.00  0.00     0.002 A 
ATOM     10  C   UNL d   1      14.878  12.841  -0.049  0.00  0.00     0.002 A 
ENDROOT
BRANCH   1  11
ATOM     11  N   UNL d   1      13.780  13.963  -3.250  0.00  0.00    -0.284 N 
ATOM     12  C   UNL d   1      14.368  14.451  -3.568  0.00  0.00     0.108 A 
ATOM     13  C   UNL d   1      14.154  14.996  -4.169  0.00  0.00     0.142 A 
ATOM     14  O   UNL d   1      13.375  15.032  -4.425  0.00  0.00    -0.300 OA
ATOM     15  C   UNL d   1      12.807  14.542  -4.100  0.00  0.00     0.142 A 
ATOM     16  C   UNL d   1      12.990  13.996  -3.507  0.00  0.00     0.108 A 
ENDBRANCH   1  11
BRANCH   4  17
ATOM     17  C   UNL d   1      13.741  12.387  -3.597  0.00  0.00     0.021 A 
ATOM     18  C   UNL d   1      13.003  12.032  -3.702  0.00  0.00     0.002 A 
ATOM     19  C   UNL d   1      12.769  11.779  -4.453  0.00  0.00     0.000 A 
ATOM     20  C   UNL d   1      13.272  11.882  -5.098  0.00  0.00     0.000 A 
ATOM     21  C   UNL d   1      14.011  12.238  -4.993  0.00  0.00     0.000 A 
ATOM     22  C   UNL d   1      14.244  12.490  -4.242  0.00  0.00     0.002 A 
ENDBRANCH   4  17
TORSDOF 2
ENDMDL
