MODEL 1
REMARK VINA RESULT:      32.2      0.000      0.000
REMARK  2 active torsions:
REMARK  status: ('A' for Active; 'I' for Inactive)
REMARK    1  A    between atoms: C_9  and  C_1 
REMARK    2  A    between atoms: N_7  and  C_2 
ROOT
ATOM      1  C   UNL d   1     -51.107  25.540  33.318  0.00  0.00     0.022 A 
ATOM      2  C   UNL d   1     -51.922  25.459  33.315  0.00  0.00     0.123 A 
ATOM      3  C   UNL d   1     -52.400  26.114  33.310  0.00  0.00     0.295 A 
ATOM      4  C   UNL d   1     -50.763  26.303  33.314  0.00  0.00     0.020 A 
ATOM      5  N   UNL d   1     -52.074  26.867  33.307  0.00  0.00    -0.207 NA
ATOM      6  C   UNL d   1     -51.241  26.959  33.309  0.00  0.00     0.085 A 
ATOM      7  C   UNL d   1     -49.955  26.380  33.316  0.00  0.00     0.013 A 
ATOM      8  O   UNL d   1     -53.235  25.993  33.308  0.00  0.00    -0.264 OA
ATOM      9  C   UNL d   1     -50.922  27.707  33.306  0.00  0.00     0.020 A 
ATOM     10  C   UNL d   1     -49.611  27.143  33.313  0.00  0.00     0.058 A 
ATOM     11  C   UNL d   1     -50.089  27.798  33.308  0.00  0.00     0.013 A 
ATOM     12 CL   UNL d   1     -48.780  27.261  33.315  0.00  0.00    -0.082 Cl
ENDROOT
BRANCH   1  13
ATOM     13  C   UNL d   1     -50.616  24.866  33.323  0.00  0.00     0.002 A 
ATOM     14  C   UNL d   1     -49.806  24.950  33.344  0.00  0.00     0.000 A 
ATOM     15  C   UNL d   1     -49.321  24.285  33.349  0.00  0.00     0.000 A 
ATOM     16  C   UNL d   1     -49.663  23.533  33.333  0.00  0.00     0.000 A 
ATOM     17  C   UNL d   1     -50.473  23.445  33.311  0.00  0.00     0.000 A 
ATOM     18  C   UNL d   1     -50.965  24.120  33.306  0.00  0.00     0.000 A 
ENDBRANCH   1  13
BRANCH   2  19
ATOM     19  N   UNL d   1     -52.240  24.715  33.319  0.00  0.00    -0.296 N 
ATOM     20  C   UNL d   1     -53.068  24.623  33.306  0.00  0.00     0.107 A 
ATOM     21  C   UNL d   1     -53.405  23.865  33.309  0.00  0.00     0.142 A 
ATOM     22  O   UNL d   1     -52.911  23.194  33.325  0.00  0.00    -0.300 OA
ATOM     23  C   UNL d   1     -52.094  23.287  33.337  0.00  0.00     0.142 A 
ATOM     24  C   UNL d   1     -51.749  24.041  33.334  0.00  0.00     0.107 A 
ENDBRANCH   2  19
TORSDOF 2
ENDMDL
