MODEL 1
REMARK VINA RESULT:      -6.6      0.000      0.000
REMARK  4 active torsions:
REMARK  status: ('A' for Active; 'I' for Inactive)
REMARK    1  A    between atoms: C_7  and  C_3 
REMARK       I    between atoms: N_13  and  C_7 
REMARK    2  A    between atoms: C_14  and  N_13 
REMARK    3  A    between atoms: C_16  and  C_14 
REMARK    4  A    between atoms: C_15  and  C_16 
ROOT
ATOM      1  C   UNL d   1     -41.479-122.413 -51.442  0.00  0.00     0.285 C 
ATOM      2  O   UNL d   1     -41.227-121.638 -51.466  0.00  0.00    -0.265 OA
ATOM      3  N   UNL d   1     -41.599-122.831 -52.138  0.00  0.00    -0.206 NA
ENDROOT
BRANCH   1   4
ATOM      4  C   UNL d   1     -41.618-122.787 -50.717  0.00  0.00     0.133 A 
ATOM      5  C   UNL d   1     -42.262-122.552 -50.258  0.00  0.00     0.272 A 
ATOM      6  N   UNL d   1     -42.412-122.919 -49.530  0.00  0.00    -0.265 N 
ATOM      7  O   UNL d   1     -42.761-121.951 -50.516  0.00  0.00    -0.266 OA
ATOM      8  C   UNL d   1     -41.912-123.519 -49.272  0.00  0.00     0.181 A 
ATOM      9  C   UNL d   1     -42.993-122.807 -48.968  0.00  0.00     0.123 A 
ATOM     10  N   UNL d   1     -41.271-123.755 -49.728  0.00  0.00    -0.220 NA
ATOM     11  S   UNL d   1     -42.187-123.782 -48.541  0.00  0.00    -0.049 SA
ATOM     12  C   UNL d   1     -41.122-123.389 -50.452  0.00  0.00     0.111 A 
ATOM     13  C   UNL d   1     -42.862-123.334 -48.355  0.00  0.00     0.043 A 
ENDBRANCH   1   4
BRANCH   3  14
ATOM     14  C   UNL d   1     -41.465-122.468 -52.863  0.00  0.00     0.102 C 
BRANCH  14  15
ATOM     15  C   UNL d   1     -41.483-122.901 -53.566  0.00  0.00     0.021 C 
BRANCH  15  16
ATOM     16  C   UNL d   1     -41.698-122.534 -54.276  0.00  0.00     0.002 A 
ATOM     17  C   UNL d   1     -42.387-122.081 -54.310  0.00  0.00     0.000 A 
ATOM     18  C   UNL d   1     -42.599-121.719 -55.013  0.00  0.00     0.000 A 
ATOM     19  C   UNL d   1     -42.124-121.804 -55.695  0.00  0.00     0.000 A 
ATOM     20  C   UNL d   1     -41.441-122.256 -55.651  0.00  0.00     0.000 A 
ATOM     21  C   UNL d   1     -41.221-122.624 -54.948  0.00  0.00     0.000 A 
ENDBRANCH  15  16
ENDBRANCH  14  15
ENDBRANCH   3  14
TORSDOF 4
ENDMDL
MODEL 2
REMARK VINA RESULT:      -6.0      1.772      4.950
REMARK  4 active torsions:
REMARK  status: ('A' for Active; 'I' for Inactive)
REMARK    1  A    between atoms: C_7  and  C_3 
REMARK       I    between atoms: N_13  and  C_7 
REMARK    2  A    between atoms: C_14  and  N_13 
REMARK    3  A    between atoms: C_16  and  C_14 
REMARK    4  A    between atoms: C_15  and  C_16 
ROOT
ATOM      1  C   UNL d   1     -41.397-122.417 -52.065  0.00  0.00     0.285 C 
ATOM      2  O   UNL d   1     -41.124-121.707 -51.774  0.00  0.00    -0.265 OA
ATOM      3  N   UNL d   1     -41.604-123.023 -51.551  0.00  0.00    -0.206 NA
ENDROOT
BRANCH   1   4
ATOM      4  C   UNL d   1     -41.469-122.538 -52.881  0.00  0.00     0.133 A 
ATOM      5  C   UNL d   1     -41.885-121.989 -53.335  0.00  0.00     0.272 A 
ATOM      6  N   UNL d   1     -41.965-122.097 -54.152  0.00  0.00    -0.265 N 
ATOM      7  O   UNL d   1     -42.226-121.328 -52.982  0.00  0.00    -0.266 OA
ATOM      8  C   UNL d   1     -41.624-122.758 -54.505  0.00  0.00     0.181 A 
ATOM      9  C   UNL d   1     -42.336-121.658 -54.732  0.00  0.00     0.123 A 
ATOM     10  N   UNL d   1     -41.209-123.305 -54.055  0.00  0.00    -0.220 NA
ATOM     11  S   UNL d   1     -41.786-122.728 -55.312  0.00  0.00    -0.049 SA
ATOM     12  C   UNL d   1     -41.131-123.196 -53.241  0.00  0.00     0.111 A 
ATOM     13  C   UNL d   1     -42.232-122.039 -55.449  0.00  0.00     0.043 A 
ENDBRANCH   1   4
BRANCH   3  14
ATOM     14  C   UNL d   1     -41.537-122.914 -50.740  0.00  0.00     0.102 C 
BRANCH  14  15
ATOM     15  C   UNL d   1     -41.676-123.534 -50.213  0.00  0.00     0.021 C 
BRANCH  15  16
ATOM     16  C   UNL d   1     -41.807-123.379 -49.411  0.00  0.00     0.002 A 
ATOM     17  C   UNL d   1     -41.192-123.480 -48.869  0.00  0.00     0.000 A 
ATOM     18  C   UNL d   1     -41.322-123.327 -48.076  0.00  0.00     0.000 A 
ATOM     19  C   UNL d   1     -42.071-123.069 -47.810  0.00  0.00     0.000 A 
ATOM     20  C   UNL d   1     -42.675-122.972 -48.356  0.00  0.00     0.000 A 
ATOM     21  C   UNL d   1     -42.553-123.124 -49.156  0.00  0.00     0.000 A 
ENDBRANCH  15  16
ENDBRANCH  14  15
ENDBRANCH   3  14
TORSDOF 4
ENDMDL
MODEL 3
REMARK VINA RESULT:      -4.3      1.088      1.625
REMARK  4 active torsions:
REMARK  status: ('A' for Active; 'I' for Inactive)
REMARK    1  A    between atoms: C_7  and  C_3 
REMARK       I    between atoms: N_13  and  C_7 
REMARK    2  A    between atoms: C_14  and  N_13 
REMARK    3  A    between atoms: C_16  and  C_14 
REMARK    4  A    between atoms: C_15  and  C_16 
ROOT
ATOM      1  C   UNL d   1     -42.034-122.609 -50.119  0.00  0.00     0.285 C 
ATOM      2  O   UNL d   1     -42.565-122.031 -50.341  0.00  0.00    -0.265 OA
ATOM      3  N   UNL d   1     -41.581-122.995 -50.685  0.00  0.00    -0.206 NA
ENDROOT
BRANCH   1   4
ATOM      4  C   UNL d   1     -41.945-122.814 -49.322  0.00  0.00     0.133 A 
ATOM      5  C   UNL d   1     -42.618-122.907 -48.853  0.00  0.00     0.272 A 
ATOM      6  N   UNL d   1     -42.543-123.113 -48.054  0.00  0.00    -0.265 N 
ATOM      7  O   UNL d   1     -43.368-122.798 -49.172  0.00  0.00    -0.266 OA
ATOM      8  C   UNL d   1     -41.792-123.223 -47.735  0.00  0.00     0.181 A 
ATOM      9  C   UNL d   1     -43.094-123.241 -47.465  0.00  0.00     0.123 A 
ATOM     10  N   UNL d   1     -41.123-123.130 -48.201  0.00  0.00    -0.220 NA
ATOM     11  S   UNL d   1     -41.880-123.421 -46.940  0.00  0.00    -0.049 SA
ATOM     12  C   UNL d   1     -41.198-122.926 -48.997  0.00  0.00     0.111 A 
ATOM     13  C   UNL d   1     -42.695-123.431 -46.776  0.00  0.00     0.043 A 
ENDBRANCH   1   4
BRANCH   3  14
ATOM     14  C   UNL d   1     -41.661-122.798 -51.478  0.00  0.00     0.102 C 
BRANCH  14  15
ATOM     15  C   UNL d   1     -41.128-123.080 -52.043  0.00  0.00     0.021 C 
BRANCH  15  16
ATOM     16  C   UNL d   1     -41.287-122.986 -52.850  0.00  0.00     0.002 A 
ATOM     17  C   UNL d   1     -41.171-122.250 -53.207  0.00  0.00     0.000 A 
ATOM     18  C   UNL d   1     -41.329-122.159 -54.005  0.00  0.00     0.000 A 
ATOM     19  C   UNL d   1     -41.605-122.802 -54.460  0.00  0.00     0.000 A 
ATOM     20  C   UNL d   1     -41.717-123.529 -54.097  0.00  0.00     0.000 A 
ATOM     21  C   UNL d   1     -41.561-123.629 -53.295  0.00  0.00     0.000 A 
ENDBRANCH  15  16
ENDBRANCH  14  15
ENDBRANCH   3  14
TORSDOF 4
ENDMDL
