MODEL 1
REMARK VINA RESULT:      -2.1      0.000      0.000
REMARK  7 active torsions:
REMARK  status: ('A' for Active; 'I' for Inactive)
REMARK    1  A    between atoms: C_6  and  N_1 
REMARK    2  A    between atoms: C_7  and  C_2 
REMARK    3  A    between atoms: C_11  and  C_6 
REMARK    4  A    between atoms: N_8  and  C_12 
REMARK    5  A    between atoms: C_9  and  N_8 
REMARK    6  A    between atoms: C_17  and  C_9 
REMARK    7  A    between atoms: C_12  and  C_11 
ROOT
ATOM      1  N   UNL d   1      31.886  17.477 -24.226  0.00  0.00    -0.301 N 
ATOM      2  C   UNL d   1      30.610  17.363 -24.598  0.00  0.00     0.061 A 
ATOM      3  C   UNL d   1      31.274  17.843 -24.647  0.00  0.00     0.084 A 
ATOM      4  C   UNL d   1      31.589  16.765 -23.919  0.00  0.00     0.064 A 
ATOM      5  C   UNL d   1      30.795  16.695 -24.150  0.00  0.00     0.021 A 
ATOM      6  C   UNL d   1      31.937  16.173 -23.458  0.00  0.00     0.018 A 
ATOM      7  C   UNL d   1      30.357  16.042 -23.924  0.00  0.00     0.002 A 
ATOM      8  C   UNL d   1      30.703  15.453 -23.466  0.00  0.00     0.000 A 
ATOM      9  C   UNL d   1      31.488  15.521 -23.237  0.00  0.00     0.002 A 
ENDROOT
BRANCH   1  10
ATOM     10  C   UNL d   1      32.653  17.760 -24.127  0.00  0.00     0.124 C 
BRANCH  10  11
ATOM     11  C   UNL d   1      32.804  18.569 -24.183  0.00  0.00     0.232 C 
ATOM     12  O   UNL d   1      32.801  18.937 -24.929  0.00  0.00    -0.283 OA
BRANCH  11  13
ATOM     13  C   UNL d   1      32.958  19.020 -23.502  0.00  0.00     0.137 C 
BRANCH  13  14
ATOM     14  N   UNL d   1      33.077  19.832 -23.558  0.00  0.00    -0.262 NA
BRANCH  14  15
ATOM     15  C   UNL d   1      33.112  20.293 -22.879  0.00  0.00     0.143 C 
ATOM     16  C   UNL d   1      33.241  21.106 -22.931  0.00  0.00     0.032 C 
ATOM     17  C   UNL d   1      33.229  20.830 -23.498  0.00  0.00     0.032 C 
BRANCH  15  18
ATOM     18  C   UNL d   1      33.015  19.940 -22.132  0.00  0.00     0.229 C 
ATOM     19  O   UNL d   1      33.083  20.398 -21.448  0.00  0.00    -0.286 OA
ENDBRANCH  15  18
ENDBRANCH  14  15
ENDBRANCH  13  14
ENDBRANCH  11  13
ENDBRANCH  10  11
ENDBRANCH   1  10
BRANCH   2  20
ATOM     20  C   UNL d   1      29.913  17.595 -24.970  0.00  0.00     0.236 C 
ATOM     21  O   UNL d   1      29.553  18.313 -24.778  0.00  0.00    -0.283 OA
ENDBRANCH   2  20
TORSDOF 7
ENDMDL
MODEL 2
REMARK VINA RESULT:      -1.8      0.881      1.121
REMARK  7 active torsions:
REMARK  status: ('A' for Active; 'I' for Inactive)
REMARK    1  A    between atoms: C_6  and  N_1 
REMARK    2  A    between atoms: C_7  and  C_2 
REMARK    3  A    between atoms: C_11  and  C_6 
REMARK    4  A    between atoms: N_8  and  C_12 
REMARK    5  A    between atoms: C_9  and  N_8 
REMARK    6  A    between atoms: C_17  and  C_9 
REMARK    7  A    between atoms: C_12  and  C_11 
ROOT
ATOM      1  N   UNL d   1      32.627  17.982 -23.720  0.00  0.00    -0.301 N 
ATOM      2  C   UNL d   1      31.516  17.592 -24.346  0.00  0.00     0.061 A 
ATOM      3  C   UNL d   1      31.984  18.243 -24.172  0.00  0.00     0.084 A 
ATOM      4  C   UNL d   1      32.546  17.162 -23.618  0.00  0.00     0.064 A 
ATOM      5  C   UNL d   1      31.854  16.920 -24.008  0.00  0.00     0.021 A 
ATOM      6  C   UNL d   1      33.011  16.606 -23.222  0.00  0.00     0.018 A 
ATOM      7  C   UNL d   1      31.633  16.132 -24.000  0.00  0.00     0.002 A 
ATOM      8  C   UNL d   1      32.095  15.578 -23.606  0.00  0.00     0.000 A 
ATOM      9  C   UNL d   1      32.779  15.817 -23.220  0.00  0.00     0.002 A 
ENDROOT
BRANCH   1  10
ATOM     10  C   UNL d   1      33.239  18.446 -23.421  0.00  0.00     0.124 C 
BRANCH  10  11
ATOM     11  C   UNL d   1      33.160  19.267 -23.398  0.00  0.00     0.232 C 
ATOM     12  O   UNL d   1      32.999  19.685 -24.099  0.00  0.00    -0.283 OA
BRANCH  11  13
ATOM     13  C   UNL d   1      33.241  19.680 -22.682  0.00  0.00     0.137 C 
BRANCH  13  14
ATOM     14  N   UNL d   1      32.944  20.443 -22.606  0.00  0.00    -0.262 NA
BRANCH  14  15
ATOM     15  C   UNL d   1      33.020  20.848 -21.894  0.00  0.00     0.143 C 
ATOM     16  C   UNL d   1      33.102  21.669 -21.887  0.00  0.00     0.032 C 
ATOM     17  C   UNL d   1      33.049  21.441 -22.472  0.00  0.00     0.032 C 
BRANCH  15  18
ATOM     18  C   UNL d   1      33.015  20.429 -21.176  0.00  0.00     0.229 C 
ATOM     19  O   UNL d   1      32.853  20.825 -20.470  0.00  0.00    -0.286 OA
ENDBRANCH  15  18
ENDBRANCH  14  15
ENDBRANCH  13  14
ENDBRANCH  11  13
ENDBRANCH  10  11
ENDBRANCH   1  10
BRANCH   2  20
ATOM     20  C   UNL d   1      30.831  17.691 -24.794  0.00  0.00     0.236 C 
ATOM     21  O   UNL d   1      30.374  18.374 -24.716  0.00  0.00    -0.283 OA
ENDBRANCH   2  20
TORSDOF 7
ENDMDL
MODEL 3
REMARK VINA RESULT:      -1.7      1.525      2.248
REMARK  7 active torsions:
REMARK  status: ('A' for Active; 'I' for Inactive)
REMARK    1  A    between atoms: C_6  and  N_1 
REMARK    2  A    between atoms: C_7  and  C_2 
REMARK    3  A    between atoms: C_11  and  C_6 
REMARK    4  A    between atoms: N_8  and  C_12 
REMARK    5  A    between atoms: C_9  and  N_8 
REMARK    6  A    between atoms: C_17  and  C_9 
REMARK    7  A    between atoms: C_12  and  C_11 
ROOT
ATOM      1  N   UNL d   1      32.703  17.996 -23.686  0.00  0.00    -0.301 N 
ATOM      2  C   UNL d   1      32.709  16.663 -23.725  0.00  0.00     0.061 A 
ATOM      3  C   UNL d   1      33.130  17.321 -23.472  0.00  0.00     0.084 A 
ATOM      4  C   UNL d   1      32.014  17.745 -24.074  0.00  0.00     0.064 A 
ATOM      5  C   UNL d   1      32.018  16.915 -24.098  0.00  0.00     0.021 A 
ATOM      6  C   UNL d   1      31.383  18.163 -24.409  0.00  0.00     0.018 A 
ATOM      7  C   UNL d   1      31.400  16.511 -24.451  0.00  0.00     0.002 A 
ATOM      8  C   UNL d   1      30.774  16.926 -24.784  0.00  0.00     0.000 A 
ATOM      9  C   UNL d   1      30.769  17.746 -24.761  0.00  0.00     0.002 A 
ENDROOT
BRANCH   1  10
ATOM     10  C   UNL d   1      32.916  18.779 -23.544  0.00  0.00     0.124 C 
BRANCH  10  11
ATOM     11  C   UNL d   1      33.082  19.028 -22.775  0.00  0.00     0.232 C 
ATOM     12  O   UNL d   1      33.092  18.472 -22.156  0.00  0.00    -0.283 OA
BRANCH  11  13
ATOM     13  C   UNL d   1      33.239  19.828 -22.613  0.00  0.00     0.137 C 
BRANCH  13  14
ATOM     14  N   UNL d   1      33.106  20.134 -21.862  0.00  0.00    -0.262 NA
BRANCH  14  15
ATOM     15  C   UNL d   1      33.051  20.947 -21.749  0.00  0.00     0.143 C 
ATOM     16  C   UNL d   1      32.808  21.253 -21.022  0.00  0.00     0.032 C 
ATOM     17  C   UNL d   1      32.822  20.623 -21.022  0.00  0.00     0.032 C 
BRANCH  15  18
ATOM     18  C   UNL d   1      33.241  21.465 -22.371  0.00  0.00     0.229 C 
ATOM     19  O   UNL d   1      33.056  22.268 -22.308  0.00  0.00    -0.286 OA
ENDBRANCH  15  18
ENDBRANCH  14  15
ENDBRANCH  13  14
ENDBRANCH  11  13
ENDBRANCH  10  11
ENDBRANCH   1  10
BRANCH   2  20
ATOM     20  C   UNL d   1      33.009  15.909 -23.583  0.00  0.00     0.236 C 
ATOM     21  O   UNL d   1      33.139  15.648 -22.811  0.00  0.00    -0.283 OA
ENDBRANCH   2  20
TORSDOF 7
ENDMDL
MODEL 4
REMARK VINA RESULT:      -1.6      2.317      3.835
REMARK  7 active torsions:
REMARK  status: ('A' for Active; 'I' for Inactive)
REMARK    1  A    between atoms: C_6  and  N_1 
REMARK    2  A    between atoms: C_7  and  C_2 
REMARK    3  A    between atoms: C_11  and  C_6 
REMARK    4  A    between atoms: N_8  and  C_12 
REMARK    5  A    between atoms: C_9  and  N_8 
REMARK    6  A    between atoms: C_17  and  C_9 
REMARK    7  A    between atoms: C_12  and  C_11 
ROOT
ATOM      1  N   UNL d   1      33.189  19.992 -22.654  0.00  0.00    -0.301 N 
ATOM      2  C   UNL d   1      33.105  18.732 -23.082  0.00  0.00     0.061 A 
ATOM      3  C   UNL d   1      33.134  19.203 -22.410  0.00  0.00     0.084 A 
ATOM      4  C   UNL d   1      33.192  19.999 -23.484  0.00  0.00     0.064 A 
ATOM      5  C   UNL d   1      33.140  19.215 -23.750  0.00  0.00     0.021 A 
ATOM      6  C   UNL d   1      33.236  20.617 -24.032  0.00  0.00     0.018 A 
ATOM      7  C   UNL d   1      33.132  19.053 -24.552  0.00  0.00     0.002 A 
ATOM      8  C   UNL d   1      33.176  19.666 -25.097  0.00  0.00     0.000 A 
ATOM      9  C   UNL d   1      33.227  20.443 -24.835  0.00  0.00     0.002 A 
ENDROOT
BRANCH   1  10
ATOM     10  C   UNL d   1      33.232  20.656 -22.167  0.00  0.00     0.124 C 
BRANCH  10  11
ATOM     11  C   UNL d   1      32.951  20.617 -21.393  0.00  0.00     0.232 C 
ATOM     12  O   UNL d   1      33.130  19.955 -20.922  0.00  0.00    -0.283 OA
BRANCH  11  13
ATOM     13  C   UNL d   1      32.490  21.233 -21.079  0.00  0.00     0.137 C 
BRANCH  13  14
ATOM     14  N   UNL d   1      32.771  21.686 -20.453  0.00  0.00    -0.262 NA
BRANCH  14  15
ATOM     15  C   UNL d   1      32.523  22.465 -20.360  0.00  0.00     0.143 C 
ATOM     16  C   UNL d   1      32.761  22.904 -19.704  0.00  0.00     0.032 C 
ATOM     17  C   UNL d   1      32.996  22.320 -19.697  0.00  0.00     0.032 C 
BRANCH  15  18
ATOM     18  C   UNL d   1      32.027  22.812 -20.931  0.00  0.00     0.229 C 
ATOM     19  O   UNL d   1      32.238  23.534 -21.273  0.00  0.00    -0.286 OA
ENDBRANCH  15  18
ENDBRANCH  14  15
ENDBRANCH  13  14
ENDBRANCH  11  13
ENDBRANCH  10  11
ENDBRANCH   1  10
BRANCH   2  20
ATOM     20  C   UNL d   1      33.049  17.914 -23.003  0.00  0.00     0.236 C 
ATOM     21  O   UNL d   1      32.481  17.578 -22.507  0.00  0.00    -0.283 OA
ENDBRANCH   2  20
TORSDOF 7
ENDMDL
MODEL 5
REMARK VINA RESULT:      -1.5      1.478      2.434
REMARK  7 active torsions:
REMARK  status: ('A' for Active; 'I' for Inactive)
REMARK    1  A    between atoms: C_6  and  N_1 
REMARK    2  A    between atoms: C_7  and  C_2 
REMARK    3  A    between atoms: C_11  and  C_6 
REMARK    4  A    between atoms: N_8  and  C_12 
REMARK    5  A    between atoms: C_9  and  N_8 
REMARK    6  A    between atoms: C_17  and  C_9 
REMARK    7  A    between atoms: C_12  and  C_11 
ROOT
ATOM      1  N   UNL d   1      30.076  16.328 -24.131  0.00  0.00    -0.301 N 
ATOM      2  C   UNL d   1      29.057  17.066 -24.573  0.00  0.00     0.061 A 
ATOM      3  C   UNL d   1      29.859  16.921 -24.666  0.00  0.00     0.084 A 
ATOM      4  C   UNL d   1      29.395  16.111 -23.708  0.00  0.00     0.064 A 
ATOM      5  C   UNL d   1      28.761  16.571 -23.984  0.00  0.00     0.021 A 
ATOM      6  C   UNL d   1      29.270  15.555 -23.108  0.00  0.00     0.018 A 
ATOM      7  C   UNL d   1      28.014  16.474 -23.664  0.00  0.00     0.002 A 
ATOM      8  C   UNL d   1      27.889  15.922 -23.068  0.00  0.00     0.000 A 
ATOM      9  C   UNL d   1      28.516  15.467 -22.794  0.00  0.00     0.002 A 
ENDROOT
BRANCH   1  10
ATOM     10  C   UNL d   1      30.827  16.007 -24.030  0.00  0.00     0.124 C 
BRANCH  10  11
ATOM     11  C   UNL d   1      31.490  16.419 -24.296  0.00  0.00     0.232 C 
ATOM     12  O   UNL d   1      31.941  16.112 -24.925  0.00  0.00    -0.283 OA
BRANCH  11  13
ATOM     13  C   UNL d   1      31.712  17.137 -23.943  0.00  0.00     0.137 C 
BRANCH  13  14
ATOM     14  N   UNL d   1      32.507  17.324 -23.842  0.00  0.00    -0.262 NA
BRANCH  14  15
ATOM     15  C   UNL d   1      32.726  18.056 -23.538  0.00  0.00     0.143 C 
ATOM     16  C   UNL d   1      33.241  18.105 -22.896  0.00  0.00     0.032 C 
ATOM     17  C   UNL d   1      33.127  17.509 -23.063  0.00  0.00     0.032 C 
BRANCH  15  18
ATOM     18  C   UNL d   1      32.427  18.752 -23.881  0.00  0.00     0.229 C 
ATOM     19  O   UNL d   1      32.946  19.347 -24.123  0.00  0.00    -0.286 OA
ENDBRANCH  15  18
ENDBRANCH  14  15
ENDBRANCH  13  14
ENDBRANCH  11  13
ENDBRANCH  10  11
ENDBRANCH   1  10
BRANCH   2  20
ATOM     20  C   UNL d   1      28.689  17.637 -25.041  0.00  0.00     0.236 C 
ATOM     21  O   UNL d   1      29.002  18.399 -25.095  0.00  0.00    -0.283 OA
ENDBRANCH   2  20
TORSDOF 7
ENDMDL
MODEL 6
REMARK VINA RESULT:      -1.4      1.882      4.910
REMARK  7 active torsions:
REMARK  status: ('A' for Active; 'I' for Inactive)
REMARK    1  A    between atoms: C_6  and  N_1 
REMARK    2  A    between atoms: C_7  and  C_2 
REMARK    3  A    between atoms: C_11  and  C_6 
REMARK    4  A    between atoms: N_8  and  C_12 
REMARK    5  A    between atoms: C_9  and  N_8 
REMARK    6  A    between atoms: C_17  and  C_9 
REMARK    7  A    between atoms: C_12  and  C_11 
ROOT
ATOM      1  N   UNL d   1      33.098  21.124 -22.160  0.00  0.00    -0.301 N 
ATOM      2  C   UNL d   1      33.020  22.414 -22.486  0.00  0.00     0.061 A 
ATOM      3  C   UNL d   1      33.241  21.674 -22.761  0.00  0.00     0.084 A 
ATOM      4  C   UNL d   1      32.785  21.537 -21.511  0.00  0.00     0.064 A 
ATOM      5  C   UNL d   1      32.737  22.340 -21.714  0.00  0.00     0.021 A 
ATOM      6  C   UNL d   1      32.539  21.286 -20.762  0.00  0.00     0.018 A 
ATOM      7  C   UNL d   1      32.446  22.883 -21.175  0.00  0.00     0.002 A 
ATOM      8  C   UNL d   1      32.201  22.634 -20.431  0.00  0.00     0.000 A 
ATOM      9  C   UNL d   1      32.248  21.840 -20.230  0.00  0.00     0.002 A 
ENDROOT
BRANCH   1  10
ATOM     10  C   UNL d   1      33.237  20.312 -22.192  0.00  0.00     0.124 C 
BRANCH  10  11
ATOM     11  C   UNL d   1      33.121  19.902 -22.898  0.00  0.00     0.232 C 
ATOM     12  O   UNL d   1      33.240  20.290 -23.624  0.00  0.00    -0.283 OA
BRANCH  11  13
ATOM     13  C   UNL d   1      32.885  19.105 -22.891  0.00  0.00     0.137 C 
BRANCH  13  14
ATOM     14  N   UNL d   1      32.957  18.644 -23.568  0.00  0.00    -0.262 NA
BRANCH  14  15
ATOM     15  C   UNL d   1      32.742  17.850 -23.553  0.00  0.00     0.143 C 
ATOM     16  C   UNL d   1      32.082  17.588 -23.971  0.00  0.00     0.032 C 
ATOM     17  C   UNL d   1      32.173  18.207 -24.037  0.00  0.00     0.032 C 
BRANCH  15  18
ATOM     18  C   UNL d   1      33.194  17.307 -23.114  0.00  0.00     0.229 C 
ATOM     19  O   UNL d   1      32.885  16.561 -22.941  0.00  0.00    -0.286 OA
ENDBRANCH  15  18
ENDBRANCH  14  15
ENDBRANCH  13  14
ENDBRANCH  11  13
ENDBRANCH  10  11
ENDBRANCH   1  10
BRANCH   2  20
ATOM     20  C   UNL d   1      33.103  23.073 -22.974  0.00  0.00     0.236 C 
ATOM     21  O   UNL d   1      32.832  23.053 -23.754  0.00  0.00    -0.283 OA
ENDBRANCH   2  20
TORSDOF 7
ENDMDL
MODEL 7
REMARK VINA RESULT:      -1.0      1.354      2.095
REMARK  7 active torsions:
REMARK  status: ('A' for Active; 'I' for Inactive)
REMARK    1  A    between atoms: C_6  and  N_1 
REMARK    2  A    between atoms: C_7  and  C_2 
REMARK    3  A    between atoms: C_11  and  C_6 
REMARK    4  A    between atoms: N_8  and  C_12 
REMARK    5  A    between atoms: C_9  and  N_8 
REMARK    6  A    between atoms: C_17  and  C_9 
REMARK    7  A    between atoms: C_12  and  C_11 
ROOT
ATOM      1  N   UNL d   1      30.788  17.148 -24.349  0.00  0.00    -0.301 N 
ATOM      2  C   UNL d   1      30.334  16.112 -23.644  0.00  0.00     0.061 A 
ATOM      3  C   UNL d   1      31.013  16.519 -23.860  0.00  0.00     0.084 A 
ATOM      4  C   UNL d   1      29.963  17.121 -24.430  0.00  0.00     0.064 A 
ATOM      5  C   UNL d   1      29.681  16.476 -23.991  0.00  0.00     0.021 A 
ATOM      6  C   UNL d   1      29.432  17.599 -24.847  0.00  0.00     0.018 A 
ATOM      7  C   UNL d   1      28.879  16.313 -23.970  0.00  0.00     0.002 A 
ATOM      8  C   UNL d   1      28.351  16.788 -24.384  0.00  0.00     0.000 A 
ATOM      9  C   UNL d   1      28.629  17.426 -24.818  0.00  0.00     0.002 A 
ENDROOT
BRANCH   1  10
ATOM     10  C   UNL d   1      31.288  17.704 -24.696  0.00  0.00     0.124 C 
BRANCH  10  11
ATOM     11  C   UNL d   1      32.104  17.588 -24.685  0.00  0.00     0.232 C 
ATOM     12  O   UNL d   1      32.428  16.913 -25.048  0.00  0.00    -0.283 OA
BRANCH  11  13
ATOM     13  C   UNL d   1      32.606  18.138 -24.315  0.00  0.00     0.137 C 
BRANCH  13  14
ATOM     14  N   UNL d   1      32.461  18.944 -24.384  0.00  0.00    -0.262 NA
BRANCH  14  15
ATOM     15  C   UNL d   1      32.979  19.488 -24.049  0.00  0.00     0.143 C 
ATOM     16  C   UNL d   1      33.241  20.139 -24.483  0.00  0.00     0.032 C 
ATOM     17  C   UNL d   1      32.848  19.775 -24.815  0.00  0.00     0.032 C 
BRANCH  15  18
ATOM     18  C   UNL d   1      33.241  19.383 -23.267  0.00  0.00     0.229 C 
ATOM     19  O   UNL d   1      33.178  20.004 -22.726  0.00  0.00    -0.286 OA
ENDBRANCH  15  18
ENDBRANCH  14  15
ENDBRANCH  13  14
ENDBRANCH  11  13
ENDBRANCH  10  11
ENDBRANCH   1  10
BRANCH   2  20
ATOM     20  C   UNL d   1      30.394  15.453 -23.153  0.00  0.00     0.236 C 
ATOM     21  O   UNL d   1      30.870  15.475 -22.478  0.00  0.00    -0.283 OA
ENDBRANCH   2  20
TORSDOF 7
ENDMDL
