MODEL 1
REMARK VINA RESULT:      92.5      0.000      0.000
REMARK  5 active torsions:
REMARK  status: ('A' for Active; 'I' for Inactive)
REMARK    1  A    between atoms: C_11  and  C_3 
REMARK    2  A    between atoms: C_13  and  N_5 
REMARK    3  A    between atoms: C_12  and  C_7 
REMARK    4  A    between atoms: O_21  and  C_11 
REMARK    5  A    between atoms: C_20  and  C_13 
ROOT
ATOM      1  C   UNL d   1     -57.321 -99.146 -44.575  0.00  0.00     0.080 A 
ATOM      2  C   UNL d   1     -56.887 -99.276 -43.880  0.00  0.00     0.267 A 
ATOM      3  C   UNL d   1     -58.568 -99.062 -45.253  0.00  0.00     0.106 A 
ATOM      4  C   UNL d   1     -56.924 -98.972 -45.277  0.00  0.00     0.108 A 
ATOM      5  N   UNL d   1     -56.055 -99.230 -43.898  0.00  0.00    -0.271 N 
ATOM      6  C   UNL d   1     -58.170 -98.886 -45.961  0.00  0.00     0.208 A 
ATOM      7  C   UNL d   1     -58.139 -99.190 -44.565  0.00  0.00     0.015 A 
ATOM      8  O   UNL d   1     -57.348 -98.842 -45.972  0.00  0.00    -0.288 OA
ATOM      9  C   UNL d   1     -56.101 -98.924 -45.304  0.00  0.00     0.043 A 
ATOM     10  C   UNL d   1     -55.670 -99.054 -44.612  0.00  0.00     0.069 A 
ATOM     11  O   UNL d   1     -57.273 -99.452 -43.170  0.00  0.00    -0.267 OA
ATOM     12  N   UNL d   1     -58.601 -98.757 -46.652  0.00  0.00    -0.121 N 
ATOM     13  C   UNL d   1     -54.830 -99.008 -44.627  0.00  0.00     0.019 C 
ENDROOT
BRANCH   7  14
ATOM     14  C   UNL d   1     -58.529 -99.364 -43.862  0.00  0.00     0.001 A 
ATOM     15  C   UNL d   1     -58.755-100.145 -43.706  0.00  0.00     0.001 A 
ATOM     16  C   UNL d   1     -59.146-100.319 -43.002  0.00  0.00     0.011 A 
ATOM     17  C   UNL d   1     -59.312 -99.721 -42.458  0.00  0.00     0.058 A 
ATOM     18  C   UNL d   1     -59.084 -98.938 -42.618  0.00  0.00     0.011 A 
ATOM     19 CL   UNL d   1     -59.702 -99.895 -41.755  0.00  0.00    -0.082 Cl
ATOM     20  C   UNL d   1     -58.693 -98.764 -43.321  0.00  0.00     0.001 A 
ENDBRANCH   7  14
BRANCH   3  21
ATOM     21  C   UNL d   1     -59.390 -99.106 -45.242  0.00  0.00     0.299 C 
ATOM     22  O   UNL d   1     -59.811 -98.828 -44.589  0.00  0.00    -0.259 OA
BRANCH  21  23
ATOM     23  O   UNL d   1     -59.795 -99.429 -45.883  0.00  0.00    -0.296 OA
ATOM     24  C   UNL d   1     -59.742 -99.078 -46.629  0.00  0.00     0.185 C 
ENDBRANCH  21  23
ENDBRANCH   3  21
BRANCH   5  25
ATOM     25  C   UNL d   1     -55.623 -99.359 -43.207  0.00  0.00     0.108 C 
BRANCH  25  26
ATOM     26  C   UNL d   1     -55.358-100.115 -43.023  0.00  0.00     0.118 A 
ATOM     27  O   UNL d   1     -55.509-100.806 -43.456  0.00  0.00    -0.304 OA
ATOM     28  C   UNL d   1     -55.138-101.439 -43.075  0.00  0.00     0.123 A 
ATOM     29  C   UNL d   1     -54.755-101.146 -42.404  0.00  0.00     0.029 A 
ATOM     30  C   UNL d   1     -54.890-100.331 -42.371  0.00  0.00     0.028 A 
ENDBRANCH  25  26
ENDBRANCH   5  25
TORSDOF 5
ENDMDL
