MODEL 1
REMARK VINA RESULT:      -5.2      0.000      0.000
REMARK  7 active torsions:
REMARK  status: ('A' for Active; 'I' for Inactive)
REMARK    1  A    between atoms: S_2  and  C_1 
REMARK    2  A    between atoms: C_8  and  S_2 
REMARK    3  A    between atoms: N_16  and  C_6 
REMARK    4  A    between atoms: N_9  and  C_22 
REMARK    5  A    between atoms: C_24  and  N_16 
REMARK    6  A    between atoms: C_22  and  C_23 
REMARK    7  A    between atoms: C_23  and  C_24 
ROOT
ATOM      1  C   UNL d   1     -41.461-122.938 -50.603  0.00  0.00     0.187 A 
ATOM      2  N   UNL d   1     -41.464-123.467 -51.225  0.00  0.00    -0.208 NA
ATOM      3  C   UNL d   1     -41.250-122.197 -50.892  0.00  0.00     0.118 A 
ATOM      4  S   UNL d   1     -41.123-122.271 -51.692  0.00  0.00    -0.035 SA
ATOM      5  C   UNL d   1     -41.254-123.060 -51.906  0.00  0.00     0.196 A 
ATOM      6 CL   UNL d   1     -41.179-121.505 -50.456  0.00  0.00    -0.073 Cl
ENDROOT
BRANCH   1   7
ATOM      7  S   UNL d   1     -41.640-123.117 -49.821  0.00  0.00     0.228 S 
ATOM      8  O   UNL d   1     -41.166-123.784 -49.839  0.00  0.00    -0.216 OA
ATOM      9  O   UNL d   1     -42.119-122.443 -49.801  0.00  0.00    -0.216 OA
BRANCH   7  10
ATOM     10  C   UNL d   1     -41.847-123.257 -49.035  0.00  0.00     0.089 A 
ATOM     11  C   UNL d   1     -41.270-123.348 -48.459  0.00  0.00     0.011 A 
ATOM     12  C   UNL d   1     -41.477-123.488 -47.673  0.00  0.00     0.001 A 
ATOM     13  C   UNL d   1     -42.277-123.538 -47.462  0.00  0.00     0.000 A 
ATOM     14  C   UNL d   1     -42.862-123.447 -48.037  0.00  0.00     0.001 A 
ATOM     15  C   UNL d   1     -42.491-123.678 -46.676  0.00  0.00     0.000 C 
ATOM     16  C   UNL d   1     -42.655-123.307 -48.823  0.00  0.00     0.011 A 
ENDBRANCH   7  10
ENDBRANCH   1   7
BRANCH   5  17
ATOM     17  N   UNL d   1     -41.188-123.383 -52.664  0.00  0.00    -0.220 NA
BRANCH  17  18
ATOM     18  C   UNL d   1     -41.123-122.880 -53.315  0.00  0.00     0.103 C 
BRANCH  18  19
ATOM     19  C   UNL d   1     -41.429-123.118 -54.045  0.00  0.00     0.040 C 
BRANCH  19  20
ATOM     20  C   UNL d   1     -41.232-122.695 -54.727  0.00  0.00     0.083 C 
BRANCH  20  21
ATOM     21  N   UNL d   1     -41.831-122.388 -55.198  0.00  0.00    -0.285 N 
ATOM     22  C   UNL d   1     -41.775-121.737 -55.689  0.00  0.00     0.183 A 
ATOM     23  N   UNL d   1     -42.504-121.630 -56.054  0.00  0.00    -0.222 NA
ATOM     24  C   UNL d   1     -43.005-122.215 -55.786  0.00  0.00     0.120 A 
ATOM     25  C   UNL d   1     -42.592-122.688 -55.255  0.00  0.00     0.102 A 
ENDBRANCH  20  21
ENDBRANCH  19  20
ENDBRANCH  18  19
ENDBRANCH  17  18
ENDBRANCH   5  17
TORSDOF 7
ENDMDL
MODEL 2
REMARK VINA RESULT:      -4.9      1.904      6.022
REMARK  7 active torsions:
REMARK  status: ('A' for Active; 'I' for Inactive)
REMARK    1  A    between atoms: S_2  and  C_1 
REMARK    2  A    between atoms: C_8  and  S_2 
REMARK    3  A    between atoms: N_16  and  C_6 
REMARK    4  A    between atoms: N_9  and  C_22 
REMARK    5  A    between atoms: C_24  and  N_16 
REMARK    6  A    between atoms: C_22  and  C_23 
REMARK    7  A    between atoms: C_23  and  C_24 
ROOT
ATOM      1  C   UNL d   1     -41.673-122.474 -52.585  0.00  0.00     0.187 A 
ATOM      2  N   UNL d   1     -41.854-122.025 -51.928  0.00  0.00    -0.208 NA
ATOM      3  C   UNL d   1     -41.374-123.199 -52.332  0.00  0.00     0.118 A 
ATOM      4  S   UNL d   1     -41.373-123.194 -51.518  0.00  0.00    -0.035 SA
ATOM      5  C   UNL d   1     -41.671-122.466 -51.260  0.00  0.00     0.196 A 
ATOM      6 CL   UNL d   1     -41.123-123.817 -52.810  0.00  0.00    -0.073 Cl
ENDROOT
BRANCH   1   7
ATOM      7  S   UNL d   1     -41.772-122.242 -53.368  0.00  0.00     0.228 S 
ATOM      8  O   UNL d   1     -41.438-121.509 -53.217  0.00  0.00    -0.216 OA
ATOM      9  O   UNL d   1     -42.109-122.982 -53.520  0.00  0.00    -0.216 OA
BRANCH   7  10
ATOM     10  C   UNL d   1     -41.890-122.051 -54.161  0.00  0.00     0.089 A 
ATOM     11  C   UNL d   1     -41.351-122.282 -54.733  0.00  0.00     0.011 A 
ATOM     12  C   UNL d   1     -41.469-122.092 -55.527  0.00  0.00     0.001 A 
ATOM     13  C   UNL d   1     -42.141-121.661 -55.749  0.00  0.00     0.000 A 
ATOM     14  C   UNL d   1     -42.689-121.425 -55.178  0.00  0.00     0.001 A 
ATOM     15  C   UNL d   1     -42.267-121.466 -56.543  0.00  0.00     0.000 C 
ATOM     16  C   UNL d   1     -42.570-121.616 -54.384  0.00  0.00     0.011 A 
ENDBRANCH   7  10
ENDBRANCH   1   7
BRANCH   5  17
ATOM     17  N   UNL d   1     -41.767-122.223 -50.477  0.00  0.00    -0.220 NA
BRANCH  17  18
ATOM     18  C   UNL d   1     -42.264-122.652 -49.976  0.00  0.00     0.103 C 
BRANCH  18  19
ATOM     19  C   UNL d   1     -42.175-122.584 -49.158  0.00  0.00     0.040 C 
BRANCH  19  20
ATOM     20  C   UNL d   1     -42.698-122.981 -48.657  0.00  0.00     0.083 C 
BRANCH  20  21
ATOM     21  N   UNL d   1     -42.478-123.128 -47.879  0.00  0.00    -0.285 N 
ATOM     22  C   UNL d   1     -41.938-122.701 -47.439  0.00  0.00     0.183 A 
ATOM     23  N   UNL d   1     -41.890-123.041 -46.693  0.00  0.00    -0.222 NA
ATOM     24  C   UNL d   1     -42.401-123.677 -46.676  0.00  0.00     0.120 A 
ATOM     25  C   UNL d   1     -42.768-123.735 -47.409  0.00  0.00     0.102 A 
ENDBRANCH  20  21
ENDBRANCH  19  20
ENDBRANCH  18  19
ENDBRANCH  17  18
ENDBRANCH   5  17
TORSDOF 7
ENDMDL
