MODEL 1
REMARK VINA RESULT:      -8.2      0.000      0.000
REMARK  8 active torsions:
REMARK  status: ('A' for Active; 'I' for Inactive)
REMARK    1  A    between atoms: N_3  and  C_1 
REMARK    2  A    between atoms: C_20  and  N_2 
REMARK       I    between atoms: C_7  and  N_3 
REMARK    3  A    between atoms: C_10  and  C_7 
REMARK    4  A    between atoms: C_9  and  C_10 
REMARK    5  A    between atoms: C_15  and  C_9 
REMARK       I    between atoms: C_12  and  N_13 
REMARK    6  A    between atoms: N_13  and  C_14 
REMARK    7  A    between atoms: C_26  and  C_20 
REMARK    8  A    between atoms: O_22  and  C_26 
ROOT
ATOM      1  C   UNL d   1      51.661  33.767  53.026  0.00  0.00     0.182 A 
ATOM      2  N   UNL d   1      52.463  33.840  53.184  0.00  0.00    -0.283 N 
ATOM      3  S   UNL d   1      51.494  32.966  52.918  0.00  0.00    -0.048 SA
ATOM      4  C   UNL d   1      52.200  32.543  53.011  0.00  0.00     0.050 A 
ATOM      5  C   UNL d   1      52.801  33.085  53.176  0.00  0.00     0.072 A 
ATOM      6  C   UNL d   1      52.371  31.738  52.967  0.00  0.00     0.027 A 
ATOM      7  C   UNL d   1      53.574  32.822  53.296  0.00  0.00     0.020 A 
ATOM      8  C   UNL d   1      53.143  31.475  53.088  0.00  0.00     0.085 A 
ATOM      9  C   UNL d   1      53.744  32.017  53.252  0.00  0.00     0.021 A 
ENDROOT
BRANCH   1  10
ATOM     10  N   UNL d   1      51.121  34.391  52.983  0.00  0.00    -0.184 NA
ATOM     11  C   UNL d   1      50.316  34.227  52.918  0.00  0.00     0.281 C 
ATOM     12  O   UNL d   1      50.056  33.445  52.896  0.00  0.00    -0.265 OA
BRANCH  11  13
ATOM     13  C   UNL d   1      49.770  34.846  52.875  0.00  0.00     0.063 C 
BRANCH  13  14
ATOM     14  C   UNL d   1      49.142  34.806  52.348  0.00  0.00     0.006 C 
BRANCH  14  15
ATOM     15  C   UNL d   1      48.519  35.335  52.393  0.00  0.00     0.011 A 
ATOM     16  C   UNL d   1      47.996  35.415  51.753  0.00  0.00     0.058 A 
ATOM     17 CL   UNL d   1      48.111  34.954  51.067  0.00  0.00    -0.082 Cl
ATOM     18  C   UNL d   1      47.358  35.958  51.799  0.00  0.00     0.011 A 
ATOM     19  C   UNL d   1      47.240  36.411  52.466  0.00  0.00     0.001 A 
ATOM     20  C   UNL d   1      47.761  36.334  53.107  0.00  0.00     0.000 A 
ATOM     21  C   UNL d   1      48.394  35.798  53.064  0.00  0.00     0.001 A 
ENDBRANCH  14  15
ENDBRANCH  13  14
ENDBRANCH  11  13
ENDBRANCH   1  10
BRANCH   2  22
ATOM     22  C   UNL d   1      52.872  34.544  53.327  0.00  0.00     0.108 C 
BRANCH  22  23
ATOM     23  C   UNL d   1      52.937  34.842  54.093  0.00  0.00     0.135 C 
BRANCH  23  24
ATOM     24  O   UNL d   1      53.323  35.555  54.228  0.00  0.00    -0.325 OA
ATOM     25  C   UNL d   1      53.226  35.958  54.946  0.00  0.00     0.182 C 
ENDBRANCH  23  24
ENDBRANCH  22  23
ENDBRANCH   2  22
BRANCH   8  26
ATOM     26  N   UNL d   1      53.318  30.657  53.043  0.00  0.00    -0.208 NA
ATOM     27  C   UNL d   1      53.400  30.222  53.730  0.00  0.00     0.279 C 
ATOM     28  O   UNL d   1      53.573  29.417  53.685  0.00  0.00    -0.265 OA
ATOM     29  C   UNL d   1      53.313  30.577  54.471  0.00  0.00     0.068 C 
ENDBRANCH   8  26
TORSDOF 8
ENDMDL
MODEL 2
REMARK VINA RESULT:      -7.6      1.539      2.796
REMARK  8 active torsions:
REMARK  status: ('A' for Active; 'I' for Inactive)
REMARK    1  A    between atoms: N_3  and  C_1 
REMARK    2  A    between atoms: C_20  and  N_2 
REMARK       I    between atoms: C_7  and  N_3 
REMARK    3  A    between atoms: C_10  and  C_7 
REMARK    4  A    between atoms: C_9  and  C_10 
REMARK    5  A    between atoms: C_15  and  C_9 
REMARK       I    between atoms: C_12  and  N_13 
REMARK    6  A    between atoms: N_13  and  C_14 
REMARK    7  A    between atoms: C_26  and  C_20 
REMARK    8  A    between atoms: O_22  and  C_26 
ROOT
ATOM      1  C   UNL d   1      52.106  33.388  53.112  0.00  0.00     0.182 A 
ATOM      2  N   UNL d   1      52.650  32.779  53.030  0.00  0.00    -0.283 N 
ATOM      3  S   UNL d   1      52.448  33.973  53.582  0.00  0.00    -0.048 SA
ATOM      4  C   UNL d   1      53.209  33.721  53.791  0.00  0.00     0.050 A 
ATOM      5  C   UNL d   1      53.334  32.980  53.449  0.00  0.00     0.072 A 
ATOM      6  C   UNL d   1      53.800  34.070  54.248  0.00  0.00     0.027 A 
ATOM      7  C   UNL d   1      54.051  32.588  53.562  0.00  0.00     0.020 A 
ATOM      8  C   UNL d   1      54.516  33.678  54.361  0.00  0.00     0.085 A 
ATOM      9  C   UNL d   1      54.642  32.937  54.019  0.00  0.00     0.021 A 
ENDROOT
BRANCH   1  10
ATOM     10  N   UNL d   1      51.350  33.405  52.779  0.00  0.00    -0.184 NA
ATOM     11  C   UNL d   1      50.965  34.127  52.683  0.00  0.00     0.281 C 
ATOM     12  O   UNL d   1      51.336  34.825  52.919  0.00  0.00    -0.265 OA
BRANCH  11  13
ATOM     13  C   UNL d   1      50.209  34.153  52.350  0.00  0.00     0.063 C 
BRANCH  13  14
ATOM     14  C   UNL d   1      49.676  34.733  52.581  0.00  0.00     0.006 C 
BRANCH  14  15
ATOM     15  C   UNL d   1      49.013  34.899  52.131  0.00  0.00     0.011 A 
ATOM     16  C   UNL d   1      48.412  35.380  52.441  0.00  0.00     0.058 A 
ATOM     17 CL   UNL d   1      48.490  35.692  53.212  0.00  0.00    -0.082 Cl
ATOM     18  C   UNL d   1      47.732  35.551  51.980  0.00  0.00     0.011 A 
ATOM     19  C   UNL d   1      47.650  35.250  51.227  0.00  0.00     0.001 A 
ATOM     20  C   UNL d   1      48.248  34.769  50.914  0.00  0.00     0.000 A 
ATOM     21  C   UNL d   1      48.922  34.598  51.369  0.00  0.00     0.001 A 
ENDBRANCH  14  15
ENDBRANCH  13  14
ENDBRANCH  11  13
ENDBRANCH   1  10
BRANCH   2  22
ATOM     22  C   UNL d   1      52.541  32.078  52.603  0.00  0.00     0.108 C 
BRANCH  22  23
ATOM     23  C   UNL d   1      52.456  31.359  52.994  0.00  0.00     0.135 C 
BRANCH  23  24
ATOM     24  O   UNL d   1      52.497  30.653  52.575  0.00  0.00    -0.325 OA
ATOM     25  C   UNL d   1      52.484  29.924  52.971  0.00  0.00     0.182 C 
ENDBRANCH  23  24
ENDBRANCH  22  23
ENDBRANCH   2  22
BRANCH   8  26
ATOM     26  N   UNL d   1      55.118  34.032  54.825  0.00  0.00    -0.208 NA
ATOM     27  C   UNL d   1      55.183  33.842  55.617  0.00  0.00     0.279 C 
ATOM     28  O   UNL d   1      55.776  34.190  56.072  0.00  0.00    -0.265 OA
ATOM     29  C   UNL d   1      54.664  33.305  55.970  0.00  0.00     0.068 C 
ENDBRANCH   8  26
TORSDOF 8
ENDMDL
