MODEL 1
REMARK VINA RESULT:      -8.2      0.000      0.000
REMARK  5 active torsions:
REMARK  status: ('A' for Active; 'I' for Inactive)
REMARK    1  A    between atoms: C_6  and  C_3 
REMARK    2  A    between atoms: C_7  and  C_6 
REMARK    3  A    between atoms: C_8  and  C_7 
REMARK    4  A    between atoms: O_16  and  C_10 
REMARK    5  A    between atoms: O_17  and  C_12 
ROOT
ATOM      1  C   UNL d   1     -48.017  13.256  22.283  0.00  0.00     0.198 C 
ATOM      2  O   UNL d   1     -48.213  13.174  21.483  0.00  0.00    -0.286 OA
ENDROOT
BRANCH   1   3
ATOM      3  C   UNL d   1     -48.450  13.780  22.761  0.00  0.00     0.067 C 
BRANCH   3   4
ATOM      4  C   UNL d   1     -49.222  13.978  22.555  0.00  0.00     0.107 A 
ATOM      5  O   UNL d   1     -49.698  13.596  21.986  0.00  0.00    -0.273 OA
ATOM      6  C   UNL d   1     -50.424  13.975  21.963  0.00  0.00     0.300 A 
ATOM      7  C   UNL d   1     -50.407  14.594  22.514  0.00  0.00     0.065 A 
ATOM      8  O   UNL d   1     -51.064  13.779  21.476  0.00  0.00    -0.259 OA
ATOM      9  C   UNL d   1     -49.665  14.592  22.877  0.00  0.00     0.028 A 
ATOM     10  C   UNL d   1     -50.973  15.154  22.728  0.00  0.00     0.005 A 
ATOM     11  C   UNL d   1     -49.485  15.156  23.461  0.00  0.00     0.002 A 
ATOM     12  C   UNL d   1     -50.051  15.716  23.675  0.00  0.00     0.000 A 
ATOM     13  C   UNL d   1     -50.798  15.714  23.306  0.00  0.00     0.000 A 
ENDBRANCH   3   4
ENDBRANCH   1   3
BRANCH   1  14
ATOM     14  C   UNL d   1     -47.398  12.825  22.608  0.00  0.00     0.041 A 
ATOM     15  C   UNL d   1     -46.625  13.089  22.512  0.00  0.00     0.029 A 
ATOM     16  C   UNL d   1     -45.996  12.664  22.834  0.00  0.00     0.116 A 
ATOM     17  C   UNL d   1     -46.144  11.968  23.255  0.00  0.00     0.116 A 
ATOM     18  C   UNL d   1     -46.925  11.704  23.350  0.00  0.00     0.026 A 
ATOM     19  C   UNL d   1     -47.545  12.135  23.025  0.00  0.00     0.005 A 
BRANCH  16  20
ATOM     20  O   UNL d   1     -45.223  12.929  22.738  0.00  0.00    -0.326 OA
ATOM     21  C   UNL d   1     -45.021  13.379  22.072  0.00  0.00     0.181 C 
ENDBRANCH  16  20
BRANCH  17  22
ATOM     22  O   UNL d   1     -45.524  11.536  23.580  0.00  0.00    -0.326 OA
ATOM     23  C   UNL d   1     -45.597  10.720  23.698  0.00  0.00     0.181 C 
ENDBRANCH  17  22
ENDBRANCH   1  14
TORSDOF 5
ENDMDL
MODEL 2
REMARK VINA RESULT:      -8.1      1.037      1.431
REMARK  5 active torsions:
REMARK  status: ('A' for Active; 'I' for Inactive)
REMARK    1  A    between atoms: C_6  and  C_3 
REMARK    2  A    between atoms: C_7  and  C_6 
REMARK    3  A    between atoms: C_8  and  C_7 
REMARK    4  A    between atoms: O_16  and  C_10 
REMARK    5  A    between atoms: O_17  and  C_12 
ROOT
ATOM      1  C   UNL d   1     -47.456  13.697  22.834  0.00  0.00     0.198 C 
ATOM      2  O   UNL d   1     -47.261  14.495  22.929  0.00  0.00    -0.286 OA
ENDROOT
BRANCH   1   3
ATOM      3  C   UNL d   1     -48.229  13.486  22.614  0.00  0.00     0.067 C 
BRANCH   3   4
ATOM      4  C   UNL d   1     -48.832  14.044  22.654  0.00  0.00     0.107 A 
ATOM      5  O   UNL d   1     -48.826  14.751  23.097  0.00  0.00    -0.273 OA
ATOM      6  C   UNL d   1     -49.539  15.136  22.973  0.00  0.00     0.300 A 
ATOM      7  C   UNL d   1     -49.994  14.675  22.456  0.00  0.00     0.065 A 
ATOM      8  O   UNL d   1     -49.769  15.859  23.305  0.00  0.00    -0.259 OA
ATOM      9  C   UNL d   1     -49.555  14.003  22.261  0.00  0.00     0.028 A 
ATOM     10  C   UNL d   1     -50.748  14.785  22.140  0.00  0.00     0.005 A 
ATOM     11  C   UNL d   1     -49.872  13.433  21.745  0.00  0.00     0.002 A 
ATOM     12  C   UNL d   1     -50.626  13.543  21.430  0.00  0.00     0.000 A 
ATOM     13  C   UNL d   1     -51.064  14.222  21.630  0.00  0.00     0.000 A 
ENDBRANCH   3   4
ENDBRANCH   1   3
BRANCH   1  14
ATOM     14  C   UNL d   1     -46.893  13.111  22.957  0.00  0.00     0.041 A 
ATOM     15  C   UNL d   1     -46.164  13.165  22.579  0.00  0.00     0.029 A 
ATOM     16  C   UNL d   1     -45.591  12.583  22.695  0.00  0.00     0.116 A 
ATOM     17  C   UNL d   1     -45.751  11.943  23.193  0.00  0.00     0.116 A 
ATOM     18  C   UNL d   1     -46.487  11.892  23.572  0.00  0.00     0.026 A 
ATOM     19  C   UNL d   1     -47.052  12.478  23.450  0.00  0.00     0.005 A 
BRANCH  16  20
ATOM     20  O   UNL d   1     -44.862  12.637  22.317  0.00  0.00    -0.326 OA
ATOM     21  C   UNL d   1     -44.695  13.290  21.834  0.00  0.00     0.181 C 
ENDBRANCH  16  20
BRANCH  17  22
ATOM     22  O   UNL d   1     -45.186  11.358  23.315  0.00  0.00    -0.326 OA
ATOM     23  C   UNL d   1     -45.390  10.652  23.698  0.00  0.00     0.181 C 
ENDBRANCH  17  22
ENDBRANCH   1  14
TORSDOF 5
ENDMDL
MODEL 3
REMARK VINA RESULT:      -7.9      1.088      1.941
REMARK  5 active torsions:
REMARK  status: ('A' for Active; 'I' for Inactive)
REMARK    1  A    between atoms: C_6  and  C_3 
REMARK    2  A    between atoms: C_7  and  C_6 
REMARK    3  A    between atoms: C_8  and  C_7 
REMARK    4  A    between atoms: O_16  and  C_10 
REMARK    5  A    between atoms: O_17  and  C_12 
ROOT
ATOM      1  C   UNL d   1     -47.437  13.935  22.814  0.00  0.00     0.198 C 
ATOM      2  O   UNL d   1     -47.441  14.728  23.054  0.00  0.00    -0.286 OA
ENDROOT
BRANCH   1   3
ATOM      3  C   UNL d   1     -48.155  13.548  22.660  0.00  0.00     0.067 C 
BRANCH   3   4
ATOM      4  C   UNL d   1     -48.842  13.988  22.553  0.00  0.00     0.107 A 
ATOM      5  O   UNL d   1     -48.960  14.785  22.770  0.00  0.00    -0.273 OA
ATOM      6  C   UNL d   1     -49.724  14.998  22.560  0.00  0.00     0.300 A 
ATOM      7  C   UNL d   1     -50.086  14.338  22.212  0.00  0.00     0.065 A 
ATOM      8  O   UNL d   1     -50.075  15.738  22.674  0.00  0.00    -0.259 OA
ATOM      9  C   UNL d   1     -49.540  13.719  22.209  0.00  0.00     0.028 A 
ATOM     10  C   UNL d   1     -50.841  14.228  21.899  0.00  0.00     0.005 A 
ATOM     11  C   UNL d   1     -49.750  12.980  21.890  0.00  0.00     0.002 A 
ATOM     12  C   UNL d   1     -50.505  12.870  21.578  0.00  0.00     0.000 A 
ATOM     13  C   UNL d   1     -51.052  13.498  21.583  0.00  0.00     0.000 A 
ENDBRANCH   3   4
ENDBRANCH   1   3
BRANCH   1  14
ATOM     14  C   UNL d   1     -46.728  13.529  22.728  0.00  0.00     0.041 A 
ATOM     15  C   UNL d   1     -46.593  12.850  23.172  0.00  0.00     0.029 A 
ATOM     16  C   UNL d   1     -45.885  12.434  23.094  0.00  0.00     0.116 A 
ATOM     17  C   UNL d   1     -45.308  12.702  22.565  0.00  0.00     0.116 A 
ATOM     18  C   UNL d   1     -45.447  13.388  22.119  0.00  0.00     0.026 A 
ATOM     19  C   UNL d   1     -46.157  13.795  22.205  0.00  0.00     0.005 A 
BRANCH  16  20
ATOM     20  O   UNL d   1     -45.750  11.755  23.538  0.00  0.00    -0.326 OA
ATOM     21  C   UNL d   1     -46.376  11.235  23.697  0.00  0.00     0.181 C 
ENDBRANCH  16  20
BRANCH  17  22
ATOM     22  O   UNL d   1     -44.599  12.295  22.480  0.00  0.00    -0.326 OA
ATOM     23  C   UNL d   1     -44.018  12.570  21.957  0.00  0.00     0.181 C 
ENDBRANCH  17  22
ENDBRANCH   1  14
TORSDOF 5
ENDMDL
MODEL 4
REMARK VINA RESULT:      -7.6      0.891      4.762
REMARK  5 active torsions:
REMARK  status: ('A' for Active; 'I' for Inactive)
REMARK    1  A    between atoms: C_6  and  C_3 
REMARK    2  A    between atoms: C_7  and  C_6 
REMARK    3  A    between atoms: C_8  and  C_7 
REMARK    4  A    between atoms: O_16  and  C_10 
REMARK    5  A    between atoms: O_17  and  C_12 
ROOT
ATOM      1  C   UNL d   1     -48.071  13.828  22.536  0.00  0.00     0.198 C 
ATOM      2  O   UNL d   1     -47.801  13.839  21.753  0.00  0.00    -0.286 OA
ENDROOT
BRANCH   1   3
ATOM      3  C   UNL d   1     -47.604  13.476  23.126  0.00  0.00     0.067 C 
BRANCH   3   4
ATOM      4  C   UNL d   1     -46.844  13.217  22.946  0.00  0.00     0.107 A 
ATOM      5  O   UNL d   1     -46.262  13.640  22.524  0.00  0.00    -0.273 OA
ATOM      6  C   UNL d   1     -45.590  13.173  22.475  0.00  0.00     0.300 A 
ATOM      7  C   UNL d   1     -45.747  12.458  22.864  0.00  0.00     0.065 A 
ATOM      8  O   UNL d   1     -44.879  13.375  22.103  0.00  0.00    -0.259 OA
ATOM      9  C   UNL d   1     -46.520  12.489  23.153  0.00  0.00     0.028 A 
ATOM     10  C   UNL d   1     -45.283  11.788  22.989  0.00  0.00     0.005 A 
ATOM     11  C   UNL d   1     -46.834  11.843  23.573  0.00  0.00     0.002 A 
ATOM     12  C   UNL d   1     -46.370  11.173  23.698  0.00  0.00     0.000 A 
ATOM     13  C   UNL d   1     -45.592  11.147  23.404  0.00  0.00     0.000 A 
ENDBRANCH   3   4
ENDBRANCH   1   3
BRANCH   1  14
ATOM     14  C   UNL d   1     -48.795  14.162  22.733  0.00  0.00     0.041 A 
ATOM     15  C   UNL d   1     -49.485  13.729  22.620  0.00  0.00     0.029 A 
ATOM     16  C   UNL d   1     -50.218  14.055  22.814  0.00  0.00     0.116 A 
ATOM     17  C   UNL d   1     -50.257  14.820  23.125  0.00  0.00     0.116 A 
ATOM     18  C   UNL d   1     -49.559  15.254  23.238  0.00  0.00     0.026 A 
ATOM     19  C   UNL d   1     -48.833  14.920  23.041  0.00  0.00     0.005 A 
BRANCH  16  20
ATOM     20  O   UNL d   1     -50.908  13.622  22.701  0.00  0.00    -0.326 OA
ATOM     21  C   UNL d   1     -50.872  12.795  22.644  0.00  0.00     0.181 C 
ENDBRANCH  16  20
BRANCH  17  22
ATOM     22  O   UNL d   1     -50.982  15.154  23.322  0.00  0.00    -0.326 OA
ATOM     23  C   UNL d   1     -51.021  15.921  23.630  0.00  0.00     0.181 C 
ENDBRANCH  17  22
ENDBRANCH   1  14
TORSDOF 5
ENDMDL
MODEL 5
REMARK VINA RESULT:      -6.4      7.816      9.974
REMARK  5 active torsions:
REMARK  status: ('A' for Active; 'I' for Inactive)
REMARK    1  A    between atoms: C_6  and  C_3 
REMARK    2  A    between atoms: C_7  and  C_6 
REMARK    3  A    between atoms: C_8  and  C_7 
REMARK    4  A    between atoms: O_16  and  C_10 
REMARK    5  A    between atoms: O_17  and  C_12 
ROOT
ATOM      1  C   UNL d   1     -40.142  14.262  18.181  0.00  0.00     0.198 C 
ATOM      2  O   UNL d   1     -40.847  13.831  18.226  0.00  0.00    -0.286 OA
ENDROOT
BRANCH   1   3
ATOM      3  C   UNL d   1     -39.987  14.856  18.740  0.00  0.00     0.067 C 
BRANCH   3   4
ATOM      4  C   UNL d   1     -40.270  14.779  19.508  0.00  0.00     0.107 A 
ATOM      5  O   UNL d   1     -40.928  14.327  19.752  0.00  0.00    -0.273 OA
ATOM      6  C   UNL d   1     -41.009  14.410  20.564  0.00  0.00     0.300 A 
ATOM      7  C   UNL d   1     -40.406  14.912  20.831  0.00  0.00     0.065 A 
ATOM      8  O   UNL d   1     -41.589  14.056  21.037  0.00  0.00    -0.259 OA
ATOM      9  C   UNL d   1     -39.953  15.137  20.179  0.00  0.00     0.028 A 
ATOM     10  C   UNL d   1     -40.216  15.188  21.585  0.00  0.00     0.005 A 
ATOM     11  C   UNL d   1     -39.302  15.645  20.278  0.00  0.00     0.002 A 
ATOM     12  C   UNL d   1     -39.112  15.922  21.031  0.00  0.00     0.000 A 
ATOM     13  C   UNL d   1     -39.572  15.691  21.686  0.00  0.00     0.000 A 
ENDBRANCH   3   4
ENDBRANCH   1   3
BRANCH   1  14
ATOM     14  C   UNL d   1     -39.594  14.106  17.589  0.00  0.00     0.041 A 
ATOM     15  C   UNL d   1     -39.068  13.479  17.678  0.00  0.00     0.029 A 
ATOM     16  C   UNL d   1     -38.514  13.314  17.089  0.00  0.00     0.116 A 
ATOM     17  C   UNL d   1     -38.488  13.781  16.407  0.00  0.00     0.116 A 
ATOM     18  C   UNL d   1     -39.020  14.412  16.321  0.00  0.00     0.026 A 
ATOM     19  C   UNL d   1     -39.568  14.568  16.914  0.00  0.00     0.005 A 
BRANCH  16  20
ATOM     20  O   UNL d   1     -37.989  12.688  17.178  0.00  0.00    -0.326 OA
ATOM     21  C   UNL d   1     -38.180  12.056  17.681  0.00  0.00     0.181 C 
ENDBRANCH  16  20
BRANCH  17  22
ATOM     22  O   UNL d   1     -37.940  13.624  15.815  0.00  0.00    -0.326 OA
ATOM     23  C   UNL d   1     -37.961  14.044  15.102  0.00  0.00     0.181 C 
ENDBRANCH  17  22
ENDBRANCH   1  14
TORSDOF 5
ENDMDL
MODEL 6
REMARK VINA RESULT:      -6.0      8.439     10.240
REMARK  5 active torsions:
REMARK  status: ('A' for Active; 'I' for Inactive)
REMARK    1  A    between atoms: C_6  and  C_3 
REMARK    2  A    between atoms: C_7  and  C_6 
REMARK    3  A    between atoms: C_8  and  C_7 
REMARK    4  A    between atoms: O_16  and  C_10 
REMARK    5  A    between atoms: O_17  and  C_12 
ROOT
ATOM      1  C   UNL d   1     -39.700  13.938  18.625  0.00  0.00     0.198 C 
ATOM      2  O   UNL d   1     -40.504  13.769  18.729  0.00  0.00    -0.286 OA
ENDROOT
BRANCH   1   3
ATOM      3  C   UNL d   1     -39.215  14.053  19.289  0.00  0.00     0.067 C 
BRANCH   3   4
ATOM      4  C   UNL d   1     -39.545  14.315  19.996  0.00  0.00     0.107 A 
ATOM      5  O   UNL d   1     -40.234  14.778  20.082  0.00  0.00    -0.273 OA
ATOM      6  C   UNL d   1     -40.357  14.908  20.881  0.00  0.00     0.300 A 
ATOM      7  C   UNL d   1     -39.749  14.529  21.300  0.00  0.00     0.065 A 
ATOM      8  O   UNL d   1     -40.978  15.340  21.217  0.00  0.00    -0.259 OA
ATOM      9  C   UNL d   1     -39.251  14.165  20.751  0.00  0.00     0.028 A 
ATOM     10  C   UNL d   1     -39.591  14.472  22.107  0.00  0.00     0.005 A 
ATOM     11  C   UNL d   1     -38.586  13.738  21.011  0.00  0.00     0.002 A 
ATOM     12  C   UNL d   1     -38.428  13.681  21.818  0.00  0.00     0.000 A 
ATOM     13  C   UNL d   1     -38.934  14.050  22.367  0.00  0.00     0.000 A 
ENDBRANCH   3   4
ENDBRANCH   1   3
BRANCH   1  14
ATOM     14  C   UNL d   1     -39.379  13.993  17.871  0.00  0.00     0.041 A 
ATOM     15  C   UNL d   1     -39.525  14.663  17.416  0.00  0.00     0.029 A 
ATOM     16  C   UNL d   1     -39.207  14.729  16.657  0.00  0.00     0.116 A 
ATOM     17  C   UNL d   1     -38.741  14.118  16.354  0.00  0.00     0.116 A 
ATOM     18  C   UNL d   1     -38.596  13.444  16.815  0.00  0.00     0.026 A 
ATOM     19  C   UNL d   1     -38.917  13.388  17.570  0.00  0.00     0.005 A 
BRANCH  16  20
ATOM     20  O   UNL d   1     -39.353  15.399  16.203  0.00  0.00    -0.326 OA
ATOM     21  C   UNL d   1     -39.963  15.918  16.417  0.00  0.00     0.181 C 
ENDBRANCH  16  20
BRANCH  17  22
ATOM     22  O   UNL d   1     -38.419  14.174  15.598  0.00  0.00    -0.326 OA
ATOM     23  C   UNL d   1     -37.948  13.563  15.297  0.00  0.00     0.181 C 
ENDBRANCH  17  22
ENDBRANCH   1  14
TORSDOF 5
ENDMDL
MODEL 7
REMARK VINA RESULT:      -5.9      8.858      9.815
REMARK  5 active torsions:
REMARK  status: ('A' for Active; 'I' for Inactive)
REMARK    1  A    between atoms: C_6  and  C_3 
REMARK    2  A    between atoms: C_7  and  C_6 
REMARK    3  A    between atoms: C_8  and  C_7 
REMARK    4  A    between atoms: O_16  and  C_10 
REMARK    5  A    between atoms: O_17  and  C_12 
ROOT
ATOM      1  C   UNL d   1     -39.980  14.527  20.141  0.00  0.00     0.198 C 
ATOM      2  O   UNL d   1     -40.791  14.402  20.032  0.00  0.00    -0.286 OA
ENDROOT
BRANCH   1   3
ATOM      3  C   UNL d   1     -39.468  14.491  19.489  0.00  0.00     0.067 C 
BRANCH   3   4
ATOM      4  C   UNL d   1     -39.771  14.551  18.726  0.00  0.00     0.107 A 
ATOM      5  O   UNL d   1     -40.546  14.781  18.517  0.00  0.00    -0.273 OA
ATOM      6  C   UNL d   1     -40.605  14.764  17.700  0.00  0.00     0.300 A 
ATOM      7  C   UNL d   1     -39.872  14.525  17.394  0.00  0.00     0.065 A 
ATOM      8  O   UNL d   1     -41.277  14.952  17.253  0.00  0.00    -0.259 OA
ATOM      9  C   UNL d   1     -39.361  14.395  18.029  0.00  0.00     0.028 A 
ATOM     10  C   UNL d   1     -39.611  14.412  16.620  0.00  0.00     0.005 A 
ATOM     11  C   UNL d   1     -38.579  14.149  17.892  0.00  0.00     0.002 A 
ATOM     12  C   UNL d   1     -38.317  14.035  17.118  0.00  0.00     0.000 A 
ATOM     13  C   UNL d   1     -38.837  14.168  16.481  0.00  0.00     0.000 A 
ENDBRANCH   3   4
ENDBRANCH   1   3
BRANCH   1  14
ATOM     14  C   UNL d   1     -39.679  14.686  20.889  0.00  0.00     0.041 A 
ATOM     15  C   UNL d   1     -39.378  14.071  21.344  0.00  0.00     0.029 A 
ATOM     16  C   UNL d   1     -39.073  14.220  22.096  0.00  0.00     0.116 A 
ATOM     17  C   UNL d   1     -39.070  14.992  22.392  0.00  0.00     0.116 A 
ATOM     18  C   UNL d   1     -39.374  15.610  21.930  0.00  0.00     0.026 A 
ATOM     19  C   UNL d   1     -39.676  15.451  21.182  0.00  0.00     0.005 A 
BRANCH  16  20
ATOM     20  O   UNL d   1     -38.772  13.605  22.551  0.00  0.00    -0.326 OA
ATOM     21  C   UNL d   1     -38.305  13.018  22.196  0.00  0.00     0.181 C 
ENDBRANCH  16  20
BRANCH  17  22
ATOM     22  O   UNL d   1     -38.768  15.151  23.141  0.00  0.00    -0.326 OA
ATOM     23  C   UNL d   1     -38.778  15.922  23.442  0.00  0.00     0.181 C 
ENDBRANCH  17  22
ENDBRANCH   1  14
TORSDOF 5
ENDMDL
MODEL 8
REMARK VINA RESULT:      -5.9      1.040      4.708
REMARK  5 active torsions:
REMARK  status: ('A' for Active; 'I' for Inactive)
REMARK    1  A    between atoms: C_6  and  C_3 
REMARK    2  A    between atoms: C_7  and  C_6 
REMARK    3  A    between atoms: C_8  and  C_7 
REMARK    4  A    between atoms: O_16  and  C_10 
REMARK    5  A    between atoms: O_17  and  C_12 
ROOT
ATOM      1  C   UNL d   1     -47.921  12.504  23.227  0.00  0.00     0.198 C 
ATOM      2  O   UNL d   1     -47.954  11.795  23.653  0.00  0.00    -0.286 OA
ENDROOT
BRANCH   1   3
ATOM      3  C   UNL d   1     -47.191  12.887  23.121  0.00  0.00     0.067 C 
BRANCH   3   4
ATOM      4  C   UNL d   1     -46.495  12.448  23.127  0.00  0.00     0.107 A 
ATOM      5  O   UNL d   1     -46.356  11.742  23.550  0.00  0.00    -0.273 OA
ATOM      6  C   UNL d   1     -45.590  11.497  23.394  0.00  0.00     0.300 A 
ATOM      7  C   UNL d   1     -45.246  12.045  22.875  0.00  0.00     0.065 A 
ATOM      8  O   UNL d   1     -45.220  10.822  23.698  0.00  0.00    -0.259 OA
ATOM      9  C   UNL d   1     -45.806  12.629  22.713  0.00  0.00     0.028 A 
ATOM     10  C   UNL d   1     -44.496  12.083  22.533  0.00  0.00     0.005 A 
ATOM     11  C   UNL d   1     -45.618  13.259  22.204  0.00  0.00     0.002 A 
ATOM     12  C   UNL d   1     -44.868  13.297  21.862  0.00  0.00     0.000 A 
ATOM     13  C   UNL d   1     -44.306  12.705  22.029  0.00  0.00     0.000 A 
ENDBRANCH   3   4
ENDBRANCH   1   3
BRANCH   1  14
ATOM     14  C   UNL d   1     -48.604  12.833  22.909  0.00  0.00     0.041 A 
ATOM     15  C   UNL d   1     -48.924  13.510  23.248  0.00  0.00     0.029 A 
ATOM     16  C   UNL d   1     -49.609  13.848  22.936  0.00  0.00     0.116 A 
ATOM     17  C   UNL d   1     -49.975  13.503  22.281  0.00  0.00     0.116 A 
ATOM     18  C   UNL d   1     -49.650  12.819  21.941  0.00  0.00     0.026 A 
ATOM     19  C   UNL d   1     -48.966  12.490  22.259  0.00  0.00     0.005 A 
BRANCH  16  20
ATOM     20  O   UNL d   1     -49.928  14.526  23.275  0.00  0.00    -0.326 OA
ATOM     21  C   UNL d   1     -49.475  15.219  23.319  0.00  0.00     0.181 C 
ENDBRANCH  16  20
BRANCH  17  22
ATOM     22  O   UNL d   1     -50.658  13.832  21.962  0.00  0.00    -0.326 OA
ATOM     23  C   UNL d   1     -51.064  13.447  21.352  0.00  0.00     0.181 C 
ENDBRANCH  17  22
ENDBRANCH   1  14
TORSDOF 5
ENDMDL
MODEL 9
REMARK VINA RESULT:      -5.9      8.487      9.679
REMARK  5 active torsions:
REMARK  status: ('A' for Active; 'I' for Inactive)
REMARK    1  A    between atoms: C_6  and  C_3 
REMARK    2  A    between atoms: C_7  and  C_6 
REMARK    3  A    between atoms: C_8  and  C_7 
REMARK    4  A    between atoms: O_16  and  C_10 
REMARK    5  A    between atoms: O_17  and  C_12 
ROOT
ATOM      1  C   UNL d   1     -40.343  14.448  20.234  0.00  0.00     0.198 C 
ATOM      2  O   UNL d   1     -40.823  13.887  20.609  0.00  0.00    -0.286 OA
ENDROOT
BRANCH   1   3
ATOM      3  C   UNL d   1     -39.771  14.860  20.673  0.00  0.00     0.067 C 
BRANCH   3   4
ATOM      4  C   UNL d   1     -39.423  14.503  21.328  0.00  0.00     0.107 A 
ATOM      5  O   UNL d   1     -39.271  13.689  21.428  0.00  0.00    -0.273 OA
ATOM      6  C   UNL d   1     -38.920  13.582  22.160  0.00  0.00     0.300 A 
ATOM      7  C   UNL d   1     -38.850  14.325  22.522  0.00  0.00     0.065 A 
ATOM      8  O   UNL d   1     -38.676  12.861  22.486  0.00  0.00    -0.259 OA
ATOM      9  C   UNL d   1     -39.161  14.890  22.007  0.00  0.00     0.028 A 
ATOM     10  C   UNL d   1     -38.544  14.553  23.253  0.00  0.00     0.005 A 
ATOM     11  C   UNL d   1     -39.167  15.693  22.222  0.00  0.00     0.002 A 
ATOM     12  C   UNL d   1     -38.861  15.921  22.953  0.00  0.00     0.000 A 
ATOM     13  C   UNL d   1     -38.548  15.347  23.469  0.00  0.00     0.000 A 
ENDBRANCH   3   4
ENDBRANCH   1   3
BRANCH   1  14
ATOM     14  C   UNL d   1     -40.428  14.600  19.431  0.00  0.00     0.041 A 
ATOM     15  C   UNL d   1     -40.131  14.064  18.883  0.00  0.00     0.029 A 
ATOM     16  C   UNL d   1     -40.211  14.206  18.074  0.00  0.00     0.116 A 
ATOM     17  C   UNL d   1     -40.592  14.892  17.815  0.00  0.00     0.116 A 
ATOM     18  C   UNL d   1     -40.891  15.432  18.370  0.00  0.00     0.026 A 
ATOM     19  C   UNL d   1     -40.806  15.280  19.174  0.00  0.00     0.005 A 
BRANCH  16  20
ATOM     20  O   UNL d   1     -39.913  13.670  17.527  0.00  0.00    -0.326 OA
ATOM     21  C   UNL d   1     -39.135  13.393  17.601  0.00  0.00     0.181 C 
ENDBRANCH  16  20
BRANCH  17  22
ATOM     22  O   UNL d   1     -40.677  15.044  17.011  0.00  0.00    -0.326 OA
ATOM     23  C   UNL d   1     -41.052  15.736  16.752  0.00  0.00     0.181 C 
ENDBRANCH  17  22
ENDBRANCH   1  14
TORSDOF 5
ENDMDL
