MODEL 1
REMARK VINA RESULT:      28.8      0.000      0.000
REMARK  6 active torsions:
REMARK  status: ('A' for Active; 'I' for Inactive)
REMARK    1  A    between atoms: C_2  and  S_1 
REMARK    2  A    between atoms: N_10  and  S_1 
REMARK    3  A    between atoms: O_16  and  C_7 
REMARK    4  A    between atoms: C_13  and  N_10 
REMARK    5  A    between atoms: N_11  and  C_17 
REMARK    6  A    between atoms: C_17  and  C_13 
ROOT
ATOM      1  S   UNL d   1      14.520  12.940  -1.369  0.00  0.00     0.286 S 
ATOM      2  O   UNL d   1      14.902  12.207  -1.297  0.00  0.00    -0.198 OA
ATOM      3  O   UNL d   1      14.144  13.660  -1.440  0.00  0.00    -0.198 OA
ENDROOT
BRANCH   1   4
ATOM      4  C   UNL d   1      14.084  12.650  -2.006  0.00  0.00     0.117 A 
ATOM      5  C   UNL d   1      14.220  12.943  -2.766  0.00  0.00     0.027 A 
ATOM      6  C   UNL d   1      13.784  12.653  -3.404  0.00  0.00     0.081 A 
ATOM      7 CL   UNL d   1      13.920  12.947  -4.170  0.00  0.00    -0.080 Cl
ATOM      8  C   UNL d   1      13.213  12.070  -3.282  0.00  0.00     0.105 A 
ATOM      9  C   UNL d   1      13.082  11.783  -2.528  0.00  0.00     0.037 A 
ATOM     10  C   UNL d   1      13.518  12.073  -1.891  0.00  0.00     0.072 A 
ATOM     11 CL   UNL d   1      13.380  11.779  -1.135  0.00  0.00    -0.082 Cl
BRANCH   8  12
ATOM     12  O   UNL d   1      12.777  11.779  -3.920  0.00  0.00    -0.327 OA
ATOM     13  C   UNL d   1      12.823  12.153  -4.654  0.00  0.00     0.181 C 
ENDBRANCH   8  12
ENDBRANCH   1   4
BRANCH   1  14
ATOM     14  N   UNL d   1      14.955  13.231  -0.732  0.00  0.00    -0.155 NA
BRANCH  14  15
ATOM     15  C   UNL d   1      14.865  14.005  -0.495  0.00  0.00     0.131 C 
BRANCH  15  16
ATOM     16  C   UNL d   1      15.483  14.393  -0.109  0.00  0.00     0.102 C 
BRANCH  16  17
ATOM     17  N   UNL d   1      15.587  15.205  -0.211  0.00  0.00    -0.298 N 
ATOM     18  C   UNL d   1      14.951  15.678  -0.441  0.00  0.00     0.107 A 
ATOM     19  C   UNL d   1      15.057  16.490  -0.542  0.00  0.00     0.142 A 
ATOM     20  O   UNL d   1      15.801  16.833  -0.413  0.00  0.00    -0.300 OA
ATOM     21  C   UNL d   1      16.436  16.360  -0.183  0.00  0.00     0.142 A 
ATOM     22  C   UNL d   1      16.329  15.544  -0.081  0.00  0.00     0.107 A 
ENDBRANCH  16  17
ENDBRANCH  15  16
ENDBRANCH  14  15
ENDBRANCH   1  14
TORSDOF 6
ENDMDL
MODEL 2
REMARK VINA RESULT:      30.0      2.529      3.461
REMARK  6 active torsions:
REMARK  status: ('A' for Active; 'I' for Inactive)
REMARK    1  A    between atoms: C_2  and  S_1 
REMARK    2  A    between atoms: N_10  and  S_1 
REMARK    3  A    between atoms: O_16  and  C_7 
REMARK    4  A    between atoms: C_13  and  N_10 
REMARK    5  A    between atoms: N_11  and  C_17 
REMARK    6  A    between atoms: C_17  and  C_13 
ROOT
ATOM      1  S   UNL d   1      13.182  12.448  -3.758  0.00  0.00     0.286 S 
ATOM      2  O   UNL d   1      13.394  12.983  -3.160  0.00  0.00    -0.198 OA
ATOM      3  O   UNL d   1      12.974  11.922  -4.346  0.00  0.00    -0.198 OA
ENDROOT
BRANCH   1   4
ATOM      4  C   UNL d   1      13.170  13.064  -4.305  0.00  0.00     0.117 A 
ATOM      5  C   UNL d   1      13.082  13.843  -4.047  0.00  0.00     0.027 A 
ATOM      6  C   UNL d   1      13.069  14.460  -4.595  0.00  0.00     0.081 A 
ATOM      7 CL   UNL d   1      12.981  15.245  -4.337  0.00  0.00    -0.080 Cl
ATOM      8  C   UNL d   1      13.145  14.298  -5.401  0.00  0.00     0.105 A 
ATOM      9  C   UNL d   1      13.231  13.526  -5.652  0.00  0.00     0.037 A 
ATOM     10  C   UNL d   1      13.244  12.909  -5.104  0.00  0.00     0.072 A 
ATOM     11 CL   UNL d   1      13.331  12.134  -5.365  0.00  0.00    -0.082 Cl
BRANCH   8  12
ATOM     12  O   UNL d   1      13.132  14.915  -5.949  0.00  0.00    -0.327 OA
ATOM     13  C   UNL d   1      13.480  15.640  -5.762  0.00  0.00     0.181 C 
ENDBRANCH   8  12
ENDBRANCH   1   4
BRANCH   1  14
ATOM     14  N   UNL d   1      13.195  11.831  -3.211  0.00  0.00    -0.155 NA
BRANCH  14  15
ATOM     15  C   UNL d   1      13.783  11.796  -2.648  0.00  0.00     0.131 C 
BRANCH  15  16
ATOM     16  C   UNL d   1      13.588  11.779  -1.847  0.00  0.00     0.102 C 
BRANCH  16  17
ATOM     17  N   UNL d   1      14.154  11.973  -1.280  0.00  0.00    -0.298 N 
ATOM     18  C   UNL d   1      13.928  12.349  -0.581  0.00  0.00     0.107 A 
ATOM     19  C   UNL d   1      14.496  12.542  -0.015  0.00  0.00     0.142 A 
ATOM     20  O   UNL d   1      15.294  12.360  -0.144  0.00  0.00    -0.300 OA
ATOM     21  C   UNL d   1      15.520  11.984  -0.843  0.00  0.00     0.142 A 
ATOM     22  C   UNL d   1      14.949  11.790  -1.412  0.00  0.00     0.107 A 
ENDBRANCH  16  17
ENDBRANCH  15  16
ENDBRANCH  14  15
ENDBRANCH   1  14
TORSDOF 6
ENDMDL
