MODEL 1
REMARK VINA RESULT:      72.3      0.000      0.000
REMARK  5 active torsions:
REMARK  status: ('A' for Active; 'I' for Inactive)
REMARK    1  A    between atoms: C_5  and  N_1 
REMARK    2  A    between atoms: C_2  and  N_3 
REMARK    3  A    between atoms: C_7  and  C_2 
REMARK    4  A    between atoms: N_4  and  C_8 
REMARK    5  A    between atoms: N_16  and  C_11 
ROOT
ATOM      1  N   UNL d   1     -48.169  29.240  35.134  0.00  0.00    -0.293 N 
ATOM      2  N   UNL d   1     -49.122  28.023  34.575  0.00  0.00    -0.301 N 
ATOM      3  C   UNL d   1     -48.230  28.532  35.566  0.00  0.00     0.100 A 
ATOM      4  C   UNL d   1     -48.576  29.338  34.437  0.00  0.00     0.100 A 
ATOM      5  C   UNL d   1     -49.059  28.727  34.149  0.00  0.00     0.100 A 
ATOM      6  C   UNL d   1     -48.702  27.931  35.288  0.00  0.00     0.100 A 
ENDROOT
BRANCH   1   7
ATOM      7  C   UNL d   1     -47.687  29.848  35.421  0.00  0.00     0.120 C 
ATOM      8  S   UNL d   1     -47.205  29.723  36.081  0.00  0.00    -0.059 SA
BRANCH   7   9
ATOM      9  C   UNL d   1     -47.689  30.581  35.046  0.00  0.00     0.027 A 
ATOM     10  C   UNL d   1     -48.324  31.094  35.143  0.00  0.00     0.004 A 
ATOM     11  C   UNL d   1     -48.327  31.829  34.768  0.00  0.00     0.018 A 
ATOM     12  C   UNL d   1     -47.681  32.044  34.290  0.00  0.00     0.064 A 
ATOM     13  C   UNL d   1     -47.048  31.525  34.196  0.00  0.00     0.018 A 
ATOM     14  C   UNL d   1     -47.049  30.796  34.571  0.00  0.00     0.004 A 
BRANCH  12  15
ATOM     15  N   UNL d   1     -47.686  32.779  33.915  0.00  0.00    -0.301 N 
ATOM     16  C   UNL d   1     -46.968  33.132  33.701  0.00  0.00     0.100 C 
ATOM     17  C   UNL d   1     -48.402  33.159  33.753  0.00  0.00     0.100 C 
ENDBRANCH  12  15
ENDBRANCH   7   9
ENDBRANCH   1   7
BRANCH   2  18
ATOM     18  C   UNL d   1     -49.602  27.413  34.292  0.00  0.00     0.064 A 
ATOM     19  C   UNL d   1     -49.345  26.954  33.667  0.00  0.00     0.019 A 
ATOM     20  C   UNL d   1     -49.825  26.344  33.384  0.00  0.00     0.025 A 
ATOM     21  C   UNL d   1     -50.558  26.203  33.733  0.00  0.00     0.127 A 
ATOM     22  C   UNL d   1     -50.818  26.667  34.365  0.00  0.00     0.025 A 
ATOM     23  C   UNL d   1     -50.338  27.271  34.642  0.00  0.00     0.019 A 
BRANCH  21  24
ATOM     24  N   UNL d   1     -51.036  25.595  33.451  0.00  0.00    -0.114 N 
ATOM     25  O   UNL d   1     -50.714  24.845  33.308  0.00  0.00    -0.532 OA
ATOM     26  O   UNL d   1     -51.837  25.726  33.309  0.00  0.00    -0.532 OA
ENDBRANCH  21  24
ENDBRANCH   2  18
TORSDOF 5
ENDMDL
MODEL 2
REMARK VINA RESULT:      73.8      2.827      5.878
REMARK  5 active torsions:
REMARK  status: ('A' for Active; 'I' for Inactive)
REMARK    1  A    between atoms: C_5  and  N_1 
REMARK    2  A    between atoms: C_2  and  N_3 
REMARK    3  A    between atoms: C_7  and  C_2 
REMARK    4  A    between atoms: N_4  and  C_8 
REMARK    5  A    between atoms: N_16  and  C_11 
ROOT
ATOM      1  N   UNL d   1     -50.531  27.761  33.926  0.00  0.00    -0.293 N 
ATOM      2  N   UNL d   1     -49.244  28.542  34.585  0.00  0.00    -0.301 N 
ATOM      3  C   UNL d   1     -50.118  27.415  34.559  0.00  0.00     0.100 A 
ATOM      4  C   UNL d   1     -50.306  28.484  33.628  0.00  0.00     0.100 A 
ATOM      5  C   UNL d   1     -49.656  28.883  33.957  0.00  0.00     0.100 A 
ATOM      6  C   UNL d   1     -49.481  27.802  34.884  0.00  0.00     0.100 A 
ENDROOT
BRANCH   1   7
ATOM      7  C   UNL d   1     -51.179  27.363  33.599  0.00  0.00     0.120 C 
ATOM      8  S   UNL d   1     -51.826  27.786  33.306  0.00  0.00    -0.059 SA
BRANCH   7   9
ATOM      9  C   UNL d   1     -51.176  26.540  33.566  0.00  0.00     0.027 A 
ATOM     10  C   UNL d   1     -51.852  26.132  33.339  0.00  0.00     0.004 A 
ATOM     11  C   UNL d   1     -51.851  25.308  33.306  0.00  0.00     0.018 A 
ATOM     12  C   UNL d   1     -51.157  24.894  33.505  0.00  0.00     0.064 A 
ATOM     13  C   UNL d   1     -50.482  25.309  33.732  0.00  0.00     0.018 A 
ATOM     14  C   UNL d   1     -50.488  26.128  33.764  0.00  0.00     0.004 A 
BRANCH  12  15
ATOM     15  N   UNL d   1     -51.156  24.070  33.472  0.00  0.00    -0.301 N 
ATOM     16  C   UNL d   1     -51.861  23.656  33.606  0.00  0.00     0.100 C 
ATOM     17  C   UNL d   1     -50.457  23.661  33.306  0.00  0.00     0.100 C 
ENDBRANCH  12  15
ENDBRANCH   7   9
ENDBRANCH   1   7
BRANCH   2  18
ATOM     18  C   UNL d   1     -48.597  28.936  34.915  0.00  0.00     0.064 A 
ATOM     19  C   UNL d   1     -48.539  29.748  34.841  0.00  0.00     0.019 A 
ATOM     20  C   UNL d   1     -47.892  30.142  35.171  0.00  0.00     0.025 A 
ATOM     21  C   UNL d   1     -47.311  29.715  35.571  0.00  0.00     0.127 A 
ATOM     22  C   UNL d   1     -47.370  28.895  35.645  0.00  0.00     0.025 A 
ATOM     23  C   UNL d   1     -48.014  28.509  35.316  0.00  0.00     0.019 A 
BRANCH  21  24
ATOM     24  N   UNL d   1     -46.666  30.108  35.899  0.00  0.00    -0.114 N 
ATOM     25  O   UNL d   1     -46.648  30.270  36.711  0.00  0.00    -0.532 OA
ATOM     26  O   UNL d   1     -46.035  30.344  35.425  0.00  0.00    -0.532 OA
ENDBRANCH  21  24
ENDBRANCH   2  18
TORSDOF 5
ENDMDL
