MODEL 1
REMARK VINA RESULT:      -2.8      0.000      0.000
REMARK  4 active torsions:
REMARK  status: ('A' for Active; 'I' for Inactive)
REMARK    1  A    between atoms: C_10  and  N_3 
REMARK    2  A    between atoms: C_12  and  N_7 
REMARK    3  A    between atoms: C_19  and  C_12 
REMARK    4  A    between atoms: C_20  and  C_19 
ROOT
ATOM      1  C   UNL d   1      32.838  19.279 -23.090  0.00  0.00     0.172 A 
ATOM      2  C   UNL d   1      33.003  19.998 -23.458  0.00  0.00     0.113 A 
ATOM      3  N   UNL d   1      32.806  18.698 -23.682  0.00  0.00    -0.212 N 
ATOM      4  N   UNL d   1      32.739  19.245 -22.276  0.00  0.00    -0.206 NA
ATOM      5  C   UNL d   1      33.069  20.684 -23.014  0.00  0.00     0.270 A 
ATOM      6  N   UNL d   1      32.951  19.064 -24.399  0.00  0.00    -0.162 NA
ATOM      7  N   UNL d   1      32.970  20.655 -22.192  0.00  0.00    -0.255 N 
ATOM      8  C   UNL d   1      33.070  19.849 -24.272  0.00  0.00     0.129 A 
ATOM      9  C   UNL d   1      32.805  19.936 -21.823  0.00  0.00     0.187 A 
ATOM     10  O   UNL d   1      33.234  21.403 -23.382  0.00  0.00    -0.266 OA
ENDROOT
BRANCH   3  11
ATOM     11  C   UNL d   1      32.661  17.900 -23.606  0.00  0.00     0.085 A 
ATOM     12  C   UNL d   1      33.239  17.403 -23.287  0.00  0.00     0.021 A 
ATOM     13  C   UNL d   1      33.090  16.598 -23.213  0.00  0.00     0.031 A 
ATOM     14  C   UNL d   1      32.382  16.277 -23.447  0.00  0.00     0.140 A 
ATOM     15  C   UNL d   1      31.791  16.782 -23.772  0.00  0.00     0.031 A 
ATOM     16  F   UNL d   1      32.248  15.453 -23.362  0.00  0.00    -0.204 F 
ATOM     17  C   UNL d   1      31.930  17.584 -23.850  0.00  0.00     0.021 A 
ENDBRANCH   3  11
BRANCH   7  18
ATOM     18  C   UNL d   1      33.036  21.348 -21.732  0.00  0.00     0.085 C 
BRANCH  18  19
ATOM     19  C   UNL d   1      32.557  21.450 -21.061  0.00  0.00     0.019 C 
BRANCH  19  20
ATOM     20  C   UNL d   1      32.620  22.151 -20.617  0.00  0.00     0.002 C 
ATOM     21  C   UNL d   1      32.144  22.793 -20.816  0.00  0.00     0.000 C 
ATOM     22  C   UNL d   1      33.147  22.199 -19.995  0.00  0.00     0.000 C 
ENDBRANCH  19  20
ENDBRANCH  18  19
ENDBRANCH   7  18
TORSDOF 4
ENDMDL
MODEL 2
REMARK VINA RESULT:      -2.2      1.958      4.628
REMARK  4 active torsions:
REMARK  status: ('A' for Active; 'I' for Inactive)
REMARK    1  A    between atoms: C_10  and  N_3 
REMARK    2  A    between atoms: C_12  and  N_7 
REMARK    3  A    between atoms: C_19  and  C_12 
REMARK    4  A    between atoms: C_20  and  C_19 
ROOT
ATOM      1  C   UNL d   1      32.947  20.622 -22.346  0.00  0.00     0.172 A 
ATOM      2  C   UNL d   1      33.099  20.572 -23.156  0.00  0.00     0.113 A 
ATOM      3  N   UNL d   1      32.997  21.423 -22.134  0.00  0.00    -0.212 N 
ATOM      4  N   UNL d   1      32.786  19.944 -21.914  0.00  0.00    -0.206 NA
ATOM      5  C   UNL d   1      33.089  19.844 -23.532  0.00  0.00     0.270 A 
ATOM      6  N   UNL d   1      33.176  21.849 -22.809  0.00  0.00    -0.162 NA
ATOM      7  N   UNL d   1      32.927  19.156 -23.100  0.00  0.00    -0.255 N 
ATOM      8  C   UNL d   1      33.239  21.343 -23.429  0.00  0.00     0.129 A 
ATOM      9  C   UNL d   1      32.776  19.207 -22.291  0.00  0.00     0.187 A 
ATOM     10  O   UNL d   1      33.240  19.794 -24.342  0.00  0.00    -0.266 OA
ENDROOT
BRANCH   3  11
ATOM     11  C   UNL d   1      32.893  21.763 -21.402  0.00  0.00     0.085 A 
ATOM     12  C   UNL d   1      33.241  21.422 -20.734  0.00  0.00     0.021 A 
ATOM     13  C   UNL d   1      33.134  21.769 -19.996  0.00  0.00     0.031 A 
ATOM     14  C   UNL d   1      32.692  22.444 -19.906  0.00  0.00     0.140 A 
ATOM     15  C   UNL d   1      32.337  22.794 -20.586  0.00  0.00     0.031 A 
ATOM     16  F   UNL d   1      32.595  22.783 -19.145  0.00  0.00    -0.204 F 
ATOM     17  C   UNL d   1      32.437  22.456 -21.324  0.00  0.00     0.021 A 
ENDBRANCH   3  11
BRANCH   7  18
ATOM     18  C   UNL d   1      32.916  18.411 -23.476  0.00  0.00     0.085 C 
BRANCH  18  19
ATOM     19  C   UNL d   1      32.453  17.795 -23.165  0.00  0.00     0.019 C 
BRANCH  19  20
ATOM     20  C   UNL d   1      32.440  17.059 -23.553  0.00  0.00     0.002 C 
ATOM     21  C   UNL d   1      33.100  16.569 -23.501  0.00  0.00     0.000 C 
ATOM     22  C   UNL d   1      31.782  16.828 -23.979  0.00  0.00     0.000 C 
ENDBRANCH  19  20
ENDBRANCH  18  19
ENDBRANCH   7  18
TORSDOF 4
ENDMDL
MODEL 3
REMARK VINA RESULT:      -1.8      2.414      4.868
REMARK  4 active torsions:
REMARK  status: ('A' for Active; 'I' for Inactive)
REMARK    1  A    between atoms: C_10  and  N_3 
REMARK    2  A    between atoms: C_12  and  N_7 
REMARK    3  A    between atoms: C_19  and  C_12 
REMARK    4  A    between atoms: C_20  and  C_19 
ROOT
ATOM      1  C   UNL d   1      32.017  18.001 -23.441  0.00  0.00     0.172 A 
ATOM      2  C   UNL d   1      32.164  17.190 -23.420  0.00  0.00     0.113 A 
ATOM      3  N   UNL d   1      32.685  18.383 -23.128  0.00  0.00    -0.212 N 
ATOM      4  N   UNL d   1      31.306  18.285 -23.737  0.00  0.00    -0.206 NA
ATOM      5  C   UNL d   1      31.601  16.662 -23.695  0.00  0.00     0.270 A 
ATOM      6  N   UNL d   1      33.227  17.806 -22.921  0.00  0.00    -0.162 NA
ATOM      7  N   UNL d   1      30.882  16.942 -23.995  0.00  0.00    -0.255 N 
ATOM      8  C   UNL d   1      32.920  17.084 -23.095  0.00  0.00     0.129 A 
ATOM      9  C   UNL d   1      30.735  17.754 -24.015  0.00  0.00     0.187 A 
ATOM     10  O   UNL d   1      31.748  15.850 -23.674  0.00  0.00    -0.266 OA
ENDROOT
BRANCH   3  11
ATOM     11  C   UNL d   1      32.816  19.180 -23.027  0.00  0.00     0.085 A 
ATOM     12  C   UNL d   1      32.691  19.530 -22.289  0.00  0.00     0.021 A 
ATOM     13  C   UNL d   1      32.825  20.335 -22.191  0.00  0.00     0.031 A 
ATOM     14  C   UNL d   1      33.079  20.799 -22.807  0.00  0.00     0.140 A 
ATOM     15  C   UNL d   1      33.207  20.445 -23.560  0.00  0.00     0.031 A 
ATOM     16  F   UNL d   1      33.210  21.619 -22.687  0.00  0.00    -0.204 F 
ATOM     17  C   UNL d   1      33.077  19.644 -23.668  0.00  0.00     0.021 A 
ENDBRANCH   3  11
BRANCH   7  18
ATOM     18  C   UNL d   1      30.303  16.411 -24.277  0.00  0.00     0.085 C 
BRANCH  18  19
ATOM     19  C   UNL d   1      29.502  16.633 -24.284  0.00  0.00     0.019 C 
BRANCH  19  20
ATOM     20  C   UNL d   1      28.916  16.044 -24.250  0.00  0.00     0.002 C 
ATOM     21  C   UNL d   1      28.906  15.457 -24.828  0.00  0.00     0.000 C 
ATOM     22  C   UNL d   1      28.359  16.050 -23.653  0.00  0.00     0.000 C 
ENDBRANCH  19  20
ENDBRANCH  18  19
ENDBRANCH   7  18
TORSDOF 4
ENDMDL
MODEL 4
REMARK VINA RESULT:      -1.1      1.414      2.207
REMARK  4 active torsions:
REMARK  status: ('A' for Active; 'I' for Inactive)
REMARK    1  A    between atoms: C_10  and  N_3 
REMARK    2  A    between atoms: C_12  and  N_7 
REMARK    3  A    between atoms: C_19  and  C_12 
REMARK    4  A    between atoms: C_20  and  C_19 
ROOT
ATOM      1  C   UNL d   1      33.064  21.088 -22.011  0.00  0.00     0.172 A 
ATOM      2  C   UNL d   1      33.087  21.878 -22.246  0.00  0.00     0.113 A 
ATOM      3  N   UNL d   1      33.160  20.623 -22.691  0.00  0.00    -0.212 N 
ATOM      4  N   UNL d   1      32.959  20.896 -21.220  0.00  0.00    -0.206 NA
ATOM      5  C   UNL d   1      33.005  22.476 -21.691  0.00  0.00     0.270 A 
ATOM      6  N   UNL d   1      33.241  21.128 -23.329  0.00  0.00    -0.162 NA
ATOM      7  N   UNL d   1      32.900  22.287 -20.892  0.00  0.00    -0.255 N 
ATOM      8  C   UNL d   1      33.197  21.887 -23.069  0.00  0.00     0.129 A 
ATOM      9  C   UNL d   1      32.877  21.497 -20.656  0.00  0.00     0.187 A 
ATOM     10  O   UNL d   1      33.029  23.266 -21.927  0.00  0.00    -0.266 OA
ENDROOT
BRANCH   3  11
ATOM     11  C   UNL d   1      33.178  19.811 -22.756  0.00  0.00     0.085 A 
ATOM     12  C   UNL d   1      33.150  19.456 -23.502  0.00  0.00     0.021 A 
ATOM     13  C   UNL d   1      33.168  18.636 -23.564  0.00  0.00     0.031 A 
ATOM     14  C   UNL d   1      33.213  18.163 -22.905  0.00  0.00     0.140 A 
ATOM     15  C   UNL d   1      33.241  18.524 -22.144  0.00  0.00     0.031 A 
ATOM     16  F   UNL d   1      33.230  17.328 -22.989  0.00  0.00    -0.204 F 
ATOM     17  C   UNL d   1      33.224  19.338 -22.072  0.00  0.00     0.021 A 
ENDBRANCH   3  11
BRANCH   7  18
ATOM     18  C   UNL d   1      32.816  22.891 -20.321  0.00  0.00     0.085 C 
BRANCH  18  19
ATOM     19  C   UNL d   1      32.910  22.716 -19.514  0.00  0.00     0.019 C 
BRANCH  19  20
ATOM     20  C   UNL d   1      32.711  23.290 -18.947  0.00  0.00     0.002 C 
ATOM     21  C   UNL d   1      31.976  23.660 -18.994  0.00  0.00     0.000 C 
ATOM     22  C   UNL d   1      33.237  23.484 -18.353  0.00  0.00     0.000 C 
ENDBRANCH  19  20
ENDBRANCH  18  19
ENDBRANCH   7  18
TORSDOF 4
ENDMDL
