MODEL 1
REMARK VINA RESULT:      -0.6      0.000      0.000
REMARK  6 active torsions:
REMARK  status: ('A' for Active; 'I' for Inactive)
REMARK       I    between atoms: C_6  and  N_1 
REMARK    1  A    between atoms: C_7  and  C_3 
REMARK    2  A    between atoms: C_8  and  C_4 
REMARK    3  A    between atoms: C_11  and  C_6 
REMARK    4  A    between atoms: C_9  and  C_17 
REMARK    5  A    between atoms: C_17  and  C_11 
REMARK    6  A    between atoms: O_26  and  C_19 
ROOT
ATOM      1  N   UNL d   1      32.968  21.881 -21.471  0.00  0.00    -0.195 N 
ATOM      2  N   UNL d   1      33.003  21.906 -20.653  0.00  0.00    -0.163 NA
ATOM      3  C   UNL d   1      32.867  22.654 -20.394  0.00  0.00     0.103 A 
ATOM      4  C   UNL d   1      32.806  22.634 -21.727  0.00  0.00     0.088 A 
ATOM      5  C   UNL d   1      32.743  23.112 -21.088  0.00  0.00     0.040 A 
ATOM      6  C   UNL d   1      33.080  21.202 -21.936  0.00  0.00     0.281 C 
ATOM      7  O   UNL d   1      33.024  21.277 -22.781  0.00  0.00    -0.265 OA
ENDROOT
BRANCH   3   8
ATOM      8  C   UNL d   1      32.873  22.820 -19.604  0.00  0.00     0.019 A 
ATOM      9  C   UNL d   1      32.497  23.519 -19.339  0.00  0.00     0.004 A 
ATOM     10  C   UNL d   1      32.497  23.702 -18.518  0.00  0.00     0.024 A 
ATOM     11  C   UNL d   1      32.863  23.199 -17.976  0.00  0.00     0.094 A 
ATOM     12  C   UNL d   1      33.239  22.501 -18.241  0.00  0.00     0.024 A 
ATOM     13  C   UNL d   1      33.238  22.319 -19.063  0.00  0.00     0.004 A 
BRANCH  11  14
ATOM     14  O   UNL d   1      32.847  23.405 -17.177  0.00  0.00    -0.328 OA
ATOM     15  C   UNL d   1      32.565  22.877 -16.594  0.00  0.00     0.181 C 
ENDBRANCH  11  14
ENDBRANCH   3   8
BRANCH   4  16
ATOM     16  C   UNL d   1      32.713  22.908 -22.523  0.00  0.00     0.018 A 
ATOM     17  C   UNL d   1      33.238  22.652 -23.115  0.00  0.00     0.002 A 
ATOM     18  C   UNL d   1      33.148  22.918 -23.889  0.00  0.00     0.007 A 
ATOM     19  C   UNL d   1      32.540  23.436 -24.074  0.00  0.00     0.035 A 
ATOM     20  C   UNL d   1      32.015  23.692 -23.483  0.00  0.00     0.007 A 
ATOM     21 BR   UNL d   1      32.451  23.702 -24.848  0.00  0.00    -0.049 Br
ATOM     22  C   UNL d   1      32.096  23.432 -22.704  0.00  0.00     0.002 A 
ENDBRANCH   4  16
BRANCH   6  23
ATOM     23  C   UNL d   1      33.241  20.466 -21.619  0.00  0.00     0.069 C 
BRANCH  23  24
ATOM     24  C   UNL d   1      33.221  19.792 -22.076  0.00  0.00     0.075 C 
BRANCH  24  25
ATOM     25  C   UNL d   1      33.091  19.056 -21.748  0.00  0.00     0.211 C 
ATOM     26  O   UNL d   1      33.065  18.376 -22.213  0.00  0.00    -0.644 OA
ATOM     27  O   UNL d   1      32.981  18.970 -20.939  0.00  0.00    -0.644 OA
ENDBRANCH  24  25
ENDBRANCH  23  24
ENDBRANCH   6  23
TORSDOF 6
ENDMDL
MODEL 2
REMARK VINA RESULT:      -0.3      2.072      3.631
REMARK  6 active torsions:
REMARK  status: ('A' for Active; 'I' for Inactive)
REMARK       I    between atoms: C_6  and  N_1 
REMARK    1  A    between atoms: C_7  and  C_3 
REMARK    2  A    between atoms: C_8  and  C_4 
REMARK    3  A    between atoms: C_11  and  C_6 
REMARK    4  A    between atoms: C_9  and  C_17 
REMARK    5  A    between atoms: C_17  and  C_11 
REMARK    6  A    between atoms: O_26  and  C_19 
ROOT
ATOM      1  N   UNL d   1      32.965  20.785 -23.142  0.00  0.00    -0.195 N 
ATOM      2  N   UNL d   1      33.063  21.317 -22.527  0.00  0.00    -0.163 NA
ATOM      3  C   UNL d   1      32.946  20.948 -21.824  0.00  0.00     0.103 A 
ATOM      4  C   UNL d   1      32.782  20.067 -22.812  0.00  0.00     0.088 A 
ATOM      5  C   UNL d   1      32.767  20.150 -22.015  0.00  0.00     0.040 A 
ATOM      6  C   UNL d   1      33.042  20.964 -23.950  0.00  0.00     0.281 C 
ATOM      7  O   UNL d   1      32.920  20.342 -24.516  0.00  0.00    -0.265 OA
ENDROOT
BRANCH   3   8
ATOM      8  C   UNL d   1      33.013  21.359 -21.131  0.00  0.00     0.019 A 
ATOM      9  C   UNL d   1      32.935  22.191 -21.150  0.00  0.00     0.004 A 
ATOM     10  C   UNL d   1      33.002  22.628 -20.434  0.00  0.00     0.024 A 
ATOM     11  C   UNL d   1      33.144  22.242 -19.719  0.00  0.00     0.094 A 
ATOM     12  C   UNL d   1      33.223  21.410 -19.700  0.00  0.00     0.024 A 
ATOM     13  C   UNL d   1      33.155  20.974 -20.417  0.00  0.00     0.004 A 
BRANCH  11  14
ATOM     14  O   UNL d   1      33.206  22.698 -19.033  0.00  0.00    -0.328 OA
ATOM     15  C   UNL d   1      33.189  22.351 -18.273  0.00  0.00     0.181 C 
ENDBRANCH  11  14
ENDBRANCH   3   8
BRANCH   4  16
ATOM     16  C   UNL d   1      32.626  19.333 -23.205  0.00  0.00     0.018 A 
ATOM     17  C   UNL d   1      33.238  18.781 -23.312  0.00  0.00     0.002 A 
ATOM     18  C   UNL d   1      33.088  18.067 -23.695  0.00  0.00     0.007 A 
ATOM     19  C   UNL d   1      32.333  17.903 -23.968  0.00  0.00     0.035 A 
ATOM     20  C   UNL d   1      31.720  18.454 -23.861  0.00  0.00     0.007 A 
ATOM     21 BR   UNL d   1      32.182  17.189 -24.351  0.00  0.00    -0.049 Br
ATOM     22  C   UNL d   1      31.860  19.173 -23.480  0.00  0.00     0.002 A 
ENDBRANCH   4  16
BRANCH   6  23
ATOM     23  C   UNL d   1      33.230  21.711 -24.224  0.00  0.00     0.069 C 
BRANCH  23  24
ATOM     24  C   UNL d   1      32.902  22.008 -24.909  0.00  0.00     0.075 C 
BRANCH  24  25
ATOM     25  C   UNL d   1      32.682  22.791 -24.973  0.00  0.00     0.211 C 
ATOM     26  O   UNL d   1      33.241  23.386 -25.090  0.00  0.00    -0.644 OA
ATOM     27  O   UNL d   1      31.894  23.012 -24.924  0.00  0.00    -0.644 OA
ENDBRANCH  24  25
ENDBRANCH  23  24
ENDBRANCH   6  23
TORSDOF 6
ENDMDL
MODEL 3
REMARK VINA RESULT:       0.9      1.768      4.670
REMARK  6 active torsions:
REMARK  status: ('A' for Active; 'I' for Inactive)
REMARK       I    between atoms: C_6  and  N_1 
REMARK    1  A    between atoms: C_7  and  C_3 
REMARK    2  A    between atoms: C_8  and  C_4 
REMARK    3  A    between atoms: C_11  and  C_6 
REMARK    4  A    between atoms: C_9  and  C_17 
REMARK    5  A    between atoms: C_17  and  C_11 
REMARK    6  A    between atoms: O_26  and  C_19 
ROOT
ATOM      1  N   UNL d   1      33.240  20.733 -22.606  0.00  0.00    -0.195 N 
ATOM      2  N   UNL d   1      33.240  19.925 -22.474  0.00  0.00    -0.163 NA
ATOM      3  C   UNL d   1      33.240  19.532 -23.173  0.00  0.00     0.103 A 
ATOM      4  C   UNL d   1      33.240  20.845 -23.410  0.00  0.00     0.088 A 
ATOM      5  C   UNL d   1      33.240  20.127 -23.766  0.00  0.00     0.040 A 
ATOM      6  C   UNL d   1      33.241  21.317 -22.015  0.00  0.00     0.281 C 
ATOM      7  O   UNL d   1      33.241  22.133 -22.253  0.00  0.00    -0.265 OA
ENDROOT
BRANCH   3   8
ATOM      8  C   UNL d   1      33.240  18.724 -23.188  0.00  0.00     0.019 A 
ATOM      9  C   UNL d   1      33.239  18.337 -23.929  0.00  0.00     0.004 A 
ATOM     10  C   UNL d   1      33.239  17.496 -23.956  0.00  0.00     0.024 A 
ATOM     11  C   UNL d   1      33.239  17.054 -23.260  0.00  0.00     0.094 A 
ATOM     12  C   UNL d   1      33.240  17.441 -22.519  0.00  0.00     0.024 A 
ATOM     13  C   UNL d   1      33.240  18.283 -22.493  0.00  0.00     0.004 A 
BRANCH  11  14
ATOM     14  O   UNL d   1      33.239  16.231 -23.318  0.00  0.00    -0.328 OA
ATOM     15  C   UNL d   1      33.006  15.841 -24.021  0.00  0.00     0.181 C 
ENDBRANCH  11  14
ENDBRANCH   3   8
BRANCH   4  16
ATOM     16  C   UNL d   1      33.240  21.576 -23.838  0.00  0.00     0.018 A 
ATOM     17  C   UNL d   1      33.241  21.570 -24.669  0.00  0.00     0.002 A 
ATOM     18  C   UNL d   1      33.241  22.280 -25.086  0.00  0.00     0.007 A 
ATOM     19  C   UNL d   1      33.240  22.992 -24.679  0.00  0.00     0.035 A 
ATOM     20  C   UNL d   1      33.240  22.998 -23.848  0.00  0.00     0.007 A 
ATOM     21 BR   UNL d   1      33.240  23.702 -25.096  0.00  0.00    -0.049 Br
ATOM     22  C   UNL d   1      33.240  22.292 -23.420  0.00  0.00     0.002 A 
ENDBRANCH   4  16
BRANCH   6  23
ATOM     23  C   UNL d   1      33.241  21.143 -21.216  0.00  0.00     0.069 C 
BRANCH  23  24
ATOM     24  C   UNL d   1      32.961  21.673 -20.665  0.00  0.00     0.075 C 
BRANCH  24  25
ATOM     25  C   UNL d   1      33.118  21.585 -19.868  0.00  0.00     0.211 C 
ATOM     26  O   UNL d   1      33.189  20.839 -19.524  0.00  0.00    -0.644 OA
ATOM     27  O   UNL d   1      33.212  22.240 -19.384  0.00  0.00    -0.644 OA
ENDBRANCH  24  25
ENDBRANCH  23  24
ENDBRANCH   6  23
TORSDOF 6
ENDMDL
