MODEL 1
REMARK VINA RESULT:      42.7      0.000      0.000
REMARK  6 active torsions:
REMARK  status: ('A' for Active; 'I' for Inactive)
REMARK    1  A    between atoms: C_2  and  S_1 
REMARK    2  A    between atoms: N_3  and  S_1 
REMARK    3  A    between atoms: C_11  and  N_3 
REMARK    4  A    between atoms: O_13  and  C_5 
REMARK    5  A    between atoms: C_14  and  C_11 
REMARK    6  A    between atoms: C_15  and  O_13 
ROOT
ATOM      1  S   UNL d   1     -50.405  26.804  33.667  0.00  0.00     0.285 S 
ATOM      2  O   UNL d   1     -49.760  26.318  33.496  0.00  0.00    -0.198 OA
ATOM      3  O   UNL d   1     -51.049  27.290  33.838  0.00  0.00    -0.198 OA
ENDROOT
BRANCH   1   4
ATOM      4  C   UNL d   1     -50.914  26.161  33.577  0.00  0.00     0.107 A 
ATOM      5  C   UNL d   1     -50.622  25.392  33.635  0.00  0.00     0.040 A 
ATOM      6  C   UNL d   1     -51.131  24.749  33.545  0.00  0.00     0.128 A 
ATOM      7  C   UNL d   1     -51.932  24.875  33.396  0.00  0.00     0.163 A 
ATOM      8  C   UNL d   1     -52.222  25.642  33.337  0.00  0.00     0.032 A 
ATOM      9  F   UNL d   1     -52.440  24.232  33.306  0.00  0.00    -0.202 F 
ATOM     10  C   UNL d   1     -51.713  26.285  33.428  0.00  0.00     0.015 A 
BRANCH   6  11
ATOM     11  O   UNL d   1     -50.840  23.982  33.604  0.00  0.00    -0.303 OA
BRANCH  11  12
ATOM     12  C   UNL d   1     -51.281  23.352  33.308  0.00  0.00     0.123 C 
ATOM     13  C   UNL d   1     -52.040  23.197  33.606  0.00  0.00     0.029 C 
ENDBRANCH  11  12
ENDBRANCH   6  11
ENDBRANCH   1   4
BRANCH   1  14
ATOM     14  N   UNL d   1     -49.896  27.447  33.757  0.00  0.00    -0.157 NA
BRANCH  14  15
ATOM     15  C   UNL d   1     -49.182  27.353  34.165  0.00  0.00     0.112 C 
BRANCH  15  16
ATOM     16  C   UNL d   1     -48.788  28.015  34.461  0.00  0.00     0.020 A 
ATOM     17  C   UNL d   1     -48.998  28.764  34.193  0.00  0.00     0.002 A 
ATOM     18  C   UNL d   1     -48.607  29.422  34.488  0.00  0.00     0.000 A 
ATOM     19  C   UNL d   1     -48.008  29.335  35.049  0.00  0.00     0.000 A 
ATOM     20  C   UNL d   1     -47.802  28.578  35.314  0.00  0.00     0.000 A 
ATOM     21  C   UNL d   1     -48.196  27.917  35.017  0.00  0.00     0.002 A 
ENDBRANCH  15  16
ENDBRANCH  14  15
ENDBRANCH   1  14
TORSDOF 6
ENDMDL
MODEL 2
REMARK VINA RESULT:      43.4      2.938      5.735
REMARK  6 active torsions:
REMARK  status: ('A' for Active; 'I' for Inactive)
REMARK    1  A    between atoms: C_2  and  S_1 
REMARK    2  A    between atoms: N_3  and  S_1 
REMARK    3  A    between atoms: C_11  and  N_3 
REMARK    4  A    between atoms: O_13  and  C_5 
REMARK    5  A    between atoms: C_14  and  C_11 
REMARK    6  A    between atoms: C_15  and  O_13 
ROOT
ATOM      1  S   UNL d   1     -48.420  28.741  34.679  0.00  0.00     0.285 S 
ATOM      2  O   UNL d   1     -48.882  29.256  34.229  0.00  0.00    -0.198 OA
ATOM      3  O   UNL d   1     -47.957  28.227  35.129  0.00  0.00    -0.198 OA
ENDROOT
BRANCH   1   4
ATOM      4  C   UNL d   1     -48.039  29.386  35.025  0.00  0.00     0.107 A 
ATOM      5  C   UNL d   1     -47.938  30.084  34.599  0.00  0.00     0.040 A 
ATOM      6  C   UNL d   1     -47.557  30.729  34.945  0.00  0.00     0.128 A 
ATOM      7  C   UNL d   1     -47.278  30.676  35.718  0.00  0.00     0.163 A 
ATOM      8  C   UNL d   1     -47.379  29.980  36.144  0.00  0.00     0.032 A 
ATOM      9  F   UNL d   1     -46.897  31.321  36.064  0.00  0.00    -0.202 F 
ATOM     10  C   UNL d   1     -47.759  29.335  35.798  0.00  0.00     0.015 A 
BRANCH   6  11
ATOM     11  O   UNL d   1     -47.456  31.425  34.519  0.00  0.00    -0.303 OA
BRANCH  11  12
ATOM     12  C   UNL d   1     -47.922  32.082  34.689  0.00  0.00     0.123 C 
ATOM     13  C   UNL d   1     -47.978  32.708  34.146  0.00  0.00     0.029 C 
ENDBRANCH  11  12
ENDBRANCH   6  11
ENDBRANCH   1   4
BRANCH   1  14
ATOM     14  N   UNL d   1     -48.800  28.097  34.333  0.00  0.00    -0.157 NA
BRANCH  14  15
ATOM     15  C   UNL d   1     -49.521  28.205  33.942  0.00  0.00     0.112 C 
BRANCH  15  16
ATOM     16  C   UNL d   1     -49.975  27.550  33.730  0.00  0.00     0.020 A 
ATOM     17  C   UNL d   1     -50.768  27.654  33.536  0.00  0.00     0.002 A 
ATOM     18  C   UNL d   1     -51.221  27.002  33.324  0.00  0.00     0.000 A 
ATOM     19  C   UNL d   1     -50.884  26.249  33.306  0.00  0.00     0.000 A 
ATOM     20  C   UNL d   1     -50.086  26.152  33.502  0.00  0.00     0.000 A 
ATOM     21  C   UNL d   1     -49.632  26.807  33.715  0.00  0.00     0.002 A 
ENDBRANCH  15  16
ENDBRANCH  14  15
ENDBRANCH   1  14
TORSDOF 6
ENDMDL
