MODEL 1
REMARK VINA RESULT:      -8.6      0.000      0.000
REMARK  5 active torsions:
REMARK  status: ('A' for Active; 'I' for Inactive)
REMARK    1  A    between atoms: C_7  and  N_1 
REMARK    2  A    between atoms: C_23  and  C_5 
REMARK    3  A    between atoms: C_22  and  C_6 
REMARK    4  A    between atoms: C_8  and  C_7 
REMARK       I    between atoms: N_11  and  C_8 
REMARK    5  A    between atoms: C_17  and  N_11 
ROOT
ATOM      1  C   UNL d   1      52.727  33.432  52.620  0.00  0.00     0.148 C 
ENDROOT
BRANCH   1   2
ATOM      2  N   UNL d   1      53.054  32.915  53.175  0.00  0.00    -0.235 N 
ATOM      3  C   UNL d   1      53.360  33.214  53.886  0.00  0.00     0.273 A 
ATOM      4  C   UNL d   1      53.684  32.702  54.436  0.00  0.00     0.086 A 
ATOM      5  O   UNL d   1      53.336  34.028  54.037  0.00  0.00    -0.266 OA
ATOM      6  S   UNL d   1      53.712  31.894  54.296  0.00  0.00    -0.077 SA
ATOM      7  C   UNL d   1      53.411  31.594  53.593  0.00  0.00     0.086 A 
ATOM      8  C   UNL d   1      53.080  32.098  53.028  0.00  0.00     0.273 A 
ATOM      9  O   UNL d   1      52.777  31.800  52.322  0.00  0.00    -0.266 OA
BRANCH   4  10
ATOM     10  C   UNL d   1      53.991  33.004  55.150  0.00  0.00     0.011 C 
ATOM     11  C   UNL d   1      54.792  33.196  55.205  0.00  0.00     0.001 C 
ENDBRANCH   4  10
BRANCH   7  12
ATOM     12  C   UNL d   1      53.436  30.782  53.445  0.00  0.00     0.011 C 
ATOM     13  C   UNL d   1      53.308  30.247  54.062  0.00  0.00     0.001 C 
ENDBRANCH   7  12
ENDBRANCH   1   2
BRANCH   1  14
ATOM     14  C   UNL d   1      51.922  33.604  52.645  0.00  0.00     0.297 C 
ATOM     15  N   UNL d   1      51.632  34.240  52.222  0.00  0.00    -0.207 NA
ATOM     16  O   UNL d   1      51.418  33.130  53.098  0.00  0.00    -0.264 OA
BRANCH  15  17
ATOM     17  C   UNL d   1      50.825  34.412  52.247  0.00  0.00     0.087 A 
ATOM     18  C   UNL d   1      50.369  34.339  51.565  0.00  0.00     0.045 A 
ATOM     19  C   UNL d   1      49.568  34.508  51.579  0.00  0.00     0.121 A 
ATOM     20  O   UNL d   1      48.980  34.485  50.994  0.00  0.00    -0.299 OA
ATOM     21  C   UNL d   1      49.212  34.754  52.282  0.00  0.00     0.119 A 
ATOM     22  C   UNL d   1      48.264  34.719  51.344  0.00  0.00     0.304 A 
ATOM     23  O   UNL d   1      48.418  34.881  52.134  0.00  0.00    -0.300 OA
ATOM     24  C   UNL d   1      49.679  34.825  52.965  0.00  0.00     0.028 A 
ATOM     25  C   UNL d   1      50.480  34.655  52.947  0.00  0.00     0.021 A 
ENDBRANCH  15  17
ENDBRANCH   1  14
TORSDOF 5
ENDMDL
MODEL 2
REMARK VINA RESULT:      -8.6      0.040      1.616
REMARK  5 active torsions:
REMARK  status: ('A' for Active; 'I' for Inactive)
REMARK    1  A    between atoms: C_7  and  N_1 
REMARK    2  A    between atoms: C_23  and  C_5 
REMARK    3  A    between atoms: C_22  and  C_6 
REMARK    4  A    between atoms: C_8  and  C_7 
REMARK       I    between atoms: N_11  and  C_8 
REMARK    5  A    between atoms: C_17  and  N_11 
ROOT
ATOM      1  C   UNL d   1      52.731  33.415  52.643  0.00  0.00     0.148 C 
ENDROOT
BRANCH   1   2
ATOM      2  N   UNL d   1      53.058  32.898  53.198  0.00  0.00    -0.235 N 
ATOM      3  C   UNL d   1      53.077  32.083  53.042  0.00  0.00     0.273 A 
ATOM      4  C   UNL d   1      53.401  31.572  53.593  0.00  0.00     0.086 A 
ATOM      5  O   UNL d   1      52.769  31.792  52.331  0.00  0.00    -0.266 OA
ATOM      6  S   UNL d   1      53.708  31.851  54.300  0.00  0.00    -0.077 SA
ATOM      7  C   UNL d   1      53.691  32.658  54.459  0.00  0.00     0.086 A 
ATOM      8  C   UNL d   1      53.368  33.187  53.913  0.00  0.00     0.273 A 
ATOM      9  O   UNL d   1      53.349  33.996  54.069  0.00  0.00    -0.266 OA
BRANCH   4  10
ATOM     10  C   UNL d   1      53.420  30.754  53.434  0.00  0.00     0.011 C 
ATOM     11  C   UNL d   1      53.369  30.212  54.056  0.00  0.00     0.001 C 
ENDBRANCH   4  10
BRANCH   7  12
ATOM     12  C   UNL d   1      53.999  32.946  55.168  0.00  0.00     0.011 C 
ATOM     13  C   UNL d   1      54.787  33.191  55.206  0.00  0.00     0.001 C 
ENDBRANCH   7  12
ENDBRANCH   1   2
BRANCH   1  14
ATOM     14  C   UNL d   1      51.927  33.592  52.672  0.00  0.00     0.297 C 
ATOM     15  N   UNL d   1      51.640  34.232  52.253  0.00  0.00    -0.207 NA
ATOM     16  O   UNL d   1      51.422  33.121  53.124  0.00  0.00    -0.264 OA
BRANCH  15  17
ATOM     17  C   UNL d   1      50.835  34.410  52.281  0.00  0.00     0.087 A 
ATOM     18  C   UNL d   1      50.374  34.337  51.602  0.00  0.00     0.045 A 
ATOM     19  C   UNL d   1      49.575  34.512  51.620  0.00  0.00     0.121 A 
ATOM     20  O   UNL d   1      48.983  34.491  51.039  0.00  0.00    -0.299 OA
ATOM     21  C   UNL d   1      49.225  34.763  52.325  0.00  0.00     0.119 A 
ATOM     22  C   UNL d   1      48.271  34.731  51.392  0.00  0.00     0.304 A 
ATOM     23  O   UNL d   1      48.431  34.896  52.180  0.00  0.00    -0.300 OA
ATOM     24  C   UNL d   1      49.696  34.834  53.004  0.00  0.00     0.028 A 
ATOM     25  C   UNL d   1      50.496  34.659  52.983  0.00  0.00     0.021 A 
ENDBRANCH  15  17
ENDBRANCH   1  14
TORSDOF 5
ENDMDL
MODEL 3
REMARK VINA RESULT:      -8.5      1.742      4.646
REMARK  5 active torsions:
REMARK  status: ('A' for Active; 'I' for Inactive)
REMARK    1  A    between atoms: C_7  and  N_1 
REMARK    2  A    between atoms: C_23  and  C_5 
REMARK    3  A    between atoms: C_22  and  C_6 
REMARK    4  A    between atoms: C_8  and  C_7 
REMARK       I    between atoms: N_11  and  C_8 
REMARK    5  A    between atoms: C_17  and  N_11 
ROOT
ATOM      1  C   UNL d   1      53.510  32.816  53.064  0.00  0.00     0.148 C 
ENDROOT
BRANCH   1   2
ATOM      2  N   UNL d   1      53.044  33.477  53.233  0.00  0.00    -0.235 N 
ATOM      3  C   UNL d   1      53.254  33.981  53.858  0.00  0.00     0.273 A 
ATOM      4  C   UNL d   1      52.793  34.635  54.026  0.00  0.00     0.086 A 
ATOM      5  O   UNL d   1      53.929  33.819  54.310  0.00  0.00    -0.266 OA
ATOM      6  S   UNL d   1      52.123  34.804  53.584  0.00  0.00    -0.077 SA
ATOM      7  C   UNL d   1      51.911  34.308  52.964  0.00  0.00     0.086 A 
ATOM      8  C   UNL d   1      52.366  33.643  52.783  0.00  0.00     0.273 A 
ATOM      9  O   UNL d   1      52.157  33.143  52.161  0.00  0.00    -0.266 OA
BRANCH   4  10
ATOM     10  C   UNL d   1      53.006  35.140  54.654  0.00  0.00     0.011 C 
ATOM     11  C   UNL d   1      53.033  35.957  54.535  0.00  0.00     0.001 C 
ENDBRANCH   4  10
BRANCH   7  12
ATOM     12  C   UNL d   1      51.238  34.472  52.515  0.00  0.00     0.011 C 
ATOM     13  C   UNL d   1      50.493  34.466  52.873  0.00  0.00     0.001 C 
ENDBRANCH   7  12
ENDBRANCH   1   2
BRANCH   1  14
ATOM     14  C   UNL d   1      53.298  32.078  53.364  0.00  0.00     0.297 C 
ATOM     15  N   UNL d   1      53.570  31.401  52.998  0.00  0.00    -0.207 NA
ATOM     16  O   UNL d   1      52.813  32.034  54.032  0.00  0.00    -0.264 OA
BRANCH  15  17
ATOM     17  C   UNL d   1      53.359  30.662  53.298  0.00  0.00     0.087 A 
ATOM     18  C   UNL d   1      53.750  30.359  53.957  0.00  0.00     0.045 A 
ATOM     19  C   UNL d   1      53.548  29.628  54.263  0.00  0.00     0.121 A 
ATOM     20  O   UNL d   1      53.837  29.189  54.905  0.00  0.00    -0.299 OA
ATOM     21  C   UNL d   1      52.946  29.187  53.909  0.00  0.00     0.119 A 
ATOM     22  C   UNL d   1      53.407  28.478  54.941  0.00  0.00     0.304 A 
ATOM     23  O   UNL d   1      52.864  28.488  54.326  0.00  0.00    -0.300 OA
ATOM     24  C   UNL d   1      52.556  29.498  53.246  0.00  0.00     0.028 A 
ATOM     25  C   UNL d   1      52.761  30.232  52.942  0.00  0.00     0.021 A 
ENDBRANCH  15  17
ENDBRANCH   1  14
TORSDOF 5
ENDMDL
MODEL 4
REMARK VINA RESULT:      -6.5      1.613      4.905
REMARK  5 active torsions:
REMARK  status: ('A' for Active; 'I' for Inactive)
REMARK    1  A    between atoms: C_7  and  N_1 
REMARK    2  A    between atoms: C_23  and  C_5 
REMARK    3  A    between atoms: C_22  and  C_6 
REMARK    4  A    between atoms: C_8  and  C_7 
REMARK       I    between atoms: N_11  and  C_8 
REMARK    5  A    between atoms: C_17  and  N_11 
ROOT
ATOM      1  C   UNL d   1      51.662  34.360  52.550  0.00  0.00     0.148 C 
ENDROOT
BRANCH   1   2
ATOM      2  N   UNL d   1      50.859  34.504  52.422  0.00  0.00    -0.235 N 
ATOM      3  C   UNL d   1      50.521  34.330  51.684  0.00  0.00     0.273 A 
ATOM      4  C   UNL d   1      49.726  34.473  51.558  0.00  0.00     0.086 A 
ATOM      5  O   UNL d   1      50.990  34.013  51.080  0.00  0.00    -0.266 OA
ATOM      6  S   UNL d   1      49.253  34.787  52.150  0.00  0.00    -0.077 SA
ATOM      7  C   UNL d   1      49.583  34.960  52.883  0.00  0.00     0.086 A 
ATOM      8  C   UNL d   1      50.385  34.821  53.026  0.00  0.00     0.273 A 
ATOM      9  O   UNL d   1      50.720  34.994  53.759  0.00  0.00    -0.266 OA
BRANCH   4  10
ATOM     10  C   UNL d   1      49.388  34.298  50.816  0.00  0.00     0.011 C 
ATOM     11  C   UNL d   1      48.595  34.477  50.672  0.00  0.00     0.001 C 
ENDBRANCH   4  10
BRANCH   7  12
ATOM     12  C   UNL d   1      49.114  35.276  53.484  0.00  0.00     0.011 C 
ATOM     13  C   UNL d   1      48.468  35.754  53.294  0.00  0.00     0.001 C 
ENDBRANCH   7  12
ENDBRANCH   1   2
BRANCH   1  14
ATOM     14  C   UNL d   1      51.902  33.645  52.882  0.00  0.00     0.297 C 
ATOM     15  N   UNL d   1      52.659  33.370  52.745  0.00  0.00    -0.207 NA
ATOM     16  O   UNL d   1      51.374  33.215  53.350  0.00  0.00    -0.264 OA
BRANCH  15  17
ATOM     17  C   UNL d   1      52.900  32.655  53.077  0.00  0.00     0.087 A 
ATOM     18  C   UNL d   1      52.660  31.943  52.738  0.00  0.00     0.045 A 
ATOM     19  C   UNL d   1      52.893  31.228  53.059  0.00  0.00     0.121 A 
ATOM     20  O   UNL d   1      52.743  30.441  52.845  0.00  0.00    -0.299 OA
ATOM     21  C   UNL d   1      53.374  31.217  53.731  0.00  0.00     0.119 A 
ATOM     22  C   UNL d   1      53.134  29.949  53.389  0.00  0.00     0.304 A 
ATOM     23  O   UNL d   1      53.517  30.436  53.927  0.00  0.00    -0.300 OA
ATOM     24  C   UNL d   1      53.611  31.937  54.067  0.00  0.00     0.028 A 
ATOM     25  C   UNL d   1      53.376  32.652  53.742  0.00  0.00     0.021 A 
ENDBRANCH  15  17
ENDBRANCH   1  14
TORSDOF 5
ENDMDL
