MODEL 1
REMARK VINA RESULT:     129.1      0.000      0.000
REMARK  5 active torsions:
REMARK  status: ('A' for Active; 'I' for Inactive)
REMARK    1  A    between atoms: C_8  and  N_1 
REMARK       I    between atoms: N_2  and  C_6 
REMARK    2  A    between atoms: S_11  and  C_3 
REMARK    3  A    between atoms: C_6  and  C_8 
REMARK    4  A    between atoms: C_9  and  C_15 
REMARK       I    between atoms: N_10  and  C_9 
REMARK    5  A    between atoms: C_15  and  S_11 
ROOT
ATOM      1  N   UNL d   1      58.188  48.414  50.911  0.00  0.00    -0.300 N 
ATOM      2  C   UNL d   1      57.361  47.411  50.620  0.00  0.00     0.049 A 
ATOM      3  C   UNL d   1      58.102  47.595  50.936  0.00  0.00     0.087 A 
ATOM      4  C   UNL d   1      56.994  48.115  50.401  0.00  0.00     0.024 A 
ATOM      5  C   UNL d   1      57.507  48.735  50.582  0.00  0.00     0.065 A 
ATOM      6  C   UNL d   1      56.262  48.270  50.063  0.00  0.00     0.002 A 
ATOM      7  C   UNL d   1      57.286  49.515  50.423  0.00  0.00     0.018 A 
ATOM      8  C   UNL d   1      56.036  49.049  49.901  0.00  0.00     0.000 A 
ATOM      9  C   UNL d   1      56.555  49.669  50.084  0.00  0.00     0.002 A 
ENDROOT
BRANCH   1  10
ATOM     10  C   UNL d   1      58.844  48.838  51.170  0.00  0.00     0.142 C 
BRANCH  10  11
ATOM     11  C   UNL d   1      59.476  48.970  50.663  0.00  0.00     0.283 C 
ATOM     12  N   UNL d   1      60.206  49.203  50.965  0.00  0.00    -0.267 N 
ATOM     13  C   UNL d   1      60.841  49.336  50.458  0.00  0.00     0.108 A 
ATOM     14  C   UNL d   1      60.307  49.305  51.775  0.00  0.00     0.108 A 
ATOM     15  C   UNL d   1      61.570  49.569  50.760  0.00  0.00     0.118 A 
ATOM     16  C   UNL d   1      62.214  49.704  50.244  0.00  0.00     0.028 C 
ATOM     17  O   UNL d   1      61.675  49.673  51.572  0.00  0.00    -0.304 OA
ATOM     18  C   UNL d   1      61.044  49.541  52.079  0.00  0.00     0.118 A 
ATOM     19  C   UNL d   1      61.145  49.643  52.890  0.00  0.00     0.028 C 
ATOM     20  O   UNL d   1      59.378  48.868  49.854  0.00  0.00    -0.265 OA
ENDBRANCH  10  11
ENDBRANCH   1  10
BRANCH   2  21
ATOM     21  S   UNL d   1      57.047  46.654  50.539  0.00  0.00    -0.080 SA
BRANCH  21  22
ATOM     22  C   UNL d   1      56.617  46.312  51.152  0.00  0.00     0.097 C 
BRANCH  22  23
ATOM     23  C   UNL d   1      56.558  45.483  51.198  0.00  0.00     0.272 C 
ATOM     24  N   UNL d   1      56.386  45.124  51.914  0.00  0.00    -0.267 N 
ATOM     25  C   UNL d   1      56.331  44.303  51.950  0.00  0.00     0.110 A 
ATOM     26  C   UNL d   1      56.271  45.583  52.589  0.00  0.00     0.110 A 
ATOM     27  C   UNL d   1      56.157  43.938  52.672  0.00  0.00     0.142 A 
ATOM     28  O   UNL d   1      56.040  44.401  53.357  0.00  0.00    -0.300 OA
ATOM     29  C   UNL d   1      56.098  45.216  53.311  0.00  0.00     0.142 A 
ATOM     30  O   UNL d   1      56.673  45.016  50.524  0.00  0.00    -0.266 OA
ENDBRANCH  22  23
ENDBRANCH  21  22
ENDBRANCH   2  21
TORSDOF 5
ENDMDL
