MODEL 1
REMARK VINA RESULT:      49.5      0.000      0.000
REMARK  8 active torsions:
REMARK  status: ('A' for Active; 'I' for Inactive)
REMARK    1  A    between atoms: N_6  and  C_1 
REMARK       I    between atoms: C_2  and  N_3 
REMARK    2  A    between atoms: C_7  and  C_2 
REMARK    3  A    between atoms: N_3  and  C_4 
REMARK    4  A    between atoms: C_4  and  N_6 
REMARK    5  A    between atoms: C_10  and  C_8 
REMARK    6  A    between atoms: C_12  and  C_10 
REMARK    7  A    between atoms: O_18  and  C_12 
REMARK    8  A    between atoms: C_21  and  O_18 
ROOT
ATOM      1  C   UNL d   1     -55.816-100.651 -44.132  0.00  0.00     0.277 C 
ATOM      2  S   UNL d   1     -55.268-100.585 -44.746  0.00  0.00    -0.023 SA
ENDROOT
BRANCH   1   3
ATOM      3  N   UNL d   1     -56.587-100.378 -44.248  0.00  0.00    -0.168 NA
ATOM      4  C   UNL d   1     -56.727 -99.583 -44.407  0.00  0.00     0.282 C 
ATOM      5  O   UNL d   1     -56.103 -99.051 -44.451  0.00  0.00    -0.265 OA
BRANCH   4   6
ATOM      6  C   UNL d   1     -57.505 -99.316 -44.523  0.00  0.00     0.064 A 
ATOM      7  C   UNL d   1     -57.943 -99.045 -43.883  0.00  0.00     0.039 A 
ATOM      8 BR   UNL d   1     -57.619 -99.037 -43.131  0.00  0.00    -0.049 Br
ATOM      9  C   UNL d   1     -58.716 -98.781 -44.006  0.00  0.00     0.007 A 
ATOM     10  C   UNL d   1     -59.049 -98.788 -44.766  0.00  0.00     0.001 A 
ATOM     11  C   UNL d   1     -58.594 -99.064 -45.403  0.00  0.00     0.000 A 
ATOM     12  C   UNL d   1     -57.824 -99.327 -45.282  0.00  0.00     0.005 A 
ENDBRANCH   4   6
ENDBRANCH   1   3
BRANCH   1  13
ATOM     13  N   UNL d   1     -55.595-100.984 -43.416  0.00  0.00    -0.347 NA
BRANCH  13  14
ATOM     14  C   UNL d   1     -55.374-101.321 -42.693  0.00  0.00     0.248 A 
ATOM     15  N   UNL d   1     -55.756-101.950 -42.310  0.00  0.00    -0.210 NA
ATOM     16  C   UNL d   1     -55.347-102.102 -41.610  0.00  0.00     0.096 A 
ATOM     17  C   UNL d   1     -54.712-101.569 -41.559  0.00  0.00     0.059 A 
ATOM     18  S   UNL d   1     -54.736-101.093 -42.228  0.00  0.00    -0.033 SA
BRANCH  16  19
ATOM     19  C   UNL d   1     -55.532-102.680 -41.056  0.00  0.00     0.088 C 
BRANCH  19  20
ATOM     20  C   UNL d   1     -55.536-102.506 -40.249  0.00  0.00     0.302 C 
ATOM     21  O   UNL d   1     -56.161-102.771 -39.782  0.00  0.00    -0.259 OA
BRANCH  20  22
ATOM     22  O   UNL d   1     -54.923-102.076 -39.912  0.00  0.00    -0.271 OA
BRANCH  22  23
ATOM     23  C   UNL d   1     -54.933-101.916 -39.100  0.00  0.00     0.126 C 
ATOM     24  C   UNL d   1     -54.820-102.532 -38.566  0.00  0.00     0.029 C 
ENDBRANCH  22  23
ENDBRANCH  20  22
ENDBRANCH  19  20
ENDBRANCH  16  19
ENDBRANCH  13  14
ENDBRANCH   1  13
TORSDOF 8
ENDMDL
