MODEL 1
REMARK VINA RESULT:      -8.6      0.000      0.000
REMARK  4 active torsions:
REMARK  status: ('A' for Active; 'I' for Inactive)
REMARK    1  A    between atoms: C_2  and  C_1 
REMARK    2  A    between atoms: C_15  and  C_8 
REMARK    3  A    between atoms: C_9  and  C_15 
REMARK    4  A    between atoms: C_18  and  C_10 
ROOT
ATOM      1  C   UNL d   1      52.558  32.982  53.277  0.00  0.00     0.094 A 
ATOM      2  N   UNL d   1      52.179  33.256  52.598  0.00  0.00    -0.238 NA
ATOM      3  C   UNL d   1      51.914  34.024  52.745  0.00  0.00     0.113 A 
ATOM      4  S   UNL d   1      52.127  34.228  53.510  0.00  0.00    -0.066 SA
ATOM      5  C   UNL d   1      52.525  33.585  53.842  0.00  0.00     0.056 A 
ENDROOT
BRANCH   3   6
ATOM      6  C   UNL d   1      51.504  34.504  52.210  0.00  0.00     0.051 C 
BRANCH   6   7
ATOM      7  C   UNL d   1      50.679  34.536  52.239  0.00  0.00     0.113 A 
ATOM      8  N   UNL d   1      50.226  35.127  52.592  0.00  0.00    -0.238 NA
ATOM      9  C   UNL d   1      49.430  34.934  52.490  0.00  0.00     0.088 A 
ATOM     10  C   UNL d   1      49.393  34.223  52.073  0.00  0.00     0.056 A 
ATOM     11  S   UNL d   1      50.163  33.977  51.919  0.00  0.00    -0.066 SA
BRANCH   9  12
ATOM     12  C   UNL d   1      48.787  35.380  52.759  0.00  0.00     0.018 A 
ATOM     13  C   UNL d   1      48.753  35.623  53.537  0.00  0.00     0.002 A 
ATOM     14  C   UNL d   1      48.111  36.066  53.803  0.00  0.00     0.007 A 
ATOM     15  C   UNL d   1      47.502  36.265  53.281  0.00  0.00     0.035 A 
ATOM     16  C   UNL d   1      47.536  36.022  52.504  0.00  0.00     0.007 A 
ATOM     17 BR   UNL d   1      46.860  36.708  53.547  0.00  0.00    -0.049 Br
ATOM     18  C   UNL d   1      48.180  35.576  52.234  0.00  0.00     0.002 A 
ENDBRANCH   9  12
ENDBRANCH   6   7
ENDBRANCH   3   6
BRANCH   1  19
ATOM     19  C   UNL d   1      52.906  32.241  53.374  0.00  0.00     0.082 A 
ATOM     20  C   UNL d   1      53.713  32.184  53.543  0.00  0.00     0.302 A 
ATOM     21  O   UNL d   1      54.062  31.443  53.641  0.00  0.00    -0.273 OA
ATOM     22  O   UNL d   1      54.169  32.867  53.614  0.00  0.00    -0.259 OA
ATOM     23  C   UNL d   1      53.606  30.759  53.570  0.00  0.00     0.103 A 
ATOM     24  C   UNL d   1      52.799  30.817  53.401  0.00  0.00     0.023 A 
ATOM     25  C   UNL d   1      53.954  30.019  53.668  0.00  0.00     0.025 A 
ATOM     26  C   UNL d   1      52.451  31.558  53.304  0.00  0.00     0.009 A 
ATOM     27  C   UNL d   1      52.343  30.134  53.331  0.00  0.00     0.002 A 
ATOM     28  C   UNL d   1      52.692  29.397  53.428  0.00  0.00     0.000 A 
ATOM     29  C   UNL d   1      53.498  29.339  53.597  0.00  0.00     0.002 A 
ENDBRANCH   1  19
TORSDOF 4
ENDMDL
MODEL 2
REMARK VINA RESULT:      -8.4      1.587      2.360
REMARK  4 active torsions:
REMARK  status: ('A' for Active; 'I' for Inactive)
REMARK    1  A    between atoms: C_2  and  C_1 
REMARK    2  A    between atoms: C_15  and  C_8 
REMARK    3  A    between atoms: C_9  and  C_15 
REMARK    4  A    between atoms: C_18  and  C_10 
ROOT
ATOM      1  C   UNL d   1      51.664  33.476  53.161  0.00  0.00     0.094 A 
ATOM      2  N   UNL d   1      51.420  34.087  52.663  0.00  0.00    -0.238 NA
ATOM      3  C   UNL d   1      50.611  33.996  52.525  0.00  0.00     0.113 A 
ATOM      4  S   UNL d   1      50.353  33.333  52.934  0.00  0.00    -0.066 SA
ATOM      5  C   UNL d   1      51.002  33.009  53.328  0.00  0.00     0.056 A 
ENDROOT
BRANCH   3   6
ATOM      6  C   UNL d   1      50.144  34.490  52.054  0.00  0.00     0.051 C 
BRANCH   6   7
ATOM      7  C   UNL d   1      49.513  34.901  52.395  0.00  0.00     0.113 A 
ATOM      8  N   UNL d   1      48.787  35.062  52.042  0.00  0.00    -0.238 NA
ATOM      9  C   UNL d   1      48.327  35.484  52.582  0.00  0.00     0.088 A 
ATOM     10  C   UNL d   1      48.771  35.583  53.270  0.00  0.00     0.056 A 
ATOM     11  S   UNL d   1      49.502  35.224  53.155  0.00  0.00    -0.066 SA
BRANCH   9  12
ATOM     12  C   UNL d   1      47.557  35.757  52.451  0.00  0.00     0.018 A 
ATOM     13  C   UNL d   1      47.159  35.552  51.770  0.00  0.00     0.002 A 
ATOM     14  C   UNL d   1      46.391  35.826  51.642  0.00  0.00     0.007 A 
ATOM     15  C   UNL d   1      46.026  36.307  52.204  0.00  0.00     0.035 A 
ATOM     16  C   UNL d   1      46.424  36.512  52.885  0.00  0.00     0.007 A 
ATOM     17 BR   UNL d   1      45.259  36.581  52.076  0.00  0.00    -0.049 Br
ATOM     18  C   UNL d   1      47.195  36.239  53.016  0.00  0.00     0.002 A 
ENDBRANCH   9  12
ENDBRANCH   6   7
ENDBRANCH   3   6
BRANCH   1  19
ATOM     19  C   UNL d   1      52.430  33.354  53.440  0.00  0.00     0.082 A 
ATOM     20  C   UNL d   1      52.907  32.774  53.097  0.00  0.00     0.302 A 
ATOM     21  O   UNL d   1      53.673  32.651  53.377  0.00  0.00    -0.273 OA
ATOM     22  O   UNL d   1      52.618  32.318  52.474  0.00  0.00    -0.259 OA
ATOM     23  C   UNL d   1      53.963  33.107  54.000  0.00  0.00     0.103 A 
ATOM     24  C   UNL d   1      53.486  33.687  54.344  0.00  0.00     0.023 A 
ATOM     25  C   UNL d   1      54.729  32.985  54.280  0.00  0.00     0.025 A 
ATOM     26  C   UNL d   1      52.720  33.810  54.063  0.00  0.00     0.009 A 
ATOM     27  C   UNL d   1      53.775  34.143  54.967  0.00  0.00     0.002 A 
ATOM     28  C   UNL d   1      54.538  34.019  55.244  0.00  0.00     0.000 A 
ATOM     29  C   UNL d   1      55.015  33.439  54.900  0.00  0.00     0.002 A 
ENDBRANCH   1  19
TORSDOF 4
ENDMDL
MODEL 3
REMARK VINA RESULT:      -8.3      2.385      5.691
REMARK  4 active torsions:
REMARK  status: ('A' for Active; 'I' for Inactive)
REMARK    1  A    between atoms: C_2  and  C_1 
REMARK    2  A    between atoms: C_15  and  C_8 
REMARK    3  A    between atoms: C_9  and  C_15 
REMARK    4  A    between atoms: C_18  and  C_10 
ROOT
ATOM      1  C   UNL d   1      51.790  34.556  53.245  0.00  0.00     0.094 A 
ATOM      2  N   UNL d   1      52.060  33.936  53.718  0.00  0.00    -0.238 NA
ATOM      3  C   UNL d   1      52.780  34.163  54.050  0.00  0.00     0.113 A 
ATOM      4  S   UNL d   1      52.959  34.919  53.787  0.00  0.00    -0.066 SA
ATOM      5  C   UNL d   1      52.349  35.165  53.289  0.00  0.00     0.056 A 
ENDROOT
BRANCH   3   6
ATOM      6  C   UNL d   1      53.241  33.704  54.562  0.00  0.00     0.051 C 
BRANCH   6   7
ATOM      7  C   UNL d   1      53.537  32.978  54.302  0.00  0.00     0.113 A 
ATOM      8  N   UNL d   1      53.120  32.269  54.254  0.00  0.00    -0.238 NA
ATOM      9  C   UNL d   1      53.632  31.689  53.967  0.00  0.00     0.088 A 
ATOM     10  C   UNL d   1      54.367  32.041  53.838  0.00  0.00     0.056 A 
ATOM     11  S   UNL d   1      54.309  32.835  54.045  0.00  0.00    -0.066 SA
BRANCH   9  12
ATOM     12  C   UNL d   1      53.437  30.896  53.834  0.00  0.00     0.018 A 
ATOM     13  C   UNL d   1      53.555  30.341  54.418  0.00  0.00     0.002 A 
ATOM     14  C   UNL d   1      53.360  29.551  54.283  0.00  0.00     0.007 A 
ATOM     15  C   UNL d   1      53.046  29.323  53.554  0.00  0.00     0.035 A 
ATOM     16  C   UNL d   1      52.928  29.878  52.970  0.00  0.00     0.007 A 
ATOM     17 BR   UNL d   1      52.851  28.533  53.419  0.00  0.00    -0.049 Br
ATOM     18  C   UNL d   1      53.122  30.672  53.103  0.00  0.00     0.002 A 
ENDBRANCH   9  12
ENDBRANCH   6   7
ENDBRANCH   3   6
BRANCH   1  19
ATOM     19  C   UNL d   1      51.091  34.567  52.808  0.00  0.00     0.082 A 
ATOM     20  C   UNL d   1      51.077  34.252  52.044  0.00  0.00     0.302 A 
ATOM     21  O   UNL d   1      50.378  34.263  51.608  0.00  0.00    -0.273 OA
ATOM     22  O   UNL d   1      51.762  33.928  51.719  0.00  0.00    -0.259 OA
ATOM     23  C   UNL d   1      49.692  34.588  51.933  0.00  0.00     0.103 A 
ATOM     24  C   UNL d   1      49.707  34.902  52.696  0.00  0.00     0.023 A 
ATOM     25  C   UNL d   1      48.993  34.599  51.496  0.00  0.00     0.025 A 
ATOM     26  C   UNL d   1      50.407  34.891  53.133  0.00  0.00     0.009 A 
ATOM     27  C   UNL d   1      49.022  35.227  53.021  0.00  0.00     0.002 A 
ATOM     28  C   UNL d   1      48.327  35.236  52.585  0.00  0.00     0.000 A 
ATOM     29  C   UNL d   1      48.313  34.922  51.821  0.00  0.00     0.002 A 
ENDBRANCH   1  19
TORSDOF 4
ENDMDL
MODEL 4
REMARK VINA RESULT:      -8.1      2.612      6.198
REMARK  4 active torsions:
REMARK  status: ('A' for Active; 'I' for Inactive)
REMARK    1  A    between atoms: C_2  and  C_1 
REMARK    2  A    between atoms: C_15  and  C_8 
REMARK    3  A    between atoms: C_9  and  C_15 
REMARK    4  A    between atoms: C_18  and  C_10 
ROOT
ATOM      1  C   UNL d   1      49.567  34.807  52.333  0.00  0.00     0.094 A 
ATOM      2  N   UNL d   1      50.332  35.016  52.563  0.00  0.00    -0.238 NA
ATOM      3  C   UNL d   1      50.854  34.458  52.250  0.00  0.00     0.113 A 
ATOM      4  S   UNL d   1      50.418  33.905  51.829  0.00  0.00    -0.066 SA
ATOM      5  C   UNL d   1      49.622  34.118  51.878  0.00  0.00     0.056 A 
ENDROOT
BRANCH   3   6
ATOM      6  C   UNL d   1      51.675  34.460  52.347  0.00  0.00     0.051 C 
BRANCH   6   7
ATOM      7  C   UNL d   1      52.028  33.900  52.842  0.00  0.00     0.113 A 
ATOM      8  N   UNL d   1      52.201  33.117  52.649  0.00  0.00    -0.238 NA
ATOM      9  C   UNL d   1      52.550  32.763  53.307  0.00  0.00     0.088 A 
ATOM     10  C   UNL d   1      52.593  33.328  53.907  0.00  0.00     0.056 A 
ATOM     11  S   UNL d   1      52.271  34.029  53.620  0.00  0.00    -0.066 SA
BRANCH   9  12
ATOM     12  C   UNL d   1      52.810  31.978  53.352  0.00  0.00     0.018 A 
ATOM     13  C   UNL d   1      53.555  31.808  53.635  0.00  0.00     0.002 A 
ATOM     14  C   UNL d   1      53.811  31.025  53.679  0.00  0.00     0.007 A 
ATOM     15  C   UNL d   1      53.312  30.414  53.436  0.00  0.00     0.035 A 
ATOM     16  C   UNL d   1      52.567  30.584  53.152  0.00  0.00     0.007 A 
ATOM     17 BR   UNL d   1      53.568  29.631  53.480  0.00  0.00    -0.049 Br
ATOM     18  C   UNL d   1      52.307  31.369  53.107  0.00  0.00     0.002 A 
ENDBRANCH   9  12
ENDBRANCH   6   7
ENDBRANCH   3   6
BRANCH   1  19
ATOM     19  C   UNL d   1      48.875  35.211  52.523  0.00  0.00     0.082 A 
ATOM     20  C   UNL d   1      48.294  35.329  51.947  0.00  0.00     0.302 A 
ATOM     21  O   UNL d   1      47.602  35.733  52.137  0.00  0.00    -0.273 OA
ATOM     22  O   UNL d   1      48.409  35.042  51.182  0.00  0.00    -0.259 OA
ATOM     23  C   UNL d   1      47.487  36.020  52.902  0.00  0.00     0.103 A 
ATOM     24  C   UNL d   1      48.067  35.903  53.478  0.00  0.00     0.023 A 
ATOM     25  C   UNL d   1      46.794  36.425  53.091  0.00  0.00     0.025 A 
ATOM     26  C   UNL d   1      48.760  35.498  53.287  0.00  0.00     0.009 A 
ATOM     27  C   UNL d   1      47.953  36.189  54.242  0.00  0.00     0.002 A 
ATOM     28  C   UNL d   1      47.262  36.592  54.429  0.00  0.00     0.000 A 
ATOM     29  C   UNL d   1      46.682  36.709  53.853  0.00  0.00     0.002 A 
ENDBRANCH   1  19
TORSDOF 4
ENDMDL
MODEL 5
REMARK VINA RESULT:      -8.1      1.621      2.435
REMARK  4 active torsions:
REMARK  status: ('A' for Active; 'I' for Inactive)
REMARK    1  A    between atoms: C_2  and  C_1 
REMARK    2  A    between atoms: C_15  and  C_8 
REMARK    3  A    between atoms: C_9  and  C_15 
REMARK    4  A    between atoms: C_18  and  C_10 
ROOT
ATOM      1  C   UNL d   1      53.693  31.815  53.936  0.00  0.00     0.094 A 
ATOM      2  N   UNL d   1      53.205  32.396  54.258  0.00  0.00    -0.238 NA
ATOM      3  C   UNL d   1      53.603  33.118  54.212  0.00  0.00     0.113 A 
ATOM      4  S   UNL d   1      54.334  32.987  53.864  0.00  0.00    -0.066 SA
ATOM      5  C   UNL d   1      54.393  32.182  53.692  0.00  0.00     0.056 A 
ENDROOT
BRANCH   3   6
ATOM      6  C   UNL d   1      53.312  33.847  54.473  0.00  0.00     0.051 C 
BRANCH   6   7
ATOM      7  C   UNL d   1      52.791  34.273  53.994  0.00  0.00     0.113 A 
ATOM      8  N   UNL d   1      52.086  33.994  53.670  0.00  0.00    -0.238 NA
ATOM      9  C   UNL d   1      51.747  34.605  53.231  0.00  0.00     0.088 A 
ATOM     10  C   UNL d   1      52.243  35.262  53.285  0.00  0.00     0.056 A 
ATOM     11  S   UNL d   1      52.887  35.057  53.755  0.00  0.00    -0.066 SA
BRANCH   9  12
ATOM     12  C   UNL d   1      51.034  34.561  52.813  0.00  0.00     0.018 A 
ATOM     13  C   UNL d   1      50.332  34.758  53.177  0.00  0.00     0.002 A 
ATOM     14  C   UNL d   1      49.622  34.714  52.758  0.00  0.00     0.007 A 
ATOM     15  C   UNL d   1      49.624  34.469  51.970  0.00  0.00     0.035 A 
ATOM     16  C   UNL d   1      50.326  34.271  51.606  0.00  0.00     0.007 A 
ATOM     17 BR   UNL d   1      48.915  34.424  51.551  0.00  0.00    -0.049 Br
ATOM     18  C   UNL d   1      51.040  34.315  52.024  0.00  0.00     0.002 A 
ENDBRANCH   9  12
ENDBRANCH   6   7
ENDBRANCH   3   6
BRANCH   1  19
ATOM     19  C   UNL d   1      53.516  31.012  53.870  0.00  0.00     0.082 A 
ATOM     20  C   UNL d   1      53.219  30.712  53.160  0.00  0.00     0.302 A 
ATOM     21  O   UNL d   1      53.041  29.910  53.094  0.00  0.00    -0.273 OA
ATOM     22  O   UNL d   1      53.100  31.216  52.518  0.00  0.00    -0.259 OA
ATOM     23  C   UNL d   1      53.160  29.406  53.737  0.00  0.00     0.103 A 
ATOM     24  C   UNL d   1      53.457  29.706  54.447  0.00  0.00     0.023 A 
ATOM     25  C   UNL d   1      52.982  28.604  53.670  0.00  0.00     0.025 A 
ATOM     26  C   UNL d   1      53.635  30.509  54.512  0.00  0.00     0.009 A 
ATOM     27  C   UNL d   1      53.576  29.203  55.089  0.00  0.00     0.002 A 
ATOM     28  C   UNL d   1      53.398  28.404  55.021  0.00  0.00     0.000 A 
ATOM     29  C   UNL d   1      53.101  28.104  54.311  0.00  0.00     0.002 A 
ENDBRANCH   1  19
TORSDOF 4
ENDMDL
MODEL 6
REMARK VINA RESULT:      -7.8      2.719      6.095
REMARK  4 active torsions:
REMARK  status: ('A' for Active; 'I' for Inactive)
REMARK    1  A    between atoms: C_2  and  C_1 
REMARK    2  A    between atoms: C_15  and  C_8 
REMARK    3  A    between atoms: C_9  and  C_15 
REMARK    4  A    between atoms: C_18  and  C_10 
ROOT
ATOM      1  C   UNL d   1      49.895  34.367  52.451  0.00  0.00     0.094 A 
ATOM      2  N   UNL d   1      49.983  33.706  52.937  0.00  0.00    -0.238 NA
ATOM      3  C   UNL d   1      50.741  33.400  52.815  0.00  0.00     0.113 A 
ATOM      4  S   UNL d   1      51.121  33.867  52.259  0.00  0.00    -0.066 SA
ATOM      5  C   UNL d   1      50.601  34.466  52.031  0.00  0.00     0.056 A 
ENDROOT
BRANCH   3   6
ATOM      6  C   UNL d   1      51.058  32.736  53.193  0.00  0.00     0.051 C 
BRANCH   6   7
ATOM      7  C   UNL d   1      51.877  32.669  53.280  0.00  0.00     0.113 A 
ATOM      8  N   UNL d   1      52.349  33.093  53.805  0.00  0.00    -0.238 NA
ATOM      9  C   UNL d   1      53.130  32.849  53.703  0.00  0.00     0.088 A 
ATOM     10  C   UNL d   1      53.140  32.273  53.113  0.00  0.00     0.056 A 
ATOM     11  S   UNL d   1      52.368  32.161  52.852  0.00  0.00    -0.066 SA
BRANCH   9  12
ATOM     12  C   UNL d   1      53.785  33.135  54.121  0.00  0.00     0.018 A 
ATOM     13  C   UNL d   1      54.540  32.954  53.875  0.00  0.00     0.002 A 
ATOM     14  C   UNL d   1      55.191  33.241  54.294  0.00  0.00     0.007 A 
ATOM     15  C   UNL d   1      55.076  33.711  54.962  0.00  0.00     0.035 A 
ATOM     16  C   UNL d   1      54.320  33.892  55.209  0.00  0.00     0.007 A 
ATOM     17 BR   UNL d   1      55.726  33.997  55.381  0.00  0.00    -0.049 Br
ATOM     18  C   UNL d   1      53.665  33.606  54.790  0.00  0.00     0.002 A 
ENDBRANCH   9  12
ENDBRANCH   6   7
ENDBRANCH   3   6
BRANCH   1  19
ATOM     19  C   UNL d   1      49.224  34.843  52.395  0.00  0.00     0.082 A 
ATOM     20  C   UNL d   1      48.802  34.879  51.686  0.00  0.00     0.302 A 
ATOM     21  O   UNL d   1      48.131  35.355  51.630  0.00  0.00    -0.273 OA
ATOM     22  O   UNL d   1      49.051  34.439  51.035  0.00  0.00    -0.259 OA
ATOM     23  C   UNL d   1      47.881  35.795  52.281  0.00  0.00     0.103 A 
ATOM     24  C   UNL d   1      48.303  35.759  52.990  0.00  0.00     0.023 A 
ATOM     25  C   UNL d   1      47.210  36.271  52.225  0.00  0.00     0.025 A 
ATOM     26  C   UNL d   1      48.974  35.283  53.046  0.00  0.00     0.009 A 
ATOM     27  C   UNL d   1      48.053  36.199  53.641  0.00  0.00     0.002 A 
ATOM     28  C   UNL d   1      47.385  36.673  53.583  0.00  0.00     0.000 A 
ATOM     29  C   UNL d   1      46.963  36.709  52.874  0.00  0.00     0.002 A 
ENDBRANCH   1  19
TORSDOF 4
ENDMDL
MODEL 7
REMARK VINA RESULT:      -6.6      9.784     11.297
REMARK  4 active torsions:
REMARK  status: ('A' for Active; 'I' for Inactive)
REMARK    1  A    between atoms: C_2  and  C_1 
REMARK    2  A    between atoms: C_15  and  C_8 
REMARK    3  A    between atoms: C_9  and  C_15 
REMARK    4  A    between atoms: C_18  and  C_10 
ROOT
ATOM      1  C   UNL d   1      44.982  27.733  58.011  0.00  0.00     0.094 A 
ATOM      2  N   UNL d   1      44.379  27.171  58.038  0.00  0.00    -0.238 NA
ATOM      3  C   UNL d   1      44.722  26.436  58.194  0.00  0.00     0.113 A 
ATOM      4  S   UNL d   1      45.532  26.539  58.264  0.00  0.00    -0.066 SA
ATOM      5  C   UNL d   1      45.697  27.340  58.151  0.00  0.00     0.056 A 
ENDROOT
BRANCH   3   6
ATOM      6  C   UNL d   1      44.314  25.720  58.267  0.00  0.00     0.051 C 
BRANCH   6   7
ATOM      7  C   UNL d   1      44.433  25.124  57.707  0.00  0.00     0.113 A 
ATOM      8  N   UNL d   1      44.318  25.188  56.893  0.00  0.00    -0.238 NA
ATOM      9  C   UNL d   1      44.503  24.461  56.551  0.00  0.00     0.088 A 
ATOM     10  C   UNL d   1      44.733  23.947  57.154  0.00  0.00     0.056 A 
ATOM     11  S   UNL d   1      44.690  24.356  57.867  0.00  0.00    -0.066 SA
BRANCH   9  12
ATOM     12  C   UNL d   1      44.463  24.283  55.743  0.00  0.00     0.018 A 
ATOM     13  C   UNL d   1      44.530  23.512  55.488  0.00  0.00     0.002 A 
ATOM     14  C   UNL d   1      44.490  23.338  54.683  0.00  0.00     0.007 A 
ATOM     15  C   UNL d   1      44.381  23.946  54.135  0.00  0.00     0.035 A 
ATOM     16  C   UNL d   1      44.314  24.717  54.390  0.00  0.00     0.007 A 
ATOM     17 BR   UNL d   1      44.341  23.772  53.330  0.00  0.00    -0.049 Br
ATOM     18  C   UNL d   1      44.354  24.895  55.197  0.00  0.00     0.002 A 
ENDBRANCH   9  12
ENDBRANCH   6   7
ENDBRANCH   3   6
BRANCH   1  19
ATOM     19  C   UNL d   1      44.889  28.540  57.870  0.00  0.00     0.082 A 
ATOM     20  C   UNL d   1      44.924  29.075  58.498  0.00  0.00     0.302 A 
ATOM     21  O   UNL d   1      44.831  29.882  58.358  0.00  0.00    -0.273 OA
ATOM     22  O   UNL d   1      45.051  28.802  59.266  0.00  0.00    -0.259 OA
ATOM     23  C   UNL d   1      44.703  30.155  57.590  0.00  0.00     0.103 A 
ATOM     24  C   UNL d   1      44.668  29.620  56.962  0.00  0.00     0.023 A 
ATOM     25  C   UNL d   1      44.610  30.962  57.449  0.00  0.00     0.025 A 
ATOM     26  C   UNL d   1      44.761  28.812  57.103  0.00  0.00     0.009 A 
ATOM     27  C   UNL d   1      44.541  29.893  56.194  0.00  0.00     0.002 A 
ATOM     28  C   UNL d   1      44.449  30.697  56.056  0.00  0.00     0.000 A 
ATOM     29  C   UNL d   1      44.483  31.232  56.684  0.00  0.00     0.002 A 
ENDBRANCH   1  19
TORSDOF 4
ENDMDL
MODEL 8
REMARK VINA RESULT:      -6.1     10.460     11.721
REMARK  4 active torsions:
REMARK  status: ('A' for Active; 'I' for Inactive)
REMARK    1  A    between atoms: C_2  and  C_1 
REMARK    2  A    between atoms: C_15  and  C_8 
REMARK    3  A    between atoms: C_9  and  C_15 
REMARK    4  A    between atoms: C_18  and  C_10 
ROOT
ATOM      1  C   UNL d   1      44.881  29.403  59.383  0.00  0.00     0.094 A 
ATOM      2  N   UNL d   1      44.315  28.997  58.941  0.00  0.00    -0.238 NA
ATOM      3  C   UNL d   1      44.684  28.700  58.265  0.00  0.00     0.113 A 
ATOM      4  S   UNL d   1      45.474  28.918  58.285  0.00  0.00    -0.066 SA
ATOM      5  C   UNL d   1      45.600  29.353  58.976  0.00  0.00     0.056 A 
ENDROOT
BRANCH   3   6
ATOM      6  C   UNL d   1      44.316  28.258  57.670  0.00  0.00     0.051 C 
BRANCH   6   7
ATOM      7  C   UNL d   1      44.567  27.485  57.523  0.00  0.00     0.113 A 
ATOM      8  N   UNL d   1      44.314  26.806  57.916  0.00  0.00    -0.238 NA
ATOM      9  C   UNL d   1      44.708  26.159  57.590  0.00  0.00     0.088 A 
ATOM     10  C   UNL d   1      45.204  26.439  56.993  0.00  0.00     0.056 A 
ATOM     11  S   UNL d   1      45.117  27.256  56.952  0.00  0.00    -0.066 SA
BRANCH   9  12
ATOM     12  C   UNL d   1      44.617  25.370  57.823  0.00  0.00     0.018 A 
ATOM     13  C   UNL d   1      44.435  25.189  58.596  0.00  0.00     0.002 A 
ATOM     14  C   UNL d   1      44.345  24.402  58.826  0.00  0.00     0.007 A 
ATOM     15  C   UNL d   1      44.439  23.798  58.271  0.00  0.00     0.035 A 
ATOM     16  C   UNL d   1      44.621  23.979  57.498  0.00  0.00     0.007 A 
ATOM     17 BR   UNL d   1      44.349  23.010  58.501  0.00  0.00    -0.049 Br
ATOM     18  C   UNL d   1      44.712  24.768  57.265  0.00  0.00     0.002 A 
ENDBRANCH   9  12
ENDBRANCH   6   7
ENDBRANCH   3   6
BRANCH   1  19
ATOM     19  C   UNL d   1      44.754  29.787  60.101  0.00  0.00     0.082 A 
ATOM     20  C   UNL d   1      44.560  30.590  60.111  0.00  0.00     0.302 A 
ATOM     21  O   UNL d   1      44.433  30.975  60.829  0.00  0.00    -0.273 OA
ATOM     22  O   UNL d   1      44.493  31.006  59.402  0.00  0.00    -0.259 OA
ATOM     23  C   UNL d   1      44.500  30.558  61.538  0.00  0.00     0.103 A 
ATOM     24  C   UNL d   1      44.694  29.756  61.528  0.00  0.00     0.023 A 
ATOM     25  C   UNL d   1      44.373  30.943  62.256  0.00  0.00     0.025 A 
ATOM     26  C   UNL d   1      44.821  29.371  60.810  0.00  0.00     0.009 A 
ATOM     27  C   UNL d   1      44.761  29.340  62.237  0.00  0.00     0.002 A 
ATOM     28  C   UNL d   1      44.634  29.724  62.951  0.00  0.00     0.000 A 
ATOM     29  C   UNL d   1      44.440  30.527  62.960  0.00  0.00     0.002 A 
ENDBRANCH   1  19
TORSDOF 4
ENDMDL
