MODEL 1
REMARK VINA RESULT:      10.2      0.000      0.000
REMARK  0 active torsions:
REMARK  status: ('A' for Active; 'I' for Inactive)
ROOT
ATOM      1  N   UNL d   1      46.615 -18.492  42.886  0.00  0.00    -0.242 NA
ATOM      2  N   UNL d   1      46.605 -20.110  42.644  0.00  0.00    -0.242 NA
ATOM      3  C   UNL d   1      46.611 -19.594  41.992  0.00  0.00     0.101 A 
ATOM      4  C   UNL d   1      46.616 -18.793  42.112  0.00  0.00     0.101 A 
ATOM      5  C   UNL d   1      46.612 -19.900  41.237  0.00  0.00     0.043 A 
ATOM      6  C   UNL d   1      46.623 -18.273  41.481  0.00  0.00     0.043 A 
ATOM      7  C   UNL d   1      46.624 -18.565  40.708  0.00  0.00     0.124 A 
ATOM      8  C   UNL d   1      46.619 -19.384  40.586  0.00  0.00     0.124 A 
ATOM      9  C   UNL d   1      46.603 -19.807  43.412  0.00  0.00     0.099 A 
ATOM     10  C   UNL d   1      46.608 -19.006  43.532  0.00  0.00     0.099 A 
ATOM     11  N   UNL d   1      46.630 -18.063  40.074  0.00  0.00    -0.146 N 
ATOM     12  N   UNL d   1      46.620 -19.678  39.847  0.00  0.00    -0.146 N 
ATOM     13  C   UNL d   1      46.607 -18.704  44.299  0.00  0.00     0.021 A 
ATOM     14  C   UNL d   1      46.597 -20.322  44.057  0.00  0.00     0.021 A 
ATOM     15  C   UNL d   1      46.595 -20.019  44.831  0.00  0.00     0.002 A 
ATOM     16  C   UNL d   1      46.600 -19.218  44.951  0.00  0.00     0.002 A 
ENDROOT
TORSDOF 0
ENDMDL
