MODEL 1
REMARK VINA RESULT:      -7.2      0.000      0.000
REMARK  3 active torsions:
REMARK  status: ('A' for Active; 'I' for Inactive)
REMARK    1  A    between atoms: C_13  and  C_2 
REMARK    2  A    between atoms: C_10  and  C_4 
REMARK    3  A    between atoms: N_7  and  C_10 
ROOT
ATOM      1  N   UNL d   1     -48.903  11.407  22.700  0.00  0.00    -0.121 NA
ATOM      2  C   UNL d   1     -49.062  12.213  22.684  0.00  0.00     0.204 A 
ATOM      3  O   UNL d   1     -48.436  12.604  23.051  0.00  0.00    -0.267 OA
ATOM      4  C   UNL d   1     -47.885  12.036  23.297  0.00  0.00     0.222 A 
ATOM      5  N   UNL d   1     -48.177  11.293  23.078  0.00  0.00    -0.119 NA
ENDROOT
BRANCH   4   6
ATOM      6  C   UNL d   1     -47.174  12.180  23.689  0.00  0.00     0.127 C 
BRANCH   6   7
ATOM      7  N   UNL d   1     -46.495  12.357  23.258  0.00  0.00    -0.300 N 
ATOM      8  C   UNL d   1     -46.382  13.123  22.978  0.00  0.00     0.081 A 
ATOM      9  C   UNL d   1     -45.709  13.305  22.549  0.00  0.00     0.053 A 
ATOM     10  C   UNL d   1     -45.144  12.723  22.399  0.00  0.00     0.239 A 
ATOM     11  C   UNL d   1     -45.260  11.951  22.683  0.00  0.00     0.053 A 
ATOM     12  O   UNL d   1     -44.607  12.103  22.275  0.00  0.00    -0.298 OA
ATOM     13  O   UNL d   1     -44.986  13.473  22.097  0.00  0.00    -0.298 OA
ATOM     14  C   UNL d   1     -45.940  11.774  23.114  0.00  0.00     0.081 A 
ATOM     15  C   UNL d   1     -43.992  12.435  21.837  0.00  0.00     0.146 A 
ATOM     16  C   UNL d   1     -44.261  13.393  21.715  0.00  0.00     0.146 A 
ENDBRANCH   6   7
ENDBRANCH   4   6
BRANCH   2  17
ATOM     17  C   UNL d   1     -49.732  12.569  22.357  0.00  0.00     0.043 A 
ATOM     18  C   UNL d   1     -49.783  12.675  21.537  0.00  0.00     0.004 A 
ATOM     19  C   UNL d   1     -50.442  13.026  21.207  0.00  0.00     0.000 A 
ATOM     20  C   UNL d   1     -51.064  13.278  21.693  0.00  0.00     0.000 A 
ATOM     21  C   UNL d   1     -51.014  13.172  22.513  0.00  0.00     0.000 A 
ATOM     22  C   UNL d   1     -50.350  12.819  22.839  0.00  0.00     0.004 A 
ENDBRANCH   2  17
TORSDOF 3
ENDMDL
MODEL 2
REMARK VINA RESULT:      -7.1      1.916      4.655
REMARK  3 active torsions:
REMARK  status: ('A' for Active; 'I' for Inactive)
REMARK    1  A    between atoms: C_13  and  C_2 
REMARK    2  A    between atoms: C_10  and  C_4 
REMARK    3  A    between atoms: N_7  and  C_10 
ROOT
ATOM      1  N   UNL d   1     -46.184  13.347  23.689  0.00  0.00    -0.121 NA
ATOM      2  C   UNL d   1     -46.446  12.698  23.257  0.00  0.00     0.204 A 
ATOM      3  O   UNL d   1     -46.933  12.973  22.654  0.00  0.00    -0.267 OA
ATOM      4  C   UNL d   1     -46.975  13.799  22.710  0.00  0.00     0.222 A 
ATOM      5  N   UNL d   1     -46.509  14.029  23.354  0.00  0.00    -0.119 NA
ENDROOT
BRANCH   4   6
ATOM      6  C   UNL d   1     -47.402  14.304  22.218  0.00  0.00     0.127 C 
BRANCH   6   7
ATOM      7  N   UNL d   1     -48.180  14.501  22.404  0.00  0.00    -0.300 N 
ATOM      8  C   UNL d   1     -48.797  14.071  22.069  0.00  0.00     0.081 A 
ATOM      9  C   UNL d   1     -49.572  14.262  22.250  0.00  0.00     0.053 A 
ATOM     10  C   UNL d   1     -49.735  14.885  22.767  0.00  0.00     0.239 A 
ATOM     11  C   UNL d   1     -49.111  15.317  23.104  0.00  0.00     0.053 A 
ATOM     12  O   UNL d   1     -49.845  15.518  23.292  0.00  0.00    -0.298 OA
ATOM     13  O   UNL d   1     -50.386  14.485  22.458  0.00  0.00    -0.298 OA
ATOM     14  C   UNL d   1     -48.332  15.120  22.917  0.00  0.00     0.081 A 
ATOM     15  C   UNL d   1     -50.663  15.589  23.375  0.00  0.00     0.146 A 
ATOM     16  C   UNL d   1     -51.037  14.865  22.790  0.00  0.00     0.146 A 
ENDBRANCH   6   7
ENDBRANCH   4   6
BRANCH   2  17
ATOM     17  C   UNL d   1     -46.253  11.908  23.404  0.00  0.00     0.043 A 
ATOM     18  C   UNL d   1     -45.459  11.684  23.470  0.00  0.00     0.004 A 
ATOM     19  C   UNL d   1     -45.260  10.905  23.616  0.00  0.00     0.000 A 
ATOM     20  C   UNL d   1     -45.857  10.335  23.698  0.00  0.00     0.000 A 
ATOM     21  C   UNL d   1     -46.651  10.559  23.632  0.00  0.00     0.000 A 
ATOM     22  C   UNL d   1     -46.845  11.341  23.486  0.00  0.00     0.004 A 
ENDBRANCH   2  17
TORSDOF 3
ENDMDL
MODEL 3
REMARK VINA RESULT:      -7.0      1.393      4.736
REMARK  3 active torsions:
REMARK  status: ('A' for Active; 'I' for Inactive)
REMARK    1  A    between atoms: C_13  and  C_2 
REMARK    2  A    between atoms: C_10  and  C_4 
REMARK    3  A    between atoms: N_7  and  C_10 
ROOT
ATOM      1  N   UNL d   1     -44.981  12.532  22.374  0.00  0.00    -0.121 NA
ATOM      2  C   UNL d   1     -45.189  11.991  22.956  0.00  0.00     0.204 A 
ATOM      3  O   UNL d   1     -45.883  12.253  23.312  0.00  0.00    -0.267 OA
ATOM      4  C   UNL d   1     -46.109  12.962  22.948  0.00  0.00     0.222 A 
ATOM      5  N   UNL d   1     -45.546  13.134  22.366  0.00  0.00    -0.119 NA
ENDROOT
BRANCH   4   6
ATOM      6  C   UNL d   1     -46.771  13.418  23.129  0.00  0.00     0.127 C 
BRANCH   6   7
ATOM      7  N   UNL d   1     -47.517  13.186  22.865  0.00  0.00    -0.300 N 
ATOM      8  C   UNL d   1     -48.009  12.758  23.367  0.00  0.00     0.081 A 
ATOM      9  C   UNL d   1     -48.750  12.525  23.110  0.00  0.00     0.053 A 
ATOM     10  C   UNL d   1     -49.004  12.718  22.349  0.00  0.00     0.239 A 
ATOM     11  C   UNL d   1     -48.505  13.150  21.844  0.00  0.00     0.053 A 
ATOM     12  O   UNL d   1     -49.211  12.938  21.576  0.00  0.00    -0.298 OA
ATOM     13  O   UNL d   1     -49.532  12.290  22.813  0.00  0.00    -0.298 OA
ATOM     14  C   UNL d   1     -47.760  13.382  22.109  0.00  0.00     0.081 A 
ATOM     15  C   UNL d   1     -49.971  12.637  21.463  0.00  0.00     0.146 A 
ATOM     16  C   UNL d   1     -50.192  12.185  22.331  0.00  0.00     0.146 A 
ENDBRANCH   6   7
ENDBRANCH   4   6
BRANCH   2  17
ATOM     17  C   UNL d   1     -44.772  11.303  23.150  0.00  0.00     0.043 A 
ATOM     18  C   UNL d   1     -43.963  11.252  22.985  0.00  0.00     0.004 A 
ATOM     19  C   UNL d   1     -43.546  10.576  23.174  0.00  0.00     0.000 A 
ATOM     20  C   UNL d   1     -43.933   9.937  23.533  0.00  0.00     0.000 A 
ATOM     21  C   UNL d   1     -44.743   9.988  23.698  0.00  0.00     0.000 A 
ATOM     22  C   UNL d   1     -45.157  10.668  23.507  0.00  0.00     0.004 A 
ENDBRANCH   2  17
TORSDOF 3
ENDMDL
MODEL 4
REMARK VINA RESULT:      -6.7      8.138      9.588
REMARK  3 active torsions:
REMARK  status: ('A' for Active; 'I' for Inactive)
REMARK    1  A    between atoms: C_13  and  C_2 
REMARK    2  A    between atoms: C_10  and  C_4 
REMARK    3  A    between atoms: N_7  and  C_10 
ROOT
ATOM      1  N   UNL d   1     -40.481  13.686  17.843  0.00  0.00    -0.121 NA
ATOM      2  C   UNL d   1     -39.778  14.100  17.742  0.00  0.00     0.204 A 
ATOM      3  O   UNL d   1     -39.769  14.723  18.279  0.00  0.00    -0.267 OA
ATOM      4  C   UNL d   1     -40.472  14.698  18.717  0.00  0.00     0.222 A 
ATOM      5  N   UNL d   1     -40.913  14.052  18.445  0.00  0.00    -0.119 NA
ENDROOT
BRANCH   4   6
ATOM      6  C   UNL d   1     -40.696  15.218  19.317  0.00  0.00     0.127 C 
BRANCH   6   7
ATOM      7  N   UNL d   1     -40.267  15.247  20.019  0.00  0.00    -0.300 N 
ATOM      8  C   UNL d   1     -40.388  14.668  20.592  0.00  0.00     0.081 A 
ATOM      9  C   UNL d   1     -39.965  14.692  21.292  0.00  0.00     0.053 A 
ATOM     10  C   UNL d   1     -39.417  15.295  21.424  0.00  0.00     0.239 A 
ATOM     11  C   UNL d   1     -39.297  15.878  20.845  0.00  0.00     0.053 A 
ATOM     12  O   UNL d   1     -38.879  15.922  21.508  0.00  0.00    -0.298 OA
ATOM     13  O   UNL d   1     -39.502  14.739  22.026  0.00  0.00    -0.298 OA
ATOM     14  C   UNL d   1     -39.726  15.849  20.142  0.00  0.00     0.081 A 
ATOM     15  C   UNL d   1     -38.536  15.812  22.250  0.00  0.00     0.146 A 
ATOM     16  C   UNL d   1     -38.974  14.985  22.609  0.00  0.00     0.146 A 
ENDBRANCH   6   7
ENDBRANCH   4   6
BRANCH   2  17
ATOM     17  C   UNL d   1     -39.184  13.920  17.196  0.00  0.00     0.043 A 
ATOM     18  C   UNL d   1     -39.080  14.398  16.529  0.00  0.00     0.004 A 
ATOM     19  C   UNL d   1     -38.495  14.226  15.986  0.00  0.00     0.000 A 
ATOM     20  C   UNL d   1     -38.002  13.570  16.102  0.00  0.00     0.000 A 
ATOM     21  C   UNL d   1     -38.106  13.091  16.769  0.00  0.00     0.000 A 
ATOM     22  C   UNL d   1     -38.694  13.268  17.311  0.00  0.00     0.004 A 
ENDBRANCH   2  17
TORSDOF 3
ENDMDL
MODEL 5
REMARK VINA RESULT:      -6.5      1.194      1.704
REMARK  3 active torsions:
REMARK  status: ('A' for Active; 'I' for Inactive)
REMARK    1  A    between atoms: C_13  and  C_2 
REMARK    2  A    between atoms: C_10  and  C_4 
REMARK    3  A    between atoms: N_7  and  C_10 
ROOT
ATOM      1  N   UNL d   1     -48.106  12.987  21.292  0.00  0.00    -0.121 NA
ATOM      2  C   UNL d   1     -48.592  13.188  21.923  0.00  0.00     0.204 A 
ATOM      3  O   UNL d   1     -48.113  13.338  22.576  0.00  0.00    -0.267 OA
ATOM      4  C   UNL d   1     -47.324  13.230  22.349  0.00  0.00     0.222 A 
ATOM      5  N   UNL d   1     -47.321  13.012  21.550  0.00  0.00    -0.119 NA
ENDROOT
BRANCH   4   6
ATOM      6  C   UNL d   1     -46.659  13.321  22.827  0.00  0.00     0.127 C 
BRANCH   6   7
ATOM      7  N   UNL d   1     -46.153  12.683  22.957  0.00  0.00    -0.300 N 
ATOM      8  C   UNL d   1     -46.401  12.063  23.439  0.00  0.00     0.081 A 
ATOM      9  C   UNL d   1     -45.904  11.427  23.572  0.00  0.00     0.053 A 
ATOM     10  C   UNL d   1     -45.156  11.406  23.224  0.00  0.00     0.239 A 
ATOM     11  C   UNL d   1     -44.908  12.033  22.738  0.00  0.00     0.053 A 
ATOM     12  O   UNL d   1     -44.415  11.434  22.852  0.00  0.00    -0.298 OA
ATOM     13  O   UNL d   1     -45.357  10.763  23.698  0.00  0.00    -0.298 OA
ATOM     14  C   UNL d   1     -45.414  12.671  22.608  0.00  0.00     0.081 A 
ATOM     15  C   UNL d   1     -44.035  10.736  23.077  0.00  0.00     0.146 A 
ATOM     16  C   UNL d   1     -44.698  10.271  23.668  0.00  0.00     0.146 A 
ENDBRANCH   6   7
ENDBRANCH   4   6
BRANCH   2  17
ATOM     17  C   UNL d   1     -49.417  13.231  21.904  0.00  0.00     0.043 A 
ATOM     18  C   UNL d   1     -49.867  12.544  22.001  0.00  0.00     0.004 A 
ATOM     19  C   UNL d   1     -50.683  12.579  21.984  0.00  0.00     0.000 A 
ATOM     20  C   UNL d   1     -51.063  13.307  21.869  0.00  0.00     0.000 A 
ATOM     21  C   UNL d   1     -50.613  13.994  21.772  0.00  0.00     0.000 A 
ATOM     22  C   UNL d   1     -49.795  13.954  21.790  0.00  0.00     0.004 A 
ENDBRANCH   2  17
TORSDOF 3
ENDMDL
MODEL 6
REMARK VINA RESULT:      -5.9      8.220      9.525
REMARK  3 active torsions:
REMARK  status: ('A' for Active; 'I' for Inactive)
REMARK    1  A    between atoms: C_13  and  C_2 
REMARK    2  A    between atoms: C_10  and  C_4 
REMARK    3  A    between atoms: N_7  and  C_10 
ROOT
ATOM      1  N   UNL d   1     -40.582  15.408  20.478  0.00  0.00    -0.121 NA
ATOM      2  C   UNL d   1     -40.063  14.799  20.662  0.00  0.00     0.204 A 
ATOM      3  O   UNL d   1     -40.031  14.288  20.017  0.00  0.00    -0.267 OA
ATOM      4  C   UNL d   1     -40.534  14.582  19.428  0.00  0.00     0.222 A 
ATOM      5  N   UNL d   1     -40.876  15.279  19.717  0.00  0.00    -0.119 NA
ENDROOT
BRANCH   4   6
ATOM      6  C   UNL d   1     -40.673  14.246  18.688  0.00  0.00     0.127 C 
BRANCH   6   7
ATOM      7  N   UNL d   1     -40.124  14.343  18.082  0.00  0.00    -0.300 N 
ATOM      8  C   UNL d   1     -39.595  13.734  17.915  0.00  0.00     0.081 A 
ATOM      9  C   UNL d   1     -39.047  13.824  17.314  0.00  0.00     0.053 A 
ATOM     10  C   UNL d   1     -39.024  14.523  16.876  0.00  0.00     0.239 A 
ATOM     11  C   UNL d   1     -39.559  15.135  17.046  0.00  0.00     0.053 A 
ATOM     12  O   UNL d   1     -39.042  15.244  16.466  0.00  0.00    -0.298 OA
ATOM     13  O   UNL d   1     -38.474  13.944  16.671  0.00  0.00    -0.298 OA
ATOM     14  C   UNL d   1     -40.108  15.039  17.653  0.00  0.00     0.081 A 
ATOM     15  C   UNL d   1     -38.443  15.186  15.901  0.00  0.00     0.146 A 
ATOM     16  C   UNL d   1     -38.049  14.276  16.049  0.00  0.00     0.146 A 
ENDBRANCH   6   7
ENDBRANCH   4   6
BRANCH   2  17
ATOM     17  C   UNL d   1     -39.646  14.714  21.370  0.00  0.00     0.043 A 
ATOM     18  C   UNL d   1     -39.511  13.959  21.681  0.00  0.00     0.004 A 
ATOM     19  C   UNL d   1     -39.100  13.868  22.380  0.00  0.00     0.000 A 
ATOM     20  C   UNL d   1     -38.815  14.535  22.783  0.00  0.00     0.000 A 
ATOM     21  C   UNL d   1     -38.949  15.290  22.472  0.00  0.00     0.000 A 
ATOM     22  C   UNL d   1     -39.362  15.376  21.770  0.00  0.00     0.004 A 
ENDBRANCH   2  17
TORSDOF 3
ENDMDL
MODEL 7
REMARK VINA RESULT:      -5.3      8.853      9.402
REMARK  3 active torsions:
REMARK  status: ('A' for Active; 'I' for Inactive)
REMARK    1  A    between atoms: C_13  and  C_2 
REMARK    2  A    between atoms: C_10  and  C_4 
REMARK    3  A    between atoms: N_7  and  C_10 
ROOT
ATOM      1  N   UNL d   1     -39.606  13.644  18.094  0.00  0.00    -0.121 NA
ATOM      2  C   UNL d   1     -39.629  14.464  18.129  0.00  0.00     0.204 A 
ATOM      3  O   UNL d   1     -39.031  14.715  18.636  0.00  0.00    -0.267 OA
ATOM      4  C   UNL d   1     -38.633  14.045  18.918  0.00  0.00     0.222 A 
ATOM      5  N   UNL d   1     -38.992  13.381  18.580  0.00  0.00    -0.119 NA
ENDROOT
BRANCH   4   6
ATOM      6  C   UNL d   1     -37.995  14.037  19.441  0.00  0.00     0.127 C 
BRANCH   6   7
ATOM      7  N   UNL d   1     -38.128  14.007  20.253  0.00  0.00    -0.300 N 
ATOM      8  C   UNL d   1     -38.171  13.276  20.629  0.00  0.00     0.081 A 
ATOM      9  C   UNL d   1     -38.303  13.239  21.436  0.00  0.00     0.053 A 
ATOM     10  C   UNL d   1     -38.393  13.933  21.872  0.00  0.00     0.239 A 
ATOM     11  C   UNL d   1     -38.350  14.670  21.491  0.00  0.00     0.053 A 
ATOM     12  O   UNL d   1     -38.477  14.659  22.265  0.00  0.00    -0.298 OA
ATOM     13  O   UNL d   1     -38.444  13.227  22.294  0.00  0.00    -0.298 OA
ATOM     14  C   UNL d   1     -38.217  14.700  20.678  0.00  0.00     0.081 A 
ATOM     15  C   UNL d   1     -38.602  14.463  23.057  0.00  0.00     0.146 A 
ATOM     16  C   UNL d   1     -38.578  13.460  23.072  0.00  0.00     0.146 A 
ENDBRANCH   6   7
ENDBRANCH   4   6
BRANCH   2  17
ATOM     17  C   UNL d   1     -40.160  14.952  17.725  0.00  0.00     0.043 A 
ATOM     18  C   UNL d   1     -40.118  15.012  16.900  0.00  0.00     0.004 A 
ATOM     19  C   UNL d   1     -40.640  15.492  16.495  0.00  0.00     0.000 A 
ATOM     20  C   UNL d   1     -41.215  15.922  16.910  0.00  0.00     0.000 A 
ATOM     21  C   UNL d   1     -41.257  15.861  17.734  0.00  0.00     0.000 A 
ATOM     22  C   UNL d   1     -40.732  15.379  18.136  0.00  0.00     0.004 A 
ENDBRANCH   2  17
TORSDOF 3
ENDMDL
