MODEL 1
REMARK VINA RESULT:       1.8      0.000      0.000
REMARK  5 active torsions:
REMARK  status: ('A' for Active; 'I' for Inactive)
REMARK    1  A    between atoms: C_8  and  C_1 
REMARK    2  A    between atoms: C_10  and  C_2 
REMARK    3  A    between atoms: N_6  and  C_9 
REMARK    4  A    between atoms: O_19  and  C_8 
REMARK    5  A    between atoms: C_21  and  O_19 
ROOT
ATOM      1  C   UNL d   1     -41.577-121.867 -51.312  0.00  0.00     0.099 A 
ATOM      2  C   UNL d   1     -41.552-121.569 -52.082  0.00  0.00     0.093 A 
ATOM      3  C   UNL d   1     -41.453-121.367 -50.661  0.00  0.00     0.093 A 
ATOM      4  N   UNL d   1     -41.399-120.757 -52.196  0.00  0.00    -0.191 NA
ATOM      5  C   UNL d   1     -41.275-120.258 -51.545  0.00  0.00     0.369 A 
ATOM      6  N   UNL d   1     -41.303-120.569 -50.776  0.00  0.00    -0.191 NA
ATOM      7  O   UNL d   1     -41.124-119.456 -51.663  0.00  0.00    -0.242 OA
ATOM      8  C   UNL d   1     -41.482-121.677 -49.898  0.00  0.00     0.021 C 
ENDROOT
BRANCH   2   9
ATOM      9  C   UNL d   1     -41.674-122.061 -52.732  0.00  0.00     0.018 A 
ATOM     10  C   UNL d   1     -42.351-121.963 -53.186  0.00  0.00     0.003 A 
ATOM     11  C   UNL d   1     -42.482-122.447 -53.835  0.00  0.00     0.024 A 
ATOM     12  C   UNL d   1     -41.932-123.039 -54.036  0.00  0.00     0.127 A 
ATOM     13  C   UNL d   1     -41.249-123.135 -53.575  0.00  0.00     0.024 A 
ATOM     14  C   UNL d   1     -41.123-122.645 -52.923  0.00  0.00     0.003 A 
BRANCH  12  15
ATOM     15  N   UNL d   1     -42.059-123.529 -54.687  0.00  0.00    -0.114 N 
ATOM     16  O   UNL d   1     -42.828-123.741 -54.901  0.00  0.00    -0.532 OA
ATOM     17  O   UNL d   1     -41.417-123.807 -55.126  0.00  0.00    -0.532 OA
ENDBRANCH  12  15
ENDBRANCH   2   9
BRANCH   1  18
ATOM     18  C   UNL d   1     -41.728-122.667 -51.190  0.00  0.00     0.303 C 
ATOM     19  O   UNL d   1     -41.124-123.220 -51.289  0.00  0.00    -0.259 OA
BRANCH  18  20
ATOM     20  O   UNL d   1     -42.482-122.920 -50.968  0.00  0.00    -0.271 OA
BRANCH  20  21
ATOM     21  C   UNL d   1     -42.569-123.590 -50.493  0.00  0.00     0.126 C 
ATOM     22  C   UNL d   1     -43.314-123.808 -50.235  0.00  0.00     0.029 C 
ENDBRANCH  20  21
ENDBRANCH  18  20
ENDBRANCH   1  18
TORSDOF 5
ENDMDL
MODEL 2
REMARK VINA RESULT:       3.2      2.101      3.300
REMARK  5 active torsions:
REMARK  status: ('A' for Active; 'I' for Inactive)
REMARK    1  A    between atoms: C_8  and  C_1 
REMARK    2  A    between atoms: C_10  and  C_2 
REMARK    3  A    between atoms: N_6  and  C_9 
REMARK    4  A    between atoms: O_19  and  C_8 
REMARK    5  A    between atoms: C_21  and  O_19 
ROOT
ATOM      1  C   UNL d   1     -42.884-123.341 -49.115  0.00  0.00     0.099 A 
ATOM      2  C   UNL d   1     -42.091-123.255 -49.329  0.00  0.00     0.093 A 
ATOM      3  C   UNL d   1     -43.093-123.543 -48.338  0.00  0.00     0.093 A 
ATOM      4  N   UNL d   1     -41.501-123.374 -48.751  0.00  0.00    -0.191 NA
ATOM      5  C   UNL d   1     -41.711-123.576 -47.974  0.00  0.00     0.369 A 
ATOM      6  N   UNL d   1     -42.511-123.660 -47.771  0.00  0.00    -0.191 NA
ATOM      7  O   UNL d   1     -41.124-123.692 -47.407  0.00  0.00    -0.242 OA
ATOM      8  C   UNL d   1     -43.887-123.626 -48.137  0.00  0.00     0.021 C 
ENDROOT
BRANCH   2   9
ATOM      9  C   UNL d   1     -41.879-123.054 -50.100  0.00  0.00     0.018 A 
ATOM     10  C   UNL d   1     -41.961-122.275 -50.348  0.00  0.00     0.003 A 
ATOM     11  C   UNL d   1     -41.753-122.066 -51.113  0.00  0.00     0.024 A 
ATOM     12  C   UNL d   1     -41.457-122.638 -51.640  0.00  0.00     0.127 A 
ATOM     13  C   UNL d   1     -41.375-123.423 -51.386  0.00  0.00     0.024 A 
ATOM     14  C   UNL d   1     -41.586-123.629 -50.616  0.00  0.00     0.003 A 
BRANCH  12  15
ATOM     15  N   UNL d   1     -41.245-122.432 -52.411  0.00  0.00    -0.114 N 
ATOM     16  O   UNL d   1     -41.148-123.019 -52.983  0.00  0.00    -0.532 OA
ATOM     17  O   UNL d   1     -41.131-121.639 -52.610  0.00  0.00    -0.532 OA
ENDBRANCH  12  15
ENDBRANCH   2   9
BRANCH   1  18
ATOM     18  C   UNL d   1     -43.472-123.225 -49.679  0.00  0.00     0.303 C 
ATOM     19  O   UNL d   1     -43.592-123.786 -50.272  0.00  0.00    -0.259 OA
BRANCH  18  20
ATOM     20  O   UNL d   1     -43.945-122.549 -49.655  0.00  0.00    -0.271 OA
BRANCH  20  21
ATOM     21  C   UNL d   1     -44.407-122.344 -50.308  0.00  0.00     0.126 C 
ATOM     22  C   UNL d   1     -45.111-121.943 -50.196  0.00  0.00     0.029 C 
ENDBRANCH  20  21
ENDBRANCH  18  20
ENDBRANCH   1  18
TORSDOF 5
ENDMDL
