MODEL 1
REMARK VINA RESULT:      -7.6      0.000      0.000
REMARK  5 active torsions:
REMARK  status: ('A' for Active; 'I' for Inactive)
REMARK       I    between atoms: C_2  and  N_1 
REMARK    1  A    between atoms: C_3  and  N_1 
REMARK    2  A    between atoms: C_9  and  C_2 
REMARK    3  A    between atoms: N_6  and  C_3 
REMARK    4  A    between atoms: C_4  and  C_13 
REMARK    5  A    between atoms: C_13  and  N_6 
ROOT
ATOM      1  N   UNL d   1      52.758  32.715  53.153  0.00  0.00    -0.299 N 
ATOM      2  C   UNL d   1      52.355  33.353  53.483  0.00  0.00     0.259 C 
ATOM      3  O   UNL d   1      52.589  33.657  54.215  0.00  0.00    -0.267 OA
ATOM      4  H   UNL d   1      52.524  32.410  52.421  0.00  0.00     0.171 HD
ENDROOT
BRANCH   1   5
ATOM      5  C   UNL d   1      53.385  32.379  53.539  0.00  0.00     0.179 C 
ATOM      6  S   UNL d   1      54.094  32.799  53.601  0.00  0.00    -0.040 SA
BRANCH   5   7
ATOM      7  N   UNL d   1      53.311  31.645  53.857  0.00  0.00    -0.329 N 
ATOM      8  H   UNL d   1      52.960  31.554  54.582  0.00  0.00     0.168 HD
BRANCH   7   9
ATOM      9  C   UNL d   1      53.585  31.007  53.452  0.00  0.00     0.099 C 
BRANCH   9  10
ATOM     10  C   UNL d   1      53.361  30.244  53.686  0.00  0.00     0.117 A 
ATOM     11  O   UNL d   1      52.797  29.847  53.244  0.00  0.00    -0.304 OA
ATOM     12  C   UNL d   1      52.685  29.118  53.597  0.00  0.00     0.123 A 
ATOM     13  C   UNL d   1      53.181  29.077  54.251  0.00  0.00     0.029 A 
ATOM     14  C   UNL d   1      53.592  29.782  54.291  0.00  0.00     0.028 A 
ENDBRANCH   9  10
ENDBRANCH   7   9
ENDBRANCH   5   7
ENDBRANCH   1   5
BRANCH   2  15
ATOM     15  C   UNL d   1      51.715  33.690  53.081  0.00  0.00     0.056 A 
ATOM     16  C   UNL d   1      50.956  33.649  53.406  0.00  0.00     0.005 A 
ATOM     17  C   UNL d   1      50.313  33.989  53.000  0.00  0.00     0.000 A 
ATOM     18  C   UNL d   1      50.433  34.365  52.278  0.00  0.00     0.000 A 
ATOM     19  C   UNL d   1      51.192  34.406  51.952  0.00  0.00     0.000 A 
ATOM     20  C   UNL d   1      51.831  34.072  52.350  0.00  0.00     0.005 A 
ENDBRANCH   2  15
TORSDOF 5
ENDMDL
MODEL 2
REMARK VINA RESULT:      -7.5      0.931      4.128
REMARK  5 active torsions:
REMARK  status: ('A' for Active; 'I' for Inactive)
REMARK       I    between atoms: C_2  and  N_1 
REMARK    1  A    between atoms: C_3  and  N_1 
REMARK    2  A    between atoms: C_9  and  C_2 
REMARK    3  A    between atoms: N_6  and  C_3 
REMARK    4  A    between atoms: C_4  and  C_13 
REMARK    5  A    between atoms: C_13  and  N_6 
ROOT
ATOM      1  N   UNL d   1      53.009  32.118  53.949  0.00  0.00    -0.299 N 
ATOM      2  C   UNL d   1      53.548  31.576  53.645  0.00  0.00     0.259 C 
ATOM      3  O   UNL d   1      54.259  31.839  53.314  0.00  0.00    -0.267 OA
ATOM      4  H   UNL d   1      52.298  31.855  54.280  0.00  0.00     0.171 HD
ENDROOT
BRANCH   1   5
ATOM      5  C   UNL d   1      53.167  32.912  53.930  0.00  0.00     0.179 C 
ATOM      6  S   UNL d   1      53.724  33.227  54.453  0.00  0.00    -0.040 SA
BRANCH   5   7
ATOM      7  N   UNL d   1      52.781  33.382  53.405  0.00  0.00    -0.329 N 
ATOM      8  H   UNL d   1      53.021  33.401  52.631  0.00  0.00     0.168 HD
BRANCH   7   9
ATOM      9  C   UNL d   1      52.162  33.830  53.654  0.00  0.00     0.099 C 
BRANCH   9  10
ATOM     10  C   UNL d   1      51.565  34.041  53.117  0.00  0.00     0.117 A 
ATOM     11  O   UNL d   1      50.784  33.967  53.348  0.00  0.00    -0.304 OA
ATOM     12  C   UNL d   1      50.322  34.210  52.718  0.00  0.00     0.123 A 
ATOM     13  C   UNL d   1      50.827  34.430  52.109  0.00  0.00     0.029 A 
ATOM     14  C   UNL d   1      51.593  34.319  52.372  0.00  0.00     0.028 A 
ENDBRANCH   9  10
ENDBRANCH   7   9
ENDBRANCH   5   7
ENDBRANCH   1   5
BRANCH   2  15
ATOM     15  C   UNL d   1      53.379  30.766  53.669  0.00  0.00     0.056 A 
ATOM     16  C   UNL d   1      53.602  30.317  54.327  0.00  0.00     0.005 A 
ATOM     17  C   UNL d   1      53.431  29.503  54.349  0.00  0.00     0.000 A 
ATOM     18  C   UNL d   1      53.040  29.145  53.718  0.00  0.00     0.000 A 
ATOM     19  C   UNL d   1      52.817  29.594  53.060  0.00  0.00     0.000 A 
ATOM     20  C   UNL d   1      52.984  30.399  53.034  0.00  0.00     0.005 A 
ENDBRANCH   2  15
TORSDOF 5
ENDMDL
MODEL 3
REMARK VINA RESULT:      -7.2      1.919      4.156
REMARK  5 active torsions:
REMARK  status: ('A' for Active; 'I' for Inactive)
REMARK       I    between atoms: C_2  and  N_1 
REMARK    1  A    between atoms: C_3  and  N_1 
REMARK    2  A    between atoms: C_9  and  C_2 
REMARK    3  A    between atoms: N_6  and  C_3 
REMARK    4  A    between atoms: C_4  and  C_13 
REMARK    5  A    between atoms: C_13  and  N_6 
ROOT
ATOM      1  N   UNL d   1      53.023  32.758  53.806  0.00  0.00    -0.299 N 
ATOM      2  C   UNL d   1      53.844  32.749  53.749  0.00  0.00     0.259 C 
ATOM      3  O   UNL d   1      54.209  32.418  53.085  0.00  0.00    -0.267 OA
ATOM      4  H   UNL d   1      52.657  33.089  54.470  0.00  0.00     0.171 HD
ENDROOT
BRANCH   1   5
ATOM      5  C   UNL d   1      52.565  32.445  53.217  0.00  0.00     0.179 C 
ATOM      6  S   UNL d   1      52.628  31.640  53.039  0.00  0.00    -0.040 SA
BRANCH   5   7
ATOM      7  N   UNL d   1      52.057  32.919  52.813  0.00  0.00    -0.329 N 
ATOM      8  H   UNL d   1      52.309  33.302  52.145  0.00  0.00     0.168 HD
BRANCH   7   9
ATOM      9  C   UNL d   1      51.302  33.007  53.076  0.00  0.00     0.099 C 
BRANCH   9  10
ATOM     10  C   UNL d   1      50.832  33.622  52.778  0.00  0.00     0.117 A 
ATOM     11  O   UNL d   1      50.298  33.988  53.279  0.00  0.00    -0.304 OA
ATOM     12  C   UNL d   1      49.916  34.565  52.844  0.00  0.00     0.123 A 
ATOM     13  C   UNL d   1      50.221  34.546  52.081  0.00  0.00     0.029 A 
ATOM     14  C   UNL d   1      50.786  33.957  52.057  0.00  0.00     0.028 A 
ENDBRANCH   9  10
ENDBRANCH   7   9
ENDBRANCH   5   7
ENDBRANCH   1   5
BRANCH   2  15
ATOM     15  C   UNL d   1      54.305  33.071  54.356  0.00  0.00     0.056 A 
ATOM     16  C   UNL d   1      54.951  33.553  54.172  0.00  0.00     0.005 A 
ATOM     17  C   UNL d   1      55.414  33.876  54.785  0.00  0.00     0.000 A 
ATOM     18  C   UNL d   1      55.228  33.716  55.571  0.00  0.00     0.000 A 
ATOM     19  C   UNL d   1      54.582  33.235  55.755  0.00  0.00     0.000 A 
ATOM     20  C   UNL d   1      54.121  32.913  55.153  0.00  0.00     0.005 A 
ENDBRANCH   2  15
TORSDOF 5
ENDMDL
MODEL 4
REMARK VINA RESULT:      -7.1      2.056      2.603
REMARK  5 active torsions:
REMARK  status: ('A' for Active; 'I' for Inactive)
REMARK       I    between atoms: C_2  and  N_1 
REMARK    1  A    between atoms: C_3  and  N_1 
REMARK    2  A    between atoms: C_9  and  C_2 
REMARK    3  A    between atoms: N_6  and  C_3 
REMARK    4  A    between atoms: C_4  and  C_13 
REMARK    5  A    between atoms: C_13  and  N_6 
ROOT
ATOM      1  N   UNL d   1      53.304  31.988  53.980  0.00  0.00    -0.299 N 
ATOM      2  C   UNL d   1      53.826  32.580  53.748  0.00  0.00     0.259 C 
ATOM      3  O   UNL d   1      54.157  32.569  52.990  0.00  0.00    -0.267 OA
ATOM      4  H   UNL d   1      52.973  31.999  54.737  0.00  0.00     0.171 HD
ENDROOT
BRANCH   1   5
ATOM      5  C   UNL d   1      53.108  31.389  53.471  0.00  0.00     0.179 C 
ATOM      6  S   UNL d   1      52.619  31.552  52.824  0.00  0.00    -0.040 SA
BRANCH   5   7
ATOM      7  N   UNL d   1      53.390  30.648  53.599  0.00  0.00    -0.329 N 
ATOM      8  H   UNL d   1      54.184  30.502  53.528  0.00  0.00     0.168 HD
BRANCH   7   9
ATOM      9  C   UNL d   1      52.881  30.059  53.798  0.00  0.00     0.099 C 
BRANCH   9  10
ATOM     10  C   UNL d   1      53.157  29.404  54.225  0.00  0.00     0.117 A 
ATOM     11  O   UNL d   1      52.868  29.276  54.980  0.00  0.00    -0.304 OA
ATOM     12  C   UNL d   1      53.231  28.602  55.266  0.00  0.00     0.123 A 
ATOM     13  C   UNL d   1      53.738  28.325  54.683  0.00  0.00     0.029 A 
ATOM     14  C   UNL d   1      53.680  28.832  54.046  0.00  0.00     0.028 A 
ENDBRANCH   9  10
ENDBRANCH   7   9
ENDBRANCH   5   7
ENDBRANCH   1   5
BRANCH   2  15
ATOM     15  C   UNL d   1      54.021  33.189  54.275  0.00  0.00     0.056 A 
ATOM     16  C   UNL d   1      53.503  33.825  54.380  0.00  0.00     0.005 A 
ATOM     17  C   UNL d   1      53.701  34.436  54.910  0.00  0.00     0.000 A 
ATOM     18  C   UNL d   1      54.410  34.407  55.328  0.00  0.00     0.000 A 
ATOM     19  C   UNL d   1      54.928  33.771  55.223  0.00  0.00     0.000 A 
ATOM     20  C   UNL d   1      54.737  33.164  54.701  0.00  0.00     0.005 A 
ENDBRANCH   2  15
TORSDOF 5
ENDMDL
MODEL 5
REMARK VINA RESULT:      -6.8      2.009      2.608
REMARK  5 active torsions:
REMARK  status: ('A' for Active; 'I' for Inactive)
REMARK       I    between atoms: C_2  and  N_1 
REMARK    1  A    between atoms: C_3  and  N_1 
REMARK    2  A    between atoms: C_9  and  C_2 
REMARK    3  A    between atoms: N_6  and  C_3 
REMARK    4  A    between atoms: C_4  and  C_13 
REMARK    5  A    between atoms: C_13  and  N_6 
ROOT
ATOM      1  N   UNL d   1      51.843  33.108  53.247  0.00  0.00    -0.299 N 
ATOM      2  C   UNL d   1      51.637  33.585  52.608  0.00  0.00     0.259 C 
ATOM      3  O   UNL d   1      52.143  33.645  51.956  0.00  0.00    -0.267 OA
ATOM      4  H   UNL d   1      51.338  33.048  53.899  0.00  0.00     0.171 HD
ENDROOT
BRANCH   1   5
ATOM      5  C   UNL d   1      52.539  32.694  53.245  0.00  0.00     0.179 C 
ATOM      6  S   UNL d   1      52.561  31.942  52.902  0.00  0.00    -0.040 SA
BRANCH   5   7
ATOM      7  N   UNL d   1      53.196  33.018  53.575  0.00  0.00    -0.329 N 
ATOM      8  H   UNL d   1      53.450  33.747  53.332  0.00  0.00     0.168 HD
BRANCH   7   9
ATOM      9  C   UNL d   1      53.594  32.613  54.145  0.00  0.00     0.099 C 
BRANCH   9  10
ATOM     10  C   UNL d   1      54.167  33.002  54.600  0.00  0.00     0.117 A 
ATOM     11  O   UNL d   1      54.080  33.018  55.414  0.00  0.00    -0.304 OA
ATOM     12  C   UNL d   1      54.717  33.433  55.716  0.00  0.00     0.123 A 
ATOM     13  C   UNL d   1      55.186  33.666  55.084  0.00  0.00     0.029 A 
ATOM     14  C   UNL d   1      54.833  33.391  54.401  0.00  0.00     0.028 A 
ENDBRANCH   9  10
ENDBRANCH   7   9
ENDBRANCH   5   7
ENDBRANCH   1   5
BRANCH   2  15
ATOM     15  C   UNL d   1      50.924  34.005  52.618  0.00  0.00     0.056 A 
ATOM     16  C   UNL d   1      50.444  34.018  51.944  0.00  0.00     0.005 A 
ATOM     17  C   UNL d   1      49.727  34.441  51.956  0.00  0.00     0.000 A 
ATOM     18  C   UNL d   1      49.496  34.844  52.636  0.00  0.00     0.000 A 
ATOM     19  C   UNL d   1      49.976  34.831  53.309  0.00  0.00     0.000 A 
ATOM     20  C   UNL d   1      50.686  34.415  53.302  0.00  0.00     0.005 A 
ENDBRANCH   2  15
TORSDOF 5
ENDMDL
