MODEL 1
REMARK VINA RESULT:      -0.5      0.000      0.000
REMARK  6 active torsions:
REMARK  status: ('A' for Active; 'I' for Inactive)
REMARK    1  A    between atoms: C_7  and  C_1 
REMARK    2  A    between atoms: S_9  and  C_2 
REMARK    3  A    between atoms: C_11  and  C_4 
REMARK    4  A    between atoms: C_15  and  S_9 
REMARK    5  A    between atoms: C_12  and  C_15 
REMARK    6  A    between atoms: O_21  and  C_12 
ROOT
ATOM      1  C   UNL d   1      30.765  17.470 -24.379  0.00  0.00     0.045 A 
ATOM      2  C   UNL d   1      30.358  16.801 -24.619  0.00  0.00     0.112 A 
ATOM      3  C   UNL d   1      32.012  16.796 -24.617  0.00  0.00     0.057 A 
ATOM      4  C   UNL d   1      31.589  17.476 -24.374  0.00  0.00     0.008 A 
ATOM      5  C   UNL d   1      31.604  16.128 -24.857  0.00  0.00     0.085 A 
ATOM      6  N   UNL d   1      30.766  16.123 -24.861  0.00  0.00    -0.239 NA
ATOM      7  C   UNL d   1      32.827  16.807 -24.611  0.00  0.00     0.197 A 
ATOM      8  O   UNL d   1      33.240  17.486 -24.367  0.00  0.00    -0.286 OA
ATOM      9  C   UNL d   1      32.003  15.454 -25.097  0.00  0.00     0.019 A 
ATOM     10  C   UNL d   1      33.238  16.134 -24.851  0.00  0.00     0.042 A 
ATOM     11  C   UNL d   1      32.830  15.465 -25.091  0.00  0.00     0.005 A 
ENDROOT
BRANCH   4  12
ATOM     12  C   UNL d   1      31.994  18.140 -24.136  0.00  0.00     0.000 A 
ATOM     13  C   UNL d   1      32.059  18.315 -23.336  0.00  0.00     0.000 A 
ATOM     14  C   UNL d   1      32.466  18.983 -23.095  0.00  0.00     0.000 A 
ATOM     15  C   UNL d   1      32.809  19.478 -23.655  0.00  0.00     0.000 A 
ATOM     16  C   UNL d   1      32.746  19.306 -24.467  0.00  0.00     0.000 A 
ATOM     17  C   UNL d   1      33.219  20.152 -23.413  0.00  0.00     0.000 C 
ATOM     18  C   UNL d   1      32.339  18.637 -24.708  0.00  0.00     0.000 A 
ENDBRANCH   4  12
BRANCH   1  19
ATOM     19  C   UNL d   1      30.337  18.152 -24.135  0.00  0.00     0.124 C 
ATOM     20  N   UNL d   1      29.618  18.336 -24.508  0.00  0.00    -0.146 N 
ENDBRANCH   1  19
BRANCH   2  21
ATOM     21  S   UNL d   1      29.502  16.780 -24.629  0.00  0.00    -0.062 SA
BRANCH  21  22
ATOM     22  C   UNL d   1      29.115  16.105 -24.382  0.00  0.00     0.105 C 
BRANCH  22  23
ATOM     23  C   UNL d   1      28.284  16.088 -24.361  0.00  0.00     0.303 C 
ATOM     24  O   UNL d   1      27.844  16.025 -25.057  0.00  0.00    -0.259 OA
BRANCH  23  25
ATOM     25  O   UNL d   1      27.897  16.135 -23.642  0.00  0.00    -0.295 OA
ATOM     26  C   UNL d   1      27.523  15.460 -23.333  0.00  0.00     0.185 C 
ENDBRANCH  23  25
ENDBRANCH  22  23
ENDBRANCH  21  22
ENDBRANCH   2  21
TORSDOF 6
ENDMDL
MODEL 2
REMARK VINA RESULT:       1.0      1.591      3.913
REMARK  6 active torsions:
REMARK  status: ('A' for Active; 'I' for Inactive)
REMARK    1  A    between atoms: C_7  and  C_1 
REMARK    2  A    between atoms: S_9  and  C_2 
REMARK    3  A    between atoms: C_11  and  C_4 
REMARK    4  A    between atoms: C_15  and  S_9 
REMARK    5  A    between atoms: C_12  and  C_15 
REMARK    6  A    between atoms: O_21  and  C_12 
ROOT
ATOM      1  C   UNL d   1      31.352  17.825 -23.849  0.00  0.00     0.045 A 
ATOM      2  C   UNL d   1      32.118  18.107 -23.791  0.00  0.00     0.112 A 
ATOM      3  C   UNL d   1      31.840  16.629 -24.478  0.00  0.00     0.057 A 
ATOM      4  C   UNL d   1      31.205  17.089 -24.191  0.00  0.00     0.008 A 
ATOM      5  C   UNL d   1      32.607  16.911 -24.420  0.00  0.00     0.085 A 
ATOM      6  N   UNL d   1      32.755  17.660 -24.073  0.00  0.00    -0.239 NA
ATOM      7  C   UNL d   1      31.690  15.902 -24.815  0.00  0.00     0.197 A 
ATOM      8  O   UNL d   1      30.912  15.615 -24.874  0.00  0.00    -0.286 OA
ATOM      9  C   UNL d   1      33.240  16.473 -24.697  0.00  0.00     0.019 A 
ATOM     10  C   UNL d   1      32.321  15.453 -25.097  0.00  0.00     0.042 A 
ATOM     11  C   UNL d   1      33.088  15.735 -25.038  0.00  0.00     0.005 A 
ENDROOT
BRANCH   4  12
ATOM     12  C   UNL d   1      30.444  16.808 -24.248  0.00  0.00     0.000 A 
ATOM     13  C   UNL d   1      29.930  17.129 -24.803  0.00  0.00     0.000 A 
ATOM     14  C   UNL d   1      29.163  16.846 -24.862  0.00  0.00     0.000 A 
ATOM     15  C   UNL d   1      28.910  16.243 -24.365  0.00  0.00     0.000 A 
ATOM     16  C   UNL d   1      29.426  15.914 -23.801  0.00  0.00     0.000 A 
ATOM     17  C   UNL d   1      28.137  15.958 -24.424  0.00  0.00     0.000 C 
ATOM     18  C   UNL d   1      30.193  16.196 -23.742  0.00  0.00     0.000 A 
ENDBRANCH   4  12
BRANCH   1  19
ATOM     19  C   UNL d   1      30.714  18.290 -23.559  0.00  0.00     0.124 C 
ATOM     20  N   UNL d   1      30.670  19.094 -23.764  0.00  0.00    -0.146 N 
ENDBRANCH   1  19
BRANCH   2  21
ATOM     21  S   UNL d   1      32.287  18.870 -23.439  0.00  0.00    -0.062 SA
BRANCH  21  22
ATOM     22  C   UNL d   1      32.809  18.916 -22.814  0.00  0.00     0.105 C 
BRANCH  22  23
ATOM     23  C   UNL d   1      32.943  19.645 -22.440  0.00  0.00     0.303 C 
ATOM     24  O   UNL d   1      32.798  20.357 -22.832  0.00  0.00    -0.259 OA
BRANCH  23  25
ATOM     25  O   UNL d   1      33.223  19.659 -21.671  0.00  0.00    -0.295 OA
ATOM     26  C   UNL d   1      33.145  20.352 -21.218  0.00  0.00     0.185 C 
ENDBRANCH  23  25
ENDBRANCH  22  23
ENDBRANCH  21  22
ENDBRANCH   2  21
TORSDOF 6
ENDMDL
MODEL 3
REMARK VINA RESULT:       1.8      4.030      6.395
REMARK  6 active torsions:
REMARK  status: ('A' for Active; 'I' for Inactive)
REMARK    1  A    between atoms: C_7  and  C_1 
REMARK    2  A    between atoms: S_9  and  C_2 
REMARK    3  A    between atoms: C_11  and  C_4 
REMARK    4  A    between atoms: C_15  and  S_9 
REMARK    5  A    between atoms: C_12  and  C_15 
REMARK    6  A    between atoms: O_21  and  C_12 
ROOT
ATOM      1  C   UNL d   1      32.696  21.551 -21.666  0.00  0.00     0.045 A 
ATOM      2  C   UNL d   1      32.751  22.326 -21.409  0.00  0.00     0.112 A 
ATOM      3  C   UNL d   1      32.931  21.983 -23.017  0.00  0.00     0.057 A 
ATOM      4  C   UNL d   1      32.784  21.371 -22.466  0.00  0.00     0.008 A 
ATOM      5  C   UNL d   1      32.986  22.758 -22.759  0.00  0.00     0.085 A 
ATOM      6  N   UNL d   1      32.896  22.940 -21.945  0.00  0.00    -0.239 NA
ATOM      7  C   UNL d   1      33.017  21.800 -23.806  0.00  0.00     0.197 A 
ATOM      8  O   UNL d   1      32.961  21.013 -24.068  0.00  0.00    -0.286 OA
ATOM      9  C   UNL d   1      33.129  23.368 -23.285  0.00  0.00     0.019 A 
ATOM     10  C   UNL d   1      33.161  22.408 -24.344  0.00  0.00     0.042 A 
ATOM     11  C   UNL d   1      33.216  23.183 -24.087  0.00  0.00     0.005 A 
ENDROOT
BRANCH   4  12
ATOM     12  C   UNL d   1      32.729  20.601 -22.722  0.00  0.00     0.000 A 
ATOM     13  C   UNL d   1      33.238  20.031 -22.420  0.00  0.00     0.000 A 
ATOM     14  C   UNL d   1      33.183  19.256 -22.677  0.00  0.00     0.000 A 
ATOM     15  C   UNL d   1      32.619  19.049 -23.238  0.00  0.00     0.000 A 
ATOM     16  C   UNL d   1      32.100  19.622 -23.548  0.00  0.00     0.000 A 
ATOM     17  C   UNL d   1      32.563  18.267 -23.498  0.00  0.00     0.000 C 
ATOM     18  C   UNL d   1      32.155  20.398 -23.291  0.00  0.00     0.000 A 
ENDBRANCH   4  12
BRANCH   1  19
ATOM     19  C   UNL d   1      32.549  20.937 -21.110  0.00  0.00     0.124 C 
ATOM     20  N   UNL d   1      31.883  20.987 -20.615  0.00  0.00    -0.146 N 
ENDBRANCH   1  19
BRANCH   2  21
ATOM     21  S   UNL d   1      32.662  22.528 -20.581  0.00  0.00    -0.062 SA
BRANCH  21  22
ATOM     22  C   UNL d   1      32.614  23.313 -20.364  0.00  0.00     0.105 C 
BRANCH  22  23
ATOM     23  C   UNL d   1      32.210  23.527 -19.670  0.00  0.00     0.303 C 
ATOM     24  O   UNL d   1      31.386  23.572 -19.656  0.00  0.00    -0.259 OA
BRANCH  23  25
ATOM     25  O   UNL d   1      32.635  23.694 -18.991  0.00  0.00    -0.295 OA
ATOM     26  C   UNL d   1      32.247  23.702 -18.256  0.00  0.00     0.185 C 
ENDBRANCH  23  25
ENDBRANCH  22  23
ENDBRANCH  21  22
ENDBRANCH   2  21
TORSDOF 6
ENDMDL
MODEL 4
REMARK VINA RESULT:       2.3      2.563      4.412
REMARK  6 active torsions:
REMARK  status: ('A' for Active; 'I' for Inactive)
REMARK    1  A    between atoms: C_7  and  C_1 
REMARK    2  A    between atoms: S_9  and  C_2 
REMARK    3  A    between atoms: C_11  and  C_4 
REMARK    4  A    between atoms: C_15  and  S_9 
REMARK    5  A    between atoms: C_12  and  C_15 
REMARK    6  A    between atoms: O_21  and  C_12 
ROOT
ATOM      1  C   UNL d   1      33.214  19.846 -23.718  0.00  0.00     0.045 A 
ATOM      2  C   UNL d   1      33.213  19.108 -23.363  0.00  0.00     0.112 A 
ATOM      3  C   UNL d   1      33.227  20.469 -22.423  0.00  0.00     0.057 A 
ATOM      4  C   UNL d   1      33.221  20.530 -23.257  0.00  0.00     0.008 A 
ATOM      5  C   UNL d   1      33.226  19.731 -22.068  0.00  0.00     0.085 A 
ATOM      6  N   UNL d   1      33.218  19.037 -22.539  0.00  0.00    -0.239 NA
ATOM      7  C   UNL d   1      33.234  21.148 -21.972  0.00  0.00     0.197 A 
ATOM      8  O   UNL d   1      33.235  21.897 -22.332  0.00  0.00    -0.286 OA
ATOM      9  C   UNL d   1      33.232  19.655 -21.254  0.00  0.00     0.019 A 
ATOM     10  C   UNL d   1      33.240  21.082 -21.150  0.00  0.00     0.042 A 
ATOM     11  C   UNL d   1      33.239  20.344 -20.795  0.00  0.00     0.005 A 
ENDROOT
BRANCH   4  12
ATOM     12  C   UNL d   1      33.222  21.262 -23.609  0.00  0.00     0.000 A 
ATOM     13  C   UNL d   1      33.239  21.323 -24.429  0.00  0.00     0.000 A 
ATOM     14  C   UNL d   1      33.240  22.061 -24.784  0.00  0.00     0.000 A 
ATOM     15  C   UNL d   1      33.224  22.739 -24.320  0.00  0.00     0.000 A 
ATOM     16  C   UNL d   1      33.207  22.684 -23.489  0.00  0.00     0.000 A 
ATOM     17  C   UNL d   1      33.226  23.484 -24.678  0.00  0.00     0.000 C 
ATOM     18  C   UNL d   1      33.206  21.946 -23.134  0.00  0.00     0.000 A 
ENDBRANCH   4  12
BRANCH   1  19
ATOM     19  C   UNL d   1      33.208  19.904 -24.557  0.00  0.00     0.124 C 
ATOM     20  N   UNL d   1      32.592  19.547 -24.986  0.00  0.00    -0.146 N 
ENDBRANCH   1  19
BRANCH   2  21
ATOM     21  S   UNL d   1      33.205  18.390 -23.828  0.00  0.00    -0.062 SA
BRANCH  21  22
ATOM     22  C   UNL d   1      33.223  17.667 -23.450  0.00  0.00     0.105 C 
BRANCH  22  23
ATOM     23  C   UNL d   1      32.920  16.993 -23.830  0.00  0.00     0.303 C 
ATOM     24  O   UNL d   1      33.026  16.880 -24.642  0.00  0.00    -0.259 OA
BRANCH  23  25
ATOM     25  O   UNL d   1      32.512  16.433 -23.395  0.00  0.00    -0.295 OA
ATOM     26  C   UNL d   1      32.048  15.866 -23.789  0.00  0.00     0.185 C 
ENDBRANCH  23  25
ENDBRANCH  22  23
ENDBRANCH  21  22
ENDBRANCH   2  21
TORSDOF 6
ENDMDL
MODEL 5
REMARK VINA RESULT:       2.5      1.881      2.960
REMARK  6 active torsions:
REMARK  status: ('A' for Active; 'I' for Inactive)
REMARK    1  A    between atoms: C_7  and  C_1 
REMARK    2  A    between atoms: S_9  and  C_2 
REMARK    3  A    between atoms: C_11  and  C_4 
REMARK    4  A    between atoms: C_15  and  S_9 
REMARK    5  A    between atoms: C_12  and  C_15 
REMARK    6  A    between atoms: O_21  and  C_12 
ROOT
ATOM      1  C   UNL d   1      29.344  16.224 -23.632  0.00  0.00     0.045 A 
ATOM      2  C   UNL d   1      28.572  16.492 -23.687  0.00  0.00     0.112 A 
ATOM      3  C   UNL d   1      29.799  17.389 -24.340  0.00  0.00     0.057 A 
ATOM      4  C   UNL d   1      29.962  16.666 -23.955  0.00  0.00     0.008 A 
ATOM      5  C   UNL d   1      29.028  17.657 -24.395  0.00  0.00     0.085 A 
ATOM      6  N   UNL d   1      28.400  17.208 -24.067  0.00  0.00    -0.239 NA
ATOM      7  C   UNL d   1      30.414  17.822 -24.657  0.00  0.00     0.197 A 
ATOM      8  O   UNL d   1      31.197  17.550 -24.600  0.00  0.00    -0.286 OA
ATOM      9  C   UNL d   1      28.852  18.364 -24.769  0.00  0.00     0.019 A 
ATOM     10  C   UNL d   1      30.247  18.535 -25.035  0.00  0.00     0.042 A 
ATOM     11  C   UNL d   1      29.475  18.803 -25.091  0.00  0.00     0.005 A 
ENDROOT
BRANCH   4  12
ATOM     12  C   UNL d   1      30.728  16.400 -23.900  0.00  0.00     0.000 A 
ATOM     13  C   UNL d   1      31.198  16.630 -23.266  0.00  0.00     0.000 A 
ATOM     14  C   UNL d   1      31.970  16.362 -23.211  0.00  0.00     0.000 A 
ATOM     15  C   UNL d   1      32.273  15.863 -23.789  0.00  0.00     0.000 A 
ATOM     16  C   UNL d   1      31.802  15.626 -24.433  0.00  0.00     0.000 A 
ATOM     17  C   UNL d   1      33.052  15.593 -23.733  0.00  0.00     0.000 C 
ATOM     18  C   UNL d   1      31.030  15.894 -24.489  0.00  0.00     0.000 A 
ENDBRANCH   4  12
BRANCH   1  19
ATOM     19  C   UNL d   1      29.505  15.496 -23.244  0.00  0.00     0.124 C 
ATOM     20  N   UNL d   1      29.442  15.453 -22.417  0.00  0.00    -0.146 N 
ENDBRANCH   1  19
BRANCH   2  21
ATOM     21  S   UNL d   1      27.920  16.046 -23.358  0.00  0.00    -0.062 SA
BRANCH  21  22
ATOM     22  C   UNL d   1      27.155  16.252 -23.551  0.00  0.00     0.105 C 
BRANCH  22  23
ATOM     23  C   UNL d   1      26.548  16.161 -22.991  0.00  0.00     0.303 C 
ATOM     24  O   UNL d   1      26.354  16.773 -22.472  0.00  0.00    -0.259 OA
BRANCH  23  25
ATOM     25  O   UNL d   1      26.136  15.455 -22.954  0.00  0.00    -0.295 OA
ATOM     26  C   UNL d   1      25.318  15.465 -22.809  0.00  0.00     0.185 C 
ENDBRANCH  23  25
ENDBRANCH  22  23
ENDBRANCH  21  22
ENDBRANCH   2  21
TORSDOF 6
ENDMDL
