MODEL 1
REMARK VINA RESULT:      32.1      0.000      0.000
REMARK  2 active torsions:
REMARK  status: ('A' for Active; 'I' for Inactive)
REMARK    1  A    between atoms: C_9  and  N_1 
REMARK    2  A    between atoms: C_8  and  N_2 
ROOT
ATOM      1  N   UNL d   1      22.801  13.115  -1.036  0.00  0.00    -0.208 N 
ATOM      2  N   UNL d   1      22.795  12.680  -1.740  0.00  0.00    -0.208 N 
ATOM      3  C   UNL d   1      22.029  12.406  -1.877  0.00  0.00     0.284 A 
ATOM      4  C   UNL d   1      22.032  13.111  -0.734  0.00  0.00     0.284 A 
ATOM      5  C   UNL d   1      21.555  12.674  -1.253  0.00  0.00     0.125 A 
ATOM      6  O   UNL d   1      21.781  11.954  -2.513  0.00  0.00    -0.265 OA
ATOM      7  O   UNL d   1      21.780  13.481  -0.033  0.00  0.00    -0.265 OA
ENDROOT
BRANCH   1   8
ATOM      8  C   UNL d   1      23.452  13.484  -0.698  0.00  0.00     0.085 A 
ATOM      9  C   UNL d   1      24.058  13.028  -0.356  0.00  0.00     0.019 A 
ATOM     10  C   UNL d   1      24.712  13.396  -0.016  0.00  0.00     0.002 A 
ATOM     11  C   UNL d   1      24.767  14.230  -0.016  0.00  0.00     0.000 A 
ATOM     12  C   UNL d   1      24.160  14.682  -0.359  0.00  0.00     0.002 A 
ATOM     13  C   UNL d   1      23.505  14.305  -0.699  0.00  0.00     0.019 A 
ENDBRANCH   1   8
BRANCH   2  14
ATOM     14  C   UNL d   1      23.449  12.545  -2.223  0.00  0.00     0.085 A 
ATOM     15  C   UNL d   1      23.552  12.978  -2.917  0.00  0.00     0.019 A 
ATOM     16  C   UNL d   1      24.203  12.843  -3.397  0.00  0.00     0.002 A 
ATOM     17  C   UNL d   1      24.765  12.266  -3.182  0.00  0.00     0.000 A 
ATOM     18  C   UNL d   1      24.662  11.832  -2.488  0.00  0.00     0.002 A 
ATOM     19  C   UNL d   1      24.006  11.973  -2.012  0.00  0.00     0.019 A 
ENDBRANCH   2  14
TORSDOF 2
ENDMDL
