MODEL 1
REMARK VINA RESULT:      39.9      0.000      0.000
REMARK  3 active torsions:
REMARK  status: ('A' for Active; 'I' for Inactive)
REMARK    1  A    between atoms: C_7  and  N_1 
REMARK    2  A    between atoms: C_11  and  C_4 
REMARK    3  A    between atoms: C_9  and  C_7 
ROOT
ATOM      1  N   UNL d   1     -51.398  24.481  33.663  0.00  0.00    -0.252 N 
ATOM      2  C   UNL d   1     -51.401  23.629  33.688  0.00  0.00     0.354 A 
ATOM      3  C   UNL d   1     -52.829  24.431  33.527  0.00  0.00     0.035 A 
ATOM      4  C   UNL d   1     -52.118  24.873  33.583  0.00  0.00     0.070 A 
ATOM      5  N   UNL d   1     -52.117  23.217  33.631  0.00  0.00    -0.192 NA
ATOM      6  C   UNL d   1     -52.837  23.609  33.550  0.00  0.00     0.087 A 
ATOM      7  C   UNL d   1     -53.529  24.855  33.448  0.00  0.00     0.010 A 
ATOM      8  O   UNL d   1     -50.700  23.204  33.767  0.00  0.00    -0.244 OA
ATOM      9  C   UNL d   1     -53.513  23.198  33.497  0.00  0.00     0.020 A 
ATOM     10  C   UNL d   1     -54.250  24.451  33.390  0.00  0.00     0.035 A 
ATOM     11  C   UNL d   1     -54.237  23.583  33.416  0.00  0.00     0.008 A 
ATOM     12 BR   UNL d   1     -54.972  24.889  33.308  0.00  0.00    -0.049 Br
ENDROOT
BRANCH   4  13
ATOM     13  C   UNL d   1     -52.152  25.657  33.557  0.00  0.00     0.016 A 
ATOM     14  C   UNL d   1     -51.489  26.102  33.746  0.00  0.00     0.001 A 
ATOM     15  C   UNL d   1     -51.511  26.931  33.723  0.00  0.00     0.000 A 
ATOM     16  C   UNL d   1     -52.217  27.322  33.505  0.00  0.00     0.000 A 
ATOM     17  C   UNL d   1     -52.888  26.882  33.313  0.00  0.00     0.000 A 
ATOM     18  C   UNL d   1     -52.861  26.084  33.337  0.00  0.00     0.001 A 
ENDBRANCH   4  13
BRANCH   1  19
ATOM     19  C   UNL d   1     -50.694  24.929  33.718  0.00  0.00     0.155 C 
BRANCH  19  20
ATOM     20  C   UNL d   1     -49.966  24.549  33.616  0.00  0.00     0.230 C 
ATOM     21  O   UNL d   1     -49.893  23.734  33.829  0.00  0.00    -0.643 OA
ATOM     22  O   UNL d   1     -49.338  24.977  33.310  0.00  0.00    -0.643 OA
ENDBRANCH  19  20
ENDBRANCH   1  19
TORSDOF 3
ENDMDL
