MODEL 1
REMARK VINA RESULT:      47.8      0.000      0.000
REMARK  3 active torsions:
REMARK  status: ('A' for Active; 'I' for Inactive)
REMARK    1  A    between atoms: C_9  and  N_1 
REMARK    2  A    between atoms: C_8  and  C_3 
REMARK    3  A    between atoms: C_17  and  C_9 
ROOT
ATOM      1  N   UNL d   1      46.196 -14.557  43.878  0.00  0.00    -0.269 N 
ATOM      2  N   UNL d   1      45.444 -14.816  44.953  0.00  0.00    -0.204 NA
ATOM      3  C   UNL d   1      45.788 -14.212  44.509  0.00  0.00     0.174 A 
ATOM      4  C   UNL d   1      46.103 -15.375  43.934  0.00  0.00     0.185 A 
ATOM      5  C   UNL d   1      45.636 -15.539  44.601  0.00  0.00     0.199 A 
ATOM      6  N   UNL d   1      46.381 -15.997  43.467  0.00  0.00    -0.224 NA
ATOM      7  N   UNL d   1      45.452 -16.311  44.795  0.00  0.00    -0.223 NA
ATOM      8  C   UNL d   1      46.191 -16.778  43.669  0.00  0.00     0.101 A 
ATOM      9  C   UNL d   1      45.725 -16.933  44.335  0.00  0.00     0.101 A 
ATOM     10  C   UNL d   1      46.469 -17.405  43.201  0.00  0.00     0.021 A 
ATOM     11  C   UNL d   1      45.540 -17.705  44.530  0.00  0.00     0.021 A 
ATOM     12  C   UNL d   1      46.279 -18.177  43.404  0.00  0.00     0.002 A 
ATOM     13  C   UNL d   1      45.814 -18.327  44.069  0.00  0.00     0.002 A 
ENDROOT
BRANCH   1  14
ATOM     14  C   UNL d   1      46.620 -14.163  43.297  0.00  0.00     0.108 C 
BRANCH  14  15
ATOM     15  C   UNL d   1      46.217 -13.757  42.705  0.00  0.00     0.118 A 
ATOM     16  O   UNL d   1      45.413 -13.565  42.704  0.00  0.00    -0.304 OA
ATOM     17  C   UNL d   1      45.246 -13.161  42.008  0.00  0.00     0.123 A 
ATOM     18  C   UNL d   1      45.943 -13.100  41.575  0.00  0.00     0.029 A 
ATOM     19  C   UNL d   1      46.542 -13.468  42.004  0.00  0.00     0.028 A 
ENDBRANCH  14  15
ENDBRANCH   1  14
BRANCH   3  20
ATOM     20  C   UNL d   1      45.731 -13.409  44.670  0.00  0.00     0.135 A 
ATOM     21  O   UNL d   1      46.383 -12.895  44.732  0.00  0.00    -0.302 OA
ATOM     22  C   UNL d   1      46.056 -12.080  44.912  0.00  0.00     0.123 A 
ATOM     23  C   UNL d   1      45.203 -12.138  44.953  0.00  0.00     0.029 A 
ATOM     24  C   UNL d   1      44.996 -12.978  44.800  0.00  0.00     0.030 A 
ENDBRANCH   3  20
TORSDOF 3
ENDMDL
MODEL 2
REMARK VINA RESULT:      50.1      6.327      7.823
REMARK  3 active torsions:
REMARK  status: ('A' for Active; 'I' for Inactive)
REMARK    1  A    between atoms: C_9  and  N_1 
REMARK    2  A    between atoms: C_8  and  C_3 
REMARK    3  A    between atoms: C_17  and  C_9 
ROOT
ATOM      1  N   UNL d   1      44.254 -15.847  36.876  0.00  0.00    -0.269 N 
ATOM      2  N   UNL d   1      43.832 -14.605  36.616  0.00  0.00    -0.204 NA
ATOM      3  C   UNL d   1      44.498 -15.062  36.788  0.00  0.00     0.174 A 
ATOM      4  C   UNL d   1      43.438 -15.874  36.758  0.00  0.00     0.185 A 
ATOM      5  C   UNL d   1      43.174 -15.104  36.596  0.00  0.00     0.199 A 
ATOM      6  N   UNL d   1      42.897 -16.497  36.775  0.00  0.00    -0.224 NA
ATOM      7  N   UNL d   1      42.381 -14.961  36.455  0.00  0.00    -0.223 NA
ATOM      8  C   UNL d   1      42.094 -16.347  36.632  0.00  0.00     0.101 A 
ATOM      9  C   UNL d   1      41.838 -15.576  36.471  0.00  0.00     0.101 A 
ATOM     10  C   UNL d   1      41.547 -16.971  36.649  0.00  0.00     0.021 A 
ATOM     11  C   UNL d   1      41.045 -15.434  36.330  0.00  0.00     0.021 A 
ATOM     12  C   UNL d   1      40.754 -16.819  36.506  0.00  0.00     0.002 A 
ATOM     13  C   UNL d   1      40.503 -16.049  36.347  0.00  0.00     0.002 A 
ENDROOT
BRANCH   1  14
ATOM     14  C   UNL d   1      44.733 -16.490  37.049  0.00  0.00     0.108 C 
BRANCH  14  15
ATOM     15  C   UNL d   1      44.698 -16.834  37.796  0.00  0.00     0.118 A 
ATOM     16  O   UNL d   1      44.092 -16.737  38.350  0.00  0.00    -0.304 OA
ATOM     17  C   UNL d   1      44.281 -17.178  39.018  0.00  0.00     0.123 A 
ATOM     18  C   UNL d   1      45.004 -17.549  38.882  0.00  0.00     0.029 A 
ATOM     19  C   UNL d   1      45.261 -17.337  38.129  0.00  0.00     0.028 A 
ENDBRANCH  14  15
ENDBRANCH   1  14
BRANCH   3  20
ATOM     20  C   UNL d   1      45.266 -14.780  36.858  0.00  0.00     0.135 A 
ATOM     21  O   UNL d   1      45.496 -14.169  37.375  0.00  0.00    -0.302 OA
ATOM     22  C   UNL d   1      46.377 -14.050  37.262  0.00  0.00     0.123 A 
ATOM     23  C   UNL d   1      46.647 -14.606  36.668  0.00  0.00     0.029 A 
ATOM     24  C   UNL d   1      45.944 -15.067  36.412  0.00  0.00     0.030 A 
ENDBRANCH   3  20
TORSDOF 3
ENDMDL
