MODEL 1
REMARK VINA RESULT:      60.9      0.000      0.000
REMARK  5 active torsions:
REMARK  status: ('A' for Active; 'I' for Inactive)
REMARK    1  A    between atoms: N_7  and  C_1 
REMARK    2  A    between atoms: C_14  and  N_4 
REMARK    3  A    between atoms: C_6  and  N_7 
REMARK    4  A    between atoms: C_13  and  N_8 
REMARK    5  A    between atoms: C_17  and  C_13 
ROOT
ATOM      1  C   UNL d   1      13.459  13.704  -3.133  0.00  0.00     0.159 A 
ATOM      2  C   UNL d   1      13.725  14.425  -3.425  0.00  0.00     0.298 A 
ATOM      3  N   UNL d   1      13.249  13.725  -4.440  0.00  0.00    -0.238 N 
ATOM      4  N   UNL d   1      13.594  14.437  -4.235  0.00  0.00    -0.209 N 
ATOM      5  C   UNL d   1      13.163  13.270  -3.763  0.00  0.00     0.104 A 
ATOM      6  O   UNL d   1      14.064  15.030  -2.980  0.00  0.00    -0.263 OA
ATOM      7  C   UNL d   1      13.022  13.498  -5.201  0.00  0.00     0.120 C 
ATOM      8  C   UNL d   1      12.841  12.516  -3.722  0.00  0.00     0.022 C 
ENDROOT
BRANCH   1   9
ATOM      9  N   UNL d   1      13.485  13.464  -2.348  0.00  0.00    -0.216 NA
BRANCH   9  10
ATOM     10  C   UNL d   1      13.999  12.861  -2.118  0.00  0.00     0.180 A 
ATOM     11  N   UNL d   1      14.322  12.755  -1.370  0.00  0.00    -0.285 N 
ATOM     12  C   UNL d   1      14.800  12.087  -1.394  0.00  0.00     0.072 A 
ATOM     13  C   UNL d   1      15.232  11.781  -0.759  0.00  0.00     0.020 C 
ATOM     14  C   UNL d   1      14.776  11.780  -2.151  0.00  0.00     0.056 A 
ATOM     15  S   UNL d   1      14.280  12.255  -2.606  0.00  0.00    -0.048 SA
BRANCH  11  16
ATOM     16  C   UNL d   1      14.192  13.229  -0.714  0.00  0.00     0.082 C 
BRANCH  16  17
ATOM     17  C   UNL d   1      14.746  13.810  -0.494  0.00  0.00     0.018 A 
ATOM     18  C   UNL d   1      15.560  13.704  -0.373  0.00  0.00     0.002 A 
ATOM     19  C   UNL d   1      16.045  14.352  -0.151  0.00  0.00     0.000 A 
ATOM     20  C   UNL d   1      15.702  15.108  -0.053  0.00  0.00     0.000 A 
ATOM     21  C   UNL d   1      14.879  15.217  -0.176  0.00  0.00     0.000 A 
ATOM     22  C   UNL d   1      14.400  14.569  -0.397  0.00  0.00     0.002 A 
ENDBRANCH  16  17
ENDBRANCH  11  16
ENDBRANCH   9  10
ENDBRANCH   1   9
BRANCH   4  23
ATOM     23  C   UNL d   1      13.778  15.055  -4.748  0.00  0.00     0.085 A 
ATOM     24  C   UNL d   1      13.193  15.387  -5.213  0.00  0.00     0.019 A 
ATOM     25  C   UNL d   1      13.378  16.002  -5.723  0.00  0.00     0.002 A 
ATOM     26  C   UNL d   1      14.147  16.292  -5.774  0.00  0.00     0.000 A 
ATOM     27  C   UNL d   1      14.737  15.955  -5.302  0.00  0.00     0.002 A 
ATOM     28  C   UNL d   1      14.553  15.337  -4.789  0.00  0.00     0.019 A 
ENDBRANCH   4  23
TORSDOF 5
ENDMDL
