MODEL 1
REMARK VINA RESULT:       1.5      0.000      0.000
REMARK  7 active torsions:
REMARK  status: ('A' for Active; 'I' for Inactive)
REMARK    1  A    between atoms: C_12  and  C_1 
REMARK    2  A    between atoms: C_14  and  C_4 
REMARK       I    between atoms: C_10  and  N_9 
REMARK    3  A    between atoms: O_22  and  C_10 
REMARK    4  A    between atoms: O_23  and  C_12 
REMARK    5  A    between atoms: N_13  and  C_14 
REMARK    6  A    between atoms: C_27  and  O_22 
REMARK    7  A    between atoms: C_28  and  O_23 
ROOT
ATOM      1  C   UNL d   1      58.852  -0.017  29.642  0.00  0.00     0.088 A 
ATOM      2  C   UNL d   1      58.966   0.168  30.432  0.00  0.00     0.034 A 
ATOM      3  C   UNL d   1      59.781   0.171  30.591  0.00  0.00     0.100 A 
ATOM      4  C   UNL d   1      58.429   0.337  31.044  0.00  0.00     0.059 A 
ATOM      5  C   UNL d   1      59.609  -0.131  29.298  0.00  0.00     0.105 A 
ATOM      6  O   UNL d   1      60.172  -0.015  29.882  0.00  0.00    -0.307 OA
ATOM      7  C   UNL d   1      58.703   0.505  31.796  0.00  0.00     0.197 A 
ATOM      8  C   UNL d   1      60.047   0.342  31.352  0.00  0.00     0.026 A 
ATOM      9  C   UNL d   1      59.512   0.508  31.949  0.00  0.00     0.041 A 
ATOM     10  O   UNL d   1      58.170   0.675  32.410  0.00  0.00    -0.286 OA
ATOM     11  C   UNL d   1      59.751  -0.325  28.515  0.00  0.00     0.027 C 
ATOM     12  C   UNL d   1      60.860   0.345  31.507  0.00  0.00     0.002 A 
ATOM     13  C   UNL d   1      59.785   0.678  32.709  0.00  0.00     0.003 A 
ATOM     14  C   UNL d   1      60.587   0.681  32.863  0.00  0.00     0.000 A 
ATOM     15  C   UNL d   1      61.130   0.513  32.256  0.00  0.00     0.000 A 
ENDROOT
BRANCH   4  16
ATOM     16  C   UNL d   1      57.614   0.333  30.886  0.00  0.00     0.084 C 
BRANCH  16  17
ATOM     17  N   UNL d   1      57.088   0.062  31.469  0.00  0.00    -0.300 N 
ATOM     18  C   UNL d   1      56.767   0.598  32.006  0.00  0.00     0.100 A 
ATOM     19  C   UNL d   1      56.240   0.325  32.591  0.00  0.00     0.104 A 
ATOM     20  N   UNL d   1      56.046  -0.473  32.627  0.00  0.00    -0.249 N 
ATOM     21  C   UNL d   1      56.372  -1.006  32.085  0.00  0.00     0.104 A 
ATOM     22  C   UNL d   1      55.539  -0.735  33.191  0.00  0.00     0.378 C 
ATOM     23  C   UNL d   1      56.890  -0.738  31.510  0.00  0.00     0.100 A 
ATOM     24  O   UNL d   1      55.336  -1.534  33.238  0.00  0.00    -0.237 OA
BRANCH  22  25
ATOM     25  O   UNL d   1      55.207  -0.205  33.739  0.00  0.00    -0.257 OA
BRANCH  25  26
ATOM     26  C   UNL d   1      54.391  -0.231  33.878  0.00  0.00     0.128 C 
ATOM     27  C   UNL d   1      54.103  -0.079  34.639  0.00  0.00     0.029 C 
ENDBRANCH  25  26
ENDBRANCH  22  25
ENDBRANCH  16  17
ENDBRANCH   4  16
BRANCH   1  28
ATOM     28  C   UNL d   1      58.124  -0.075  29.269  0.00  0.00     0.302 C 
ATOM     29  O   UNL d   1      57.693   0.594  29.072  0.00  0.00    -0.259 OA
BRANCH  28  30
ATOM     30  O   UNL d   1      57.822  -0.827  29.089  0.00  0.00    -0.271 OA
BRANCH  30  31
ATOM     31  C   UNL d   1      58.318  -1.402  28.769  0.00  0.00     0.126 C 
ATOM     32  C   UNL d   1      58.106  -2.203  28.814  0.00  0.00     0.029 C 
ENDBRANCH  30  31
ENDBRANCH  28  30
ENDBRANCH   1  28
TORSDOF 7
ENDMDL
MODEL 2
REMARK VINA RESULT:       2.1      1.602      4.914
REMARK  7 active torsions:
REMARK  status: ('A' for Active; 'I' for Inactive)
REMARK    1  A    between atoms: C_12  and  C_1 
REMARK    2  A    between atoms: C_14  and  C_4 
REMARK       I    between atoms: C_10  and  N_9 
REMARK    3  A    between atoms: O_22  and  C_10 
REMARK    4  A    between atoms: O_23  and  C_12 
REMARK    5  A    between atoms: N_13  and  C_14 
REMARK    6  A    between atoms: C_27  and  O_22 
REMARK    7  A    between atoms: C_28  and  O_23 
ROOT
ATOM      1  C   UNL d   1      55.226   0.440  34.345  0.00  0.00     0.088 A 
ATOM      2  C   UNL d   1      56.037   0.480  34.237  0.00  0.00     0.034 A 
ATOM      3  C   UNL d   1      56.402   0.531  34.982  0.00  0.00     0.100 A 
ATOM      4  C   UNL d   1      56.505   0.477  33.551  0.00  0.00     0.059 A 
ATOM      5  C   UNL d   1      55.078   0.467  35.171  0.00  0.00     0.105 A 
ATOM      6  O   UNL d   1      55.800   0.522  35.554  0.00  0.00    -0.307 OA
ATOM      7  C   UNL d   1      57.319   0.524  33.609  0.00  0.00     0.197 A 
ATOM      8  C   UNL d   1      57.223   0.578  35.029  0.00  0.00     0.026 A 
ATOM      9  C   UNL d   1      57.678   0.575  34.348  0.00  0.00     0.041 A 
ATOM     10  O   UNL d   1      57.791   0.521  32.924  0.00  0.00    -0.286 OA
ATOM     11  C   UNL d   1      54.339   0.441  35.523  0.00  0.00     0.027 C 
ATOM     12  C   UNL d   1      57.585   0.629  35.771  0.00  0.00     0.002 A 
ATOM     13  C   UNL d   1      58.500   0.622  34.403  0.00  0.00     0.003 A 
ATOM     14  C   UNL d   1      58.857   0.673  35.135  0.00  0.00     0.000 A 
ATOM     15  C   UNL d   1      58.396   0.676  35.826  0.00  0.00     0.000 A 
ENDROOT
BRANCH   4  16
ATOM     16  C   UNL d   1      56.139   0.426  32.807  0.00  0.00     0.084 C 
BRANCH  16  17
ATOM     17  N   UNL d   1      56.575   0.140  32.159  0.00  0.00    -0.300 N 
ATOM     18  C   UNL d   1      56.978   0.672  31.675  0.00  0.00     0.100 A 
ATOM     19  C   UNL d   1      57.414   0.385  31.027  0.00  0.00     0.104 A 
ATOM     20  N   UNL d   1      57.440  -0.423  30.875  0.00  0.00    -0.249 N 
ATOM     21  C   UNL d   1      57.033  -0.951  31.366  0.00  0.00     0.104 A 
ATOM     22  C   UNL d   1      57.861  -0.698  30.251  0.00  0.00     0.378 C 
ATOM     23  C   UNL d   1      56.604  -0.669  32.004  0.00  0.00     0.100 A 
ATOM     24  O   UNL d   1      57.895  -1.508  30.088  0.00  0.00    -0.237 OA
BRANCH  22  25
ATOM     25  O   UNL d   1      58.271  -0.173  29.754  0.00  0.00    -0.257 OA
BRANCH  25  26
ATOM     26  C   UNL d   1      58.441  -0.406  28.978  0.00  0.00     0.128 C 
ATOM     27  C   UNL d   1      59.133  -0.134  28.614  0.00  0.00     0.029 C 
ENDBRANCH  25  26
ENDBRANCH  22  25
ENDBRANCH  16  17
ENDBRANCH   4  16
BRANCH   1  28
ATOM     28  C   UNL d   1      54.669   0.384  33.745  0.00  0.00     0.302 C 
ATOM     29  O   UNL d   1      54.823   0.681  32.996  0.00  0.00    -0.259 OA
BRANCH  28  30
ATOM     30  O   UNL d   1      53.941   0.021  33.902  0.00  0.00    -0.271 OA
BRANCH  30  31
ATOM     31  C   UNL d   1      53.240   0.385  33.663  0.00  0.00     0.126 C 
ATOM     32  C   UNL d   1      52.677   0.608  34.230  0.00  0.00     0.029 C 
ENDBRANCH  30  31
ENDBRANCH  28  30
ENDBRANCH   1  28
TORSDOF 7
ENDMDL
