MODEL 1
REMARK VINA RESULT:      56.8      0.000      0.000
REMARK  5 active torsions:
REMARK  status: ('A' for Active; 'I' for Inactive)
REMARK    1  A    between atoms: C_2  and  C_1 
REMARK    2  A    between atoms: C_5  and  C_2 
REMARK    3  A    between atoms: C_11  and  C_5 
REMARK    4  A    between atoms: C_10  and  C_12 
REMARK    5  A    between atoms: O_19  and  C_10 
ROOT
ATOM      1  C   UNL d   1     -55.756-102.039 -39.067  0.00  0.00     0.131 C 
ATOM      2  C   UNL d   1     -56.430-102.360 -39.441  0.00  0.00     0.106 C 
ATOM      3  N   UNL d   1     -57.066-102.660 -39.803  0.00  0.00    -0.191 NA
ENDROOT
BRANCH   1   4
ATOM      4  C   UNL d   1     -55.649-102.148 -38.272  0.00  0.00     0.123 A 
ATOM      5  N   UNL d   1     -56.132-101.830 -37.685  0.00  0.00    -0.238 NA
ATOM      6  C   UNL d   1     -55.820-102.082 -36.943  0.00  0.00     0.088 A 
ATOM      7  C   UNL d   1     -56.056-101.947 -36.190  0.00  0.00     0.020 A 
ATOM      8  C   UNL d   1     -55.155-102.547 -37.095  0.00  0.00     0.049 A 
ATOM      9  C   UNL d   1     -55.637-102.270 -35.574  0.00  0.00     0.002 A 
ATOM     10  C   UNL d   1     -54.954-102.746 -35.730  0.00  0.00     0.001 A 
ATOM     11  C   UNL d   1     -54.720-102.879 -36.497  0.00  0.00     0.008 A 
ATOM     12  S   UNL d   1     -55.055-102.583 -37.932  0.00  0.00    -0.066 SA
ENDBRANCH   1   4
BRANCH   1  13
ATOM     13  C   UNL d   1     -55.203-101.615 -39.504  0.00  0.00     0.207 C 
ATOM     14  O   UNL d   1     -54.715-101.060 -39.127  0.00  0.00    -0.286 OA
BRANCH  13  15
ATOM     15  C   UNL d   1     -55.130-101.744 -40.345  0.00  0.00     0.040 A 
ATOM     16  C   UNL d   1     -55.314-102.476 -40.660  0.00  0.00     0.003 A 
ATOM     17  C   UNL d   1     -55.244-102.601 -41.473  0.00  0.00     0.005 A 
ATOM     18  C   UNL d   1     -54.991-101.991 -41.956  0.00  0.00     0.063 A 
ATOM     19  C   UNL d   1     -54.805-101.251 -41.642  0.00  0.00     0.005 A 
ATOM     20  C   UNL d   1     -54.875-101.126 -40.829  0.00  0.00     0.003 A 
BRANCH  18  21
ATOM     21  C   UNL d   1     -54.918-102.119 -42.797  0.00  0.00     0.296 C 
ATOM     22  O   UNL d   1     -54.717-102.871 -43.083  0.00  0.00    -0.259 OA
BRANCH  21  23
ATOM     23  O   UNL d   1     -55.048-101.500 -43.322  0.00  0.00    -0.296 OA
ATOM     24  C   UNL d   1     -54.721-101.525 -44.080  0.00  0.00     0.185 C 
ENDBRANCH  21  23
ENDBRANCH  18  21
ENDBRANCH  13  15
ENDBRANCH   1  13
TORSDOF 5
ENDMDL
MODEL 2
REMARK VINA RESULT:      57.1      1.845      2.982
REMARK  5 active torsions:
REMARK  status: ('A' for Active; 'I' for Inactive)
REMARK    1  A    between atoms: C_2  and  C_1 
REMARK    2  A    between atoms: C_5  and  C_2 
REMARK    3  A    between atoms: C_11  and  C_5 
REMARK    4  A    between atoms: C_10  and  C_12 
REMARK    5  A    between atoms: O_19  and  C_10 
ROOT
ATOM      1  C   UNL d   1     -54.756-100.970 -41.470  0.00  0.00     0.131 C 
ATOM      2  C   UNL d   1     -54.761-100.139 -41.557  0.00  0.00     0.106 C 
ATOM      3  N   UNL d   1     -54.767 -99.353 -41.648  0.00  0.00    -0.191 NA
ENDROOT
BRANCH   1   4
ATOM      4  C   UNL d   1     -54.753-101.295 -40.728  0.00  0.00     0.123 A 
ATOM      5  N   UNL d   1     -54.766-100.865 -40.026  0.00  0.00    -0.238 NA
ATOM      6  C   UNL d   1     -54.758-101.422 -39.393  0.00  0.00     0.088 A 
ATOM      7  C   UNL d   1     -54.764-101.328 -38.598  0.00  0.00     0.020 A 
ATOM      8  C   UNL d   1     -54.740-102.178 -39.724  0.00  0.00     0.049 A 
ATOM      9  C   UNL d   1     -54.753-101.982 -38.116  0.00  0.00     0.002 A 
ATOM     10  C   UNL d   1     -54.735-102.758 -38.457  0.00  0.00     0.001 A 
ATOM     11  C   UNL d   1     -54.729-102.846 -39.264  0.00  0.00     0.008 A 
ATOM     12  S   UNL d   1     -54.737-102.089 -40.563  0.00  0.00    -0.066 SA
ENDBRANCH   1   4
BRANCH   1  13
ATOM     13  C   UNL d   1     -54.753-101.455 -42.134  0.00  0.00     0.207 C 
ATOM     14  O   UNL d   1     -54.719-102.279 -42.045  0.00  0.00    -0.286 OA
BRANCH  13  15
ATOM     15  C   UNL d   1     -54.786-101.113 -42.916  0.00  0.00     0.040 A 
ATOM     16  C   UNL d   1     -54.886-101.598 -43.567  0.00  0.00     0.003 A 
ATOM     17  C   UNL d   1     -54.917-101.267 -44.323  0.00  0.00     0.005 A 
ATOM     18  C   UNL d   1     -54.848-100.457 -44.413  0.00  0.00     0.063 A 
ATOM     19  C   UNL d   1     -54.748 -99.964 -43.759  0.00  0.00     0.005 A 
ATOM     20  C   UNL d   1     -54.716-100.295 -43.003  0.00  0.00     0.003 A 
BRANCH  18  21
ATOM     21  C   UNL d   1     -54.881-100.114 -45.195  0.00  0.00     0.296 C 
ATOM     22  O   UNL d   1     -54.787-100.598 -45.861  0.00  0.00    -0.259 OA
BRANCH  21  23
ATOM     23  O   UNL d   1     -55.004 -99.307 -45.286  0.00  0.00    -0.296 OA
ATOM     24  C   UNL d   1     -54.867 -98.947 -46.017  0.00  0.00     0.185 C 
ENDBRANCH  21  23
ENDBRANCH  18  21
ENDBRANCH  13  15
ENDBRANCH   1  13
TORSDOF 5
ENDMDL
