MODEL 1
REMARK VINA RESULT:      -3.9      0.000      0.000
REMARK  5 active torsions:
REMARK  status: ('A' for Active; 'I' for Inactive)
REMARK    1  A    between atoms: C_6  and  N_1 
REMARK    2  A    between atoms: C_11  and  C_6 
REMARK    3  A    between atoms: C_14  and  C_11 
REMARK    4  A    between atoms: C_12  and  O_13 
REMARK    5  A    between atoms: O_13  and  C_14 
ROOT
ATOM      1  C   UNL d   1      33.100  19.918 -21.954  0.00  0.00     0.238 C 
ATOM      2  O   UNL d   1      33.241  19.511 -21.250  0.00  0.00    -0.283 OA
ENDROOT
BRANCH   1   3
ATOM      3  C   UNL d   1      33.241  20.731 -22.001  0.00  0.00     0.126 C 
BRANCH   3   4
ATOM      4  N   UNL d   1      32.764  21.259 -21.572  0.00  0.00    -0.284 N 
ATOM      5  C   UNL d   1      32.258  21.066 -20.954  0.00  0.00     0.183 A 
ATOM      6  N   UNL d   1      31.893  21.756 -20.686  0.00  0.00    -0.224 NA
ATOM      7  C   UNL d   1      32.178  22.380 -21.143  0.00  0.00     0.099 A 
ATOM      8  C   UNL d   1      32.716  22.078 -21.690  0.00  0.00     0.083 A 
ATOM      9  C   UNL d   1      32.017  23.184 -21.130  0.00  0.00     0.021 A 
ATOM     10  C   UNL d   1      33.093  22.580 -22.226  0.00  0.00     0.019 A 
ATOM     11  C   UNL d   1      32.929  23.389 -22.212  0.00  0.00     0.002 A 
ATOM     12  C   UNL d   1      32.389  23.696 -21.663  0.00  0.00     0.002 A 
ENDBRANCH   3   4
ENDBRANCH   1   3
BRANCH   1  13
ATOM     13  C   UNL d   1      32.813  19.507 -22.624  0.00  0.00     0.166 C 
BRANCH  13  14
ATOM     14  O   UNL d   1      33.109  18.739 -22.805  0.00  0.00    -0.302 OA
BRANCH  14  15
ATOM     15  C   UNL d   1      32.775  18.277 -23.416  0.00  0.00     0.100 A 
ATOM     16  C   UNL d   1      32.349  17.611 -23.232  0.00  0.00     0.025 A 
ATOM     17  C   UNL d   1      32.016  17.150 -23.843  0.00  0.00     0.002 A 
ATOM     18  C   UNL d   1      31.569  16.467 -23.832  0.00  0.00     0.000 A 
ATOM     19  C   UNL d   1      32.122  17.375 -24.625  0.00  0.00     0.000 A 
ATOM     20  C   UNL d   1      31.399  16.269 -24.608  0.00  0.00     0.000 A 
ATOM     21  C   UNL d   1      31.739  16.827 -25.097  0.00  0.00     0.000 A 
ATOM     22  C   UNL d   1      32.562  18.061 -24.801  0.00  0.00     0.002 A 
ATOM     23  C   UNL d   1      32.882  18.502 -24.198  0.00  0.00     0.025 A 
ENDBRANCH  14  15
ENDBRANCH  13  14
ENDBRANCH   1  13
TORSDOF 5
ENDMDL
MODEL 2
REMARK VINA RESULT:      -3.2      1.944      5.252
REMARK  5 active torsions:
REMARK  status: ('A' for Active; 'I' for Inactive)
REMARK    1  A    between atoms: C_6  and  N_1 
REMARK    2  A    between atoms: C_11  and  C_6 
REMARK    3  A    between atoms: C_14  and  C_11 
REMARK    4  A    between atoms: C_12  and  O_13 
REMARK    5  A    between atoms: O_13  and  C_14 
ROOT
ATOM      1  C   UNL d   1      32.613  17.887 -23.574  0.00  0.00     0.238 C 
ATOM      2  O   UNL d   1      33.116  17.327 -23.234  0.00  0.00    -0.283 OA
ENDROOT
BRANCH   1   3
ATOM      3  C   UNL d   1      32.083  17.664 -24.168  0.00  0.00     0.126 C 
BRANCH   3   4
ATOM      4  N   UNL d   1      31.499  17.095 -24.009  0.00  0.00    -0.284 N 
ATOM      5  C   UNL d   1      31.570  16.450 -23.504  0.00  0.00     0.183 A 
ATOM      6  N   UNL d   1      30.860  16.030 -23.510  0.00  0.00    -0.224 NA
ATOM      7  C   UNL d   1      30.347  16.419 -24.024  0.00  0.00     0.099 A 
ATOM      8  C   UNL d   1      30.736  17.076 -24.334  0.00  0.00     0.083 A 
ATOM      9  C   UNL d   1      29.575  16.259 -24.249  0.00  0.00     0.021 A 
ATOM     10  C   UNL d   1      30.354  17.574 -24.870  0.00  0.00     0.019 A 
ATOM     11  C   UNL d   1      29.577  17.411 -25.096  0.00  0.00     0.002 A 
ATOM     12  C   UNL d   1      29.182  16.751 -24.785  0.00  0.00     0.002 A 
ENDBRANCH   3   4
ENDBRANCH   1   3
BRANCH   1  13
ATOM     13  C   UNL d   1      32.638  18.682 -23.316  0.00  0.00     0.166 C 
BRANCH  13  14
ATOM     14  O   UNL d   1      33.231  18.930 -22.773  0.00  0.00    -0.302 OA
BRANCH  14  15
ATOM     15  C   UNL d   1      33.229  19.700 -22.448  0.00  0.00     0.100 A 
ATOM     16  C   UNL d   1      33.215  19.798 -21.641  0.00  0.00     0.025 A 
ATOM     17  C   UNL d   1      33.213  20.567 -21.318  0.00  0.00     0.002 A 
ATOM     18  C   UNL d   1      33.201  20.837 -20.548  0.00  0.00     0.000 A 
ATOM     19  C   UNL d   1      33.224  21.219 -21.817  0.00  0.00     0.000 A 
ATOM     20  C   UNL d   1      33.204  21.655 -20.570  0.00  0.00     0.000 A 
ATOM     21  C   UNL d   1      33.219  21.891 -21.351  0.00  0.00     0.000 A 
ATOM     22  C   UNL d   1      33.238  21.104 -22.643  0.00  0.00     0.002 A 
ATOM     23  C   UNL d   1      33.240  20.351 -22.948  0.00  0.00     0.025 A 
ENDBRANCH  14  15
ENDBRANCH  13  14
ENDBRANCH   1  13
TORSDOF 5
ENDMDL
MODEL 3
REMARK VINA RESULT:      -1.0      1.523      5.458
REMARK  5 active torsions:
REMARK  status: ('A' for Active; 'I' for Inactive)
REMARK    1  A    between atoms: C_6  and  N_1 
REMARK    2  A    between atoms: C_11  and  C_6 
REMARK    3  A    between atoms: C_14  and  C_11 
REMARK    4  A    between atoms: C_12  and  O_13 
REMARK    5  A    between atoms: O_13  and  C_14 
ROOT
ATOM      1  C   UNL d   1      32.802  18.910 -22.726  0.00  0.00     0.238 C 
ATOM      2  O   UNL d   1      32.162  18.625 -22.290  0.00  0.00    -0.283 OA
ENDROOT
BRANCH   1   3
ATOM      3  C   UNL d   1      33.222  18.404 -23.228  0.00  0.00     0.126 C 
BRANCH   3   4
ATOM      4  N   UNL d   1      32.840  18.056 -23.879  0.00  0.00    -0.284 N 
ATOM      5  C   UNL d   1      32.376  18.444 -24.436  0.00  0.00     0.183 A 
ATOM      6  N   UNL d   1      32.106  17.891 -24.986  0.00  0.00    -0.224 NA
ATOM      7  C   UNL d   1      32.406  17.156 -24.764  0.00  0.00     0.099 A 
ATOM      8  C   UNL d   1      32.859  17.253 -24.082  0.00  0.00     0.083 A 
ATOM      9  C   UNL d   1      32.324  16.411 -25.097  0.00  0.00     0.021 A 
ATOM     10  C   UNL d   1      33.231  16.604 -23.732  0.00  0.00     0.019 A 
ATOM     11  C   UNL d   1      33.147  15.855 -24.068  0.00  0.00     0.002 A 
ATOM     12  C   UNL d   1      32.692  15.754 -24.754  0.00  0.00     0.002 A 
ENDBRANCH   3   4
ENDBRANCH   1   3
BRANCH   1  13
ATOM     13  C   UNL d   1      33.029  19.712 -22.661  0.00  0.00     0.166 C 
BRANCH  13  14
ATOM     14  O   UNL d   1      33.183  20.046 -21.903  0.00  0.00    -0.302 OA
BRANCH  14  15
ATOM     15  C   UNL d   1      33.132  20.869 -21.773  0.00  0.00     0.100 A 
ATOM     16  C   UNL d   1      33.206  21.383 -22.398  0.00  0.00     0.025 A 
ATOM     17  C   UNL d   1      33.154  22.206 -22.266  0.00  0.00     0.002 A 
ATOM     18  C   UNL d   1      33.205  22.845 -22.771  0.00  0.00     0.000 A 
ATOM     19  C   UNL d   1      33.029  22.489 -21.506  0.00  0.00     0.000 A 
ATOM     20  C   UNL d   1      33.112  23.524 -22.323  0.00  0.00     0.000 A 
ATOM     21  C   UNL d   1      33.003  23.306 -21.544  0.00  0.00     0.000 A 
ATOM     22  C   UNL d   1      32.955  21.951 -20.873  0.00  0.00     0.002 A 
ATOM     23  C   UNL d   1      33.007  21.152 -21.012  0.00  0.00     0.025 A 
ENDBRANCH  14  15
ENDBRANCH  13  14
ENDBRANCH   1  13
TORSDOF 5
ENDMDL
