MODEL 1
REMARK VINA RESULT:      -6.6      0.000      0.000
REMARK  0 active torsions:
REMARK  status: ('A' for Active; 'I' for Inactive)
ROOT
ATOM      1  C   UNL d   1     -41.497-123.316 -53.066  0.00  0.00     0.180 A 
ATOM      2  C   UNL d   1     -41.632-122.558 -52.752  0.00  0.00     0.118 A 
ATOM      3  N   UNL d   1     -41.852-121.939 -53.241  0.00  0.00    -0.241 NA
ATOM      4  N   UNL d   1     -41.286-123.817 -52.444  0.00  0.00    -0.225 NA
ATOM      5  N   UNL d   1     -41.586-123.439 -53.875  0.00  0.00    -0.224 NA
ATOM      6  C   UNL d   1     -41.502-122.600 -51.935  0.00  0.00     0.038 A 
ATOM      7  C   UNL d   1     -41.288-123.375 -51.743  0.00  0.00     0.085 A 
ATOM      8  C   UNL d   1     -41.939-122.070 -54.048  0.00  0.00     0.099 A 
ATOM      9  C   UNL d   1     -41.806-122.820 -54.364  0.00  0.00     0.101 A 
ATOM     10  C   UNL d   1     -41.552-122.025 -51.341  0.00  0.00     0.003 A 
ATOM     11  C   UNL d   1     -41.123-123.583 -50.953  0.00  0.00     0.019 A 
ATOM     12  C   UNL d   1     -42.159-121.454 -54.545  0.00  0.00     0.021 A 
ATOM     13  C   UNL d   1     -41.894-122.947 -55.169  0.00  0.00     0.021 A 
ATOM     14  C   UNL d   1     -41.387-122.234 -50.556  0.00  0.00     0.000 A 
ATOM     15  C   UNL d   1     -41.173-123.009 -50.363  0.00  0.00     0.002 A 
ATOM     16  C   UNL d   1     -42.247-121.580 -55.350  0.00  0.00     0.002 A 
ATOM     17  C   UNL d   1     -42.114-122.330 -55.665  0.00  0.00     0.002 A 
ENDROOT
TORSDOF 0
ENDMDL
MODEL 2
REMARK VINA RESULT:      -6.6      0.270      3.402
REMARK  0 active torsions:
REMARK  status: ('A' for Active; 'I' for Inactive)
ROOT
ATOM      1  C   UNL d   1     -41.501-123.307 -53.230  0.00  0.00     0.180 A 
ATOM      2  C   UNL d   1     -41.712-122.503 -53.249  0.00  0.00     0.118 A 
ATOM      3  N   UNL d   1     -41.726-122.061 -52.560  0.00  0.00    -0.241 NA
ATOM      4  N   UNL d   1     -41.538-123.600 -54.001  0.00  0.00    -0.225 NA
ATOM      5  N   UNL d   1     -41.305-123.656 -52.511  0.00  0.00    -0.224 NA
ATOM      6  C   UNL d   1     -41.878-122.308 -54.036  0.00  0.00     0.038 A 
ATOM      7  C   UNL d   1     -41.772-122.982 -54.502  0.00  0.00     0.085 A 
ATOM      8  C   UNL d   1     -41.528-122.417 -51.845  0.00  0.00     0.099 A 
ATOM      9  C   UNL d   1     -41.318-123.214 -51.822  0.00  0.00     0.101 A 
ATOM     10  C   UNL d   1     -42.114-121.595 -54.387  0.00  0.00     0.003 A 
ATOM     11  C   UNL d   1     -41.900-122.951 -55.325  0.00  0.00     0.019 A 
ATOM     12  C   UNL d   1     -41.540-121.980 -51.149  0.00  0.00     0.021 A 
ATOM     13  C   UNL d   1     -41.123-123.565 -51.107  0.00  0.00     0.021 A 
ATOM     14  C   UNL d   1     -42.242-121.566 -55.206  0.00  0.00     0.000 A 
ATOM     15  C   UNL d   1     -42.136-122.240 -55.672  0.00  0.00     0.002 A 
ATOM     16  C   UNL d   1     -41.344-122.331 -50.434  0.00  0.00     0.002 A 
ATOM     17  C   UNL d   1     -41.134-123.127 -50.412  0.00  0.00     0.002 A 
ENDROOT
TORSDOF 0
ENDMDL
MODEL 3
REMARK VINA RESULT:      -6.1      0.597      1.375
REMARK  0 active torsions:
REMARK  status: ('A' for Active; 'I' for Inactive)
ROOT
ATOM      1  C   UNL d   1     -41.719-121.981 -52.430  0.00  0.00     0.180 A 
ATOM      2  C   UNL d   1     -41.507-122.785 -52.436  0.00  0.00     0.118 A 
ATOM      3  N   UNL d   1     -41.441-123.192 -53.143  0.00  0.00    -0.241 NA
ATOM      4  N   UNL d   1     -41.740-121.727 -51.645  0.00  0.00    -0.225 NA
ATOM      5  N   UNL d   1     -41.861-121.596 -53.145  0.00  0.00    -0.224 NA
ATOM      6  C   UNL d   1     -41.400-123.019 -51.649  0.00  0.00     0.038 A 
ATOM      7  C   UNL d   1     -41.543-122.368 -51.159  0.00  0.00     0.085 A 
ATOM      8  C   UNL d   1     -41.585-122.801 -53.852  0.00  0.00     0.099 A 
ATOM      9  C   UNL d   1     -41.795-122.004 -53.852  0.00  0.00     0.101 A 
ATOM     10  C   UNL d   1     -41.189-123.748 -51.317  0.00  0.00     0.003 A 
ATOM     11  C   UNL d   1     -41.476-122.440 -50.332  0.00  0.00     0.019 A 
ATOM     12  C   UNL d   1     -41.520-123.204 -54.565  0.00  0.00     0.021 A 
ATOM     13  C   UNL d   1     -41.937-121.618 -54.560  0.00  0.00     0.021 A 
ATOM     14  C   UNL d   1     -41.123-123.817 -50.493  0.00  0.00     0.000 A 
ATOM     15  C   UNL d   1     -41.266-123.168 -50.003  0.00  0.00     0.002 A 
ATOM     16  C   UNL d   1     -41.663-122.818 -55.275  0.00  0.00     0.002 A 
ATOM     17  C   UNL d   1     -41.873-122.022 -55.274  0.00  0.00     0.002 A 
ENDROOT
TORSDOF 0
ENDMDL
MODEL 4
REMARK VINA RESULT:      -6.1      0.605      3.671
REMARK  0 active torsions:
REMARK  status: ('A' for Active; 'I' for Inactive)
ROOT
ATOM      1  C   UNL d   1     -41.714-122.037 -52.589  0.00  0.00     0.180 A 
ATOM      2  C   UNL d   1     -41.510-122.796 -52.860  0.00  0.00     0.118 A 
ATOM      3  N   UNL d   1     -41.314-123.387 -52.328  0.00  0.00    -0.241 NA
ATOM      4  N   UNL d   1     -41.881-121.567 -53.248  0.00  0.00    -0.225 NA
ATOM      5  N   UNL d   1     -41.719-121.884 -51.780  0.00  0.00    -0.224 NA
ATOM      6  C   UNL d   1     -41.553-122.786 -53.686  0.00  0.00     0.038 A 
ATOM      7  C   UNL d   1     -41.782-122.030 -53.929  0.00  0.00     0.085 A 
ATOM      8  C   UNL d   1     -41.320-123.227 -51.521  0.00  0.00     0.099 A 
ATOM      9  C   UNL d   1     -41.523-122.476 -51.249  0.00  0.00     0.101 A 
ATOM     10  C   UNL d   1     -41.411-123.376 -54.251  0.00  0.00     0.003 A 
ATOM     11  C   UNL d   1     -41.872-121.855 -54.738  0.00  0.00     0.019 A 
ATOM     12  C   UNL d   1     -41.125-123.816 -50.982  0.00  0.00     0.021 A 
ATOM     13  C   UNL d   1     -41.528-122.321 -50.445  0.00  0.00     0.021 A 
ATOM     14  C   UNL d   1     -41.501-123.199 -55.057  0.00  0.00     0.000 A 
ATOM     15  C   UNL d   1     -41.730-122.444 -55.298  0.00  0.00     0.002 A 
ATOM     16  C   UNL d   1     -41.130-123.661 -50.177  0.00  0.00     0.002 A 
ATOM     17  C   UNL d   1     -41.333-122.910 -49.906  0.00  0.00     0.002 A 
ENDROOT
TORSDOF 0
ENDMDL
MODEL 5
REMARK VINA RESULT:      -3.8      1.339      2.026
REMARK  0 active torsions:
REMARK  status: ('A' for Active; 'I' for Inactive)
ROOT
ATOM      1  C   UNL d   1     -41.442-123.339 -51.065  0.00  0.00     0.180 A 
ATOM      2  C   UNL d   1     -42.058-122.804 -50.905  0.00  0.00     0.118 A 
ATOM      3  N   UNL d   1     -42.357-122.325 -51.498  0.00  0.00    -0.241 NA
ATOM      4  N   UNL d   1     -41.263-123.740 -50.366  0.00  0.00    -0.225 NA
ATOM      5  N   UNL d   1     -41.134-123.382 -51.828  0.00  0.00    -0.224 NA
ATOM      6  C   UNL d   1     -42.254-122.882 -50.104  0.00  0.00     0.038 A 
ATOM      7  C   UNL d   1     -41.764-123.458 -49.769  0.00  0.00     0.085 A 
ATOM      8  C   UNL d   1     -42.043-122.374 -52.257  0.00  0.00     0.099 A 
ATOM      9  C   UNL d   1     -41.432-122.903 -52.420  0.00  0.00     0.101 A 
ATOM     10  C   UNL d   1     -42.819-122.497 -49.637  0.00  0.00     0.003 A 
ATOM     11  C   UNL d   1     -41.836-123.655 -48.963  0.00  0.00     0.019 A 
ATOM     12  C   UNL d   1     -42.338-121.896 -52.857  0.00  0.00     0.021 A 
ATOM     13  C   UNL d   1     -41.123-122.949 -53.177  0.00  0.00     0.021 A 
ATOM     14  C   UNL d   1     -42.888-122.695 -48.834  0.00  0.00     0.000 A 
ATOM     15  C   UNL d   1     -42.400-123.270 -48.500  0.00  0.00     0.002 A 
ATOM     16  C   UNL d   1     -42.029-121.942 -53.615  0.00  0.00     0.002 A 
ATOM     17  C   UNL d   1     -41.418-122.471 -53.777  0.00  0.00     0.002 A 
ENDROOT
TORSDOF 0
ENDMDL
MODEL 6
REMARK VINA RESULT:      -3.7      1.486      4.202
REMARK  0 active torsions:
REMARK  status: ('A' for Active; 'I' for Inactive)
ROOT
ATOM      1  C   UNL d   1     -42.250-122.284 -50.904  0.00  0.00     0.180 A 
ATOM      2  C   UNL d   1     -41.694-122.850 -51.150  0.00  0.00     0.118 A 
ATOM      3  N   UNL d   1     -41.353-123.360 -50.608  0.00  0.00    -0.241 NA
ATOM      4  N   UNL d   1     -42.492-121.857 -51.568  0.00  0.00    -0.225 NA
ATOM      5  N   UNL d   1     -42.456-122.239 -50.108  0.00  0.00    -0.224 NA
ATOM      6  C   UNL d   1     -41.598-122.767 -51.968  0.00  0.00     0.038 A 
ATOM      7  C   UNL d   1     -42.090-122.155 -52.229  0.00  0.00     0.085 A 
ATOM      8  C   UNL d   1     -41.563-123.309 -49.814  0.00  0.00     0.099 A 
ATOM      9  C   UNL d   1     -42.114-122.748 -49.565  0.00  0.00     0.101 A 
ATOM     10  C   UNL d   1     -41.123-123.174 -52.510  0.00  0.00     0.003 A 
ATOM     11  C   UNL d   1     -42.110-121.944 -53.034  0.00  0.00     0.019 A 
ATOM     12  C   UNL d   1     -41.224-123.818 -49.264  0.00  0.00     0.021 A 
ATOM     13  C   UNL d   1     -42.321-122.701 -48.774  0.00  0.00     0.021 A 
ATOM     14  C   UNL d   1     -41.144-122.963 -53.312  0.00  0.00     0.000 A 
ATOM     15  C   UNL d   1     -41.635-122.352 -53.572  0.00  0.00     0.002 A 
ATOM     16  C   UNL d   1     -41.431-123.770 -48.472  0.00  0.00     0.002 A 
ATOM     17  C   UNL d   1     -41.982-123.210 -48.224  0.00  0.00     0.002 A 
ENDROOT
TORSDOF 0
ENDMDL
