MODEL 1
REMARK VINA RESULT:      -3.8      0.000      0.000
REMARK  4 active torsions:
REMARK  status: ('A' for Active; 'I' for Inactive)
REMARK    1  A    between atoms: C_11  and  C_1 
REMARK    2  A    between atoms: C_6  and  C_17 
REMARK       I    between atoms: N_10  and  C_6 
REMARK    3  A    between atoms: C_17  and  N_8 
REMARK    4  A    between atoms: C_15  and  N_10 
ROOT
ATOM      1  N   UNL d   1      33.182  18.958 -23.103  0.00  0.00    -0.299 N 
ATOM      2  C   UNL d   1      33.068  20.365 -22.265  0.00  0.00     0.039 A 
ATOM      3  C   UNL d   1      33.176  19.653 -21.864  0.00  0.00     0.022 A 
ATOM      4  C   UNL d   1      33.017  20.380 -23.083  0.00  0.00     0.022 A 
ATOM      5  C   UNL d   1      33.074  19.672 -23.504  0.00  0.00     0.081 A 
ATOM      6  C   UNL d   1      33.233  18.955 -22.279  0.00  0.00     0.081 A 
ENDROOT
BRANCH   1   7
ATOM      7  C   UNL d   1      33.239  18.250 -23.525  0.00  0.00     0.144 C 
BRANCH   7   8
ATOM      8  C   UNL d   1      32.602  17.721 -23.534  0.00  0.00     0.297 C 
ATOM      9  N   UNL d   1      32.235  17.560 -24.237  0.00  0.00    -0.207 NA
ATOM     10  O   UNL d   1      32.347  17.369 -22.846  0.00  0.00    -0.264 OA
BRANCH   9  11
ATOM     11  C   UNL d   1      31.597  17.035 -24.259  0.00  0.00     0.087 A 
ATOM     12  C   UNL d   1      30.842  17.326 -24.338  0.00  0.00     0.045 A 
ATOM     13  C   UNL d   1      30.205  16.801 -24.360  0.00  0.00     0.121 A 
ATOM     14  O   UNL d   1      29.393  16.916 -24.434  0.00  0.00    -0.299 OA
ATOM     15  C   UNL d   1      30.334  15.995 -24.301  0.00  0.00     0.119 A 
ATOM     16  C   UNL d   1      29.022  16.181 -24.420  0.00  0.00     0.304 A 
ATOM     17  O   UNL d   1      29.608  15.609 -24.338  0.00  0.00    -0.300 OA
ATOM     18  C   UNL d   1      31.109  15.711 -24.220  0.00  0.00     0.028 A 
ATOM     19  C   UNL d   1      31.738  16.235 -24.199  0.00  0.00     0.021 A 
ENDBRANCH   9  11
ENDBRANCH   7   8
ENDBRANCH   1   7
BRANCH   2  20
ATOM     20  C   UNL d   1      33.011  21.074 -21.843  0.00  0.00     0.163 A 
ATOM     21  N   UNL d   1      33.241  21.815 -22.101  0.00  0.00    -0.225 NA
ATOM     22  C   UNL d   1      33.084  22.359 -21.505  0.00  0.00     0.101 A 
ATOM     23  C   UNL d   1      33.201  23.174 -21.459  0.00  0.00     0.021 A 
ATOM     24  C   UNL d   1      32.752  21.948 -20.869  0.00  0.00     0.101 A 
ATOM     25  C   UNL d   1      32.986  23.579 -20.778  0.00  0.00     0.002 A 
ATOM     26  C   UNL d   1      32.653  23.172 -20.140  0.00  0.00     0.002 A 
ATOM     27  C   UNL d   1      32.537  22.360 -20.183  0.00  0.00     0.021 A 
ATOM     28  N   UNL d   1      32.706  21.152 -21.076  0.00  0.00    -0.225 NA
ENDBRANCH   2  20
TORSDOF 4
ENDMDL
MODEL 2
REMARK VINA RESULT:      -1.8      2.357      6.351
REMARK  4 active torsions:
REMARK  status: ('A' for Active; 'I' for Inactive)
REMARK    1  A    between atoms: C_11  and  C_1 
REMARK    2  A    between atoms: C_6  and  C_17 
REMARK       I    between atoms: N_10  and  C_6 
REMARK    3  A    between atoms: C_17  and  N_8 
REMARK    4  A    between atoms: C_15  and  N_10 
ROOT
ATOM      1  N   UNL d   1      33.000  20.922 -22.582  0.00  0.00    -0.299 N 
ATOM      2  C   UNL d   1      32.770  19.335 -22.930  0.00  0.00     0.039 A 
ATOM      3  C   UNL d   1      32.586  19.624 -22.179  0.00  0.00     0.022 A 
ATOM      4  C   UNL d   1      33.068  19.833 -23.508  0.00  0.00     0.022 A 
ATOM      5  C   UNL d   1      33.184  20.632 -23.332  0.00  0.00     0.081 A 
ATOM      6  C   UNL d   1      32.701  20.412 -22.007  0.00  0.00     0.081 A 
ENDROOT
BRANCH   1   7
ATOM      7  C   UNL d   1      33.117  21.722 -22.407  0.00  0.00     0.144 C 
BRANCH   7   8
ATOM      8  C   UNL d   1      32.772  22.051 -21.729  0.00  0.00     0.297 C 
ATOM      9  N   UNL d   1      33.241  22.456 -21.208  0.00  0.00    -0.207 NA
ATOM     10  O   UNL d   1      31.975  21.967 -21.588  0.00  0.00    -0.264 OA
BRANCH   9  11
ATOM     11  C   UNL d   1      32.908  22.788 -20.528  0.00  0.00     0.087 A 
ATOM     12  C   UNL d   1      33.229  22.615 -19.801  0.00  0.00     0.045 A 
ATOM     13  C   UNL d   1      32.897  22.947 -19.121  0.00  0.00     0.121 A 
ATOM     14  O   UNL d   1      33.088  22.883 -18.322  0.00  0.00    -0.299 OA
ATOM     15  C   UNL d   1      32.251  23.446 -19.180  0.00  0.00     0.119 A 
ATOM     16  C   UNL d   1      32.559  23.343 -17.890  0.00  0.00     0.304 A 
ATOM     17  O   UNL d   1      32.039  23.692 -18.424  0.00  0.00    -0.300 OA
ATOM     18  C   UNL d   1      31.934  23.615 -19.928  0.00  0.00     0.028 A 
ATOM     19  C   UNL d   1      32.266  23.283 -20.599  0.00  0.00     0.021 A 
ENDBRANCH   9  11
ENDBRANCH   7   8
ENDBRANCH   1   7
BRANCH   2  20
ATOM     20  C   UNL d   1      32.654  18.535 -23.105  0.00  0.00     0.163 A 
ATOM     21  N   UNL d   1      32.015  18.210 -23.497  0.00  0.00    -0.225 NA
ATOM     22  C   UNL d   1      32.127  17.397 -23.551  0.00  0.00     0.101 A 
ATOM     23  C   UNL d   1      31.667  16.799 -23.884  0.00  0.00     0.021 A 
ATOM     24  C   UNL d   1      32.847  17.217 -23.186  0.00  0.00     0.101 A 
ATOM     25  C   UNL d   1      31.927  16.020 -23.852  0.00  0.00     0.002 A 
ATOM     26  C   UNL d   1      32.646  15.836 -23.488  0.00  0.00     0.002 A 
ATOM     27  C   UNL d   1      33.105  16.431 -23.156  0.00  0.00     0.021 A 
ATOM     28  N   UNL d   1      33.174  17.921 -22.909  0.00  0.00    -0.225 NA
ENDBRANCH   2  20
TORSDOF 4
ENDMDL
MODEL 3
REMARK VINA RESULT:      -1.7      1.861      6.060
REMARK  4 active torsions:
REMARK  status: ('A' for Active; 'I' for Inactive)
REMARK    1  A    between atoms: C_11  and  C_1 
REMARK    2  A    between atoms: C_6  and  C_17 
REMARK       I    between atoms: N_10  and  C_6 
REMARK    3  A    between atoms: C_17  and  N_8 
REMARK    4  A    between atoms: C_15  and  N_10 
ROOT
ATOM      1  N   UNL d   1      32.595  18.631 -23.574  0.00  0.00    -0.299 N 
ATOM      2  C   UNL d   1      31.312  17.649 -23.865  0.00  0.00     0.039 A 
ATOM      3  C   UNL d   1      31.463  18.291 -24.362  0.00  0.00     0.022 A 
ATOM      4  C   UNL d   1      31.798  17.495 -23.224  0.00  0.00     0.022 A 
ATOM      5  C   UNL d   1      32.443  17.989 -23.077  0.00  0.00     0.081 A 
ATOM      6  C   UNL d   1      32.099  18.778 -24.217  0.00  0.00     0.081 A 
ENDROOT
BRANCH   1   7
ATOM      7  C   UNL d   1      33.241  19.126 -23.426  0.00  0.00     0.144 C 
BRANCH   7   8
ATOM      8  C   UNL d   1      33.116  19.896 -23.149  0.00  0.00     0.297 C 
ATOM      9  N   UNL d   1      33.137  20.034 -22.352  0.00  0.00    -0.207 NA
ATOM     10  O   UNL d   1      32.975  20.506 -23.670  0.00  0.00    -0.264 OA
BRANCH   9  11
ATOM     11  C   UNL d   1      33.014  20.799 -22.063  0.00  0.00     0.087 A 
ATOM     12  C   UNL d   1      32.721  20.899 -21.310  0.00  0.00     0.045 A 
ATOM     13  C   UNL d   1      32.599  21.663 -21.022  0.00  0.00     0.121 A 
ATOM     14  O   UNL d   1      32.315  21.946 -20.302  0.00  0.00    -0.299 OA
ATOM     15  C   UNL d   1      32.771  22.312 -21.489  0.00  0.00     0.119 A 
ATOM     16  C   UNL d   1      32.313  22.768 -20.326  0.00  0.00     0.304 A 
ATOM     17  O   UNL d   1      32.597  22.996 -21.065  0.00  0.00    -0.300 OA
ATOM     18  C   UNL d   1      33.070  22.196 -22.254  0.00  0.00     0.028 A 
ATOM     19  C   UNL d   1      33.190  21.437 -22.537  0.00  0.00     0.021 A 
ENDBRANCH   9  11
ENDBRANCH   7   8
ENDBRANCH   1   7
BRANCH   2  20
ATOM     20  C   UNL d   1      30.666  17.155 -24.013  0.00  0.00     0.163 A 
ATOM     21  N   UNL d   1      30.533  16.713 -24.688  0.00  0.00    -0.225 NA
ATOM     22  C   UNL d   1      29.826  16.304 -24.598  0.00  0.00     0.101 A 
ATOM     23  C   UNL d   1      29.425  15.783 -25.095  0.00  0.00     0.021 A 
ATOM     24  C   UNL d   1      29.516  16.495 -23.855  0.00  0.00     0.101 A 
ATOM     25  C   UNL d   1      28.714  15.453 -24.851  0.00  0.00     0.002 A 
ATOM     26  C   UNL d   1      28.400  15.641 -24.109  0.00  0.00     0.002 A 
ATOM     27  C   UNL d   1      28.799  16.160 -23.613  0.00  0.00     0.021 A 
ATOM     28  N   UNL d   1      30.035  17.022 -23.492  0.00  0.00    -0.225 NA
ENDBRANCH   2  20
TORSDOF 4
ENDMDL
MODEL 4
REMARK VINA RESULT:      -1.4      1.138      1.786
REMARK  4 active torsions:
REMARK  status: ('A' for Active; 'I' for Inactive)
REMARK    1  A    between atoms: C_11  and  C_1 
REMARK    2  A    between atoms: C_6  and  C_17 
REMARK       I    between atoms: N_10  and  C_6 
REMARK    3  A    between atoms: C_17  and  N_8 
REMARK    4  A    between atoms: C_15  and  N_10 
ROOT
ATOM      1  N   UNL d   1      32.926  20.426 -22.720  0.00  0.00    -0.299 N 
ATOM      2  C   UNL d   1      32.977  21.359 -21.371  0.00  0.00     0.039 A 
ATOM      3  C   UNL d   1      32.777  20.561 -21.314  0.00  0.00     0.022 A 
ATOM      4  C   UNL d   1      33.153  21.694 -22.097  0.00  0.00     0.022 A 
ATOM      5  C   UNL d   1      33.127  21.225 -22.776  0.00  0.00     0.081 A 
ATOM      6  C   UNL d   1      32.752  20.098 -21.983  0.00  0.00     0.081 A 
ENDROOT
BRANCH   1   7
ATOM      7  C   UNL d   1      32.901  19.956 -23.400  0.00  0.00     0.144 C 
BRANCH   7   8
ATOM      8  C   UNL d   1      32.846  19.133 -23.331  0.00  0.00     0.297 C 
ATOM      9  N   UNL d   1      32.397  18.723 -23.866  0.00  0.00    -0.207 NA
ATOM     10  O   UNL d   1      33.236  18.740 -22.734  0.00  0.00    -0.264 OA
BRANCH   9  11
ATOM     11  C   UNL d   1      32.334  17.901 -23.808  0.00  0.00     0.087 A 
ATOM     12  C   UNL d   1      31.598  17.560 -23.752  0.00  0.00     0.045 A 
ATOM     13  C   UNL d   1      31.536  16.738 -23.693  0.00  0.00     0.121 A 
ATOM     14  O   UNL d   1      30.887  16.234 -23.630  0.00  0.00    -0.299 OA
ATOM     15  C   UNL d   1      32.209  16.273 -23.692  0.00  0.00     0.119 A 
ATOM     16  C   UNL d   1      31.161  15.459 -23.590  0.00  0.00     0.304 A 
ATOM     17  O   UNL d   1      31.984  15.484 -23.629  0.00  0.00    -0.300 OA
ATOM     18  C   UNL d   1      32.953  16.634 -23.750  0.00  0.00     0.028 A 
ATOM     19  C   UNL d   1      33.011  17.449 -23.807  0.00  0.00     0.021 A 
ENDBRANCH   9  11
ENDBRANCH   7   8
ENDBRANCH   1   7
BRANCH   2  20
ATOM     20  C   UNL d   1      33.003  21.828 -20.691  0.00  0.00     0.163 A 
ATOM     21  N   UNL d   1      33.160  21.576 -19.929  0.00  0.00    -0.225 NA
ATOM     22  C   UNL d   1      33.129  22.226 -19.427  0.00  0.00     0.101 A 
ATOM     23  C   UNL d   1      33.241  22.298 -18.613  0.00  0.00     0.021 A 
ATOM     24  C   UNL d   1      32.950  22.891 -19.884  0.00  0.00     0.101 A 
ATOM     25  C   UNL d   1      33.174  23.035 -18.256  0.00  0.00     0.002 A 
ATOM     26  C   UNL d   1      32.995  23.702 -18.710  0.00  0.00     0.002 A 
ATOM     27  C   UNL d   1      32.883  23.632 -19.521  0.00  0.00     0.021 A 
ATOM     28  N   UNL d   1      32.872  22.647 -20.667  0.00  0.00    -0.225 NA
ENDBRANCH   2  20
TORSDOF 4
ENDMDL
