MODEL 1
REMARK VINA RESULT:      -7.3      0.000      0.000
REMARK  2 active torsions:
REMARK  status: ('A' for Active; 'I' for Inactive)
REMARK       I    between atoms: N_3  and  C_1 
REMARK       I    between atoms: N_4  and  C_1 
REMARK       I    between atoms: C_2  and  N_5 
REMARK       I    between atoms: N_6  and  C_2 
REMARK    1  A    between atoms: C_13  and  N_4 
REMARK    2  A    between atoms: C_14  and  N_4 
ROOT
ATOM      1  C   UNL d   1     -47.797  13.587  22.986  0.00  0.00     0.339 C 
ATOM      2  C   UNL d   1     -46.256  10.702  23.417  0.00  0.00     0.340 C 
ATOM      3  N   UNL d   1     -47.405  12.855  23.095  0.00  0.00    -0.254 N 
ATOM      4  N   UNL d   1     -48.617  13.610  22.915  0.00  0.00    -0.260 N 
ATOM      5  N   UNL d   1     -46.638  11.424  23.309  0.00  0.00    -0.254 N 
ATOM      6  N   UNL d   1     -45.434  10.675  23.488  0.00  0.00    -0.253 N 
ATOM      7  O   UNL d   1     -47.356  14.290  22.949  0.00  0.00    -0.245 OA
ATOM      8  O   UNL d   1     -46.694  10.009  23.453  0.00  0.00    -0.245 OA
ATOM      9  C   UNL d   1     -46.571  12.850  23.166  0.00  0.00     0.104 A 
ATOM     10  C   UNL d   1     -47.835  12.168  23.132  0.00  0.00     0.104 A 
ATOM     11  C   UNL d   1     -47.451  11.450  23.239  0.00  0.00     0.104 A 
ATOM     12  C   UNL d   1     -46.187  12.133  23.273  0.00  0.00     0.104 A 
ATOM     13  O   UNL d   1     -43.788  10.620  23.631  0.00  0.00    -0.300 OA
ATOM     14  C   UNL d   1     -45.055   9.951  23.596  0.00  0.00     0.111 A 
ATOM     15  C   UNL d   1     -44.996  11.376  23.451  0.00  0.00     0.111 A 
ATOM     16  C   UNL d   1     -44.171  11.343  23.524  0.00  0.00     0.142 A 
ATOM     17  C   UNL d   1     -44.235   9.919  23.668  0.00  0.00     0.142 A 
ENDROOT
BRANCH   4  18
ATOM     18  C   UNL d   1     -49.007  14.338  22.807  0.00  0.00     0.068 A 
ATOM     19  C   UNL d   1     -49.242  14.783  23.470  0.00  0.00     0.018 A 
ATOM     20  C   UNL d   1     -49.628  15.504  23.363  0.00  0.00     0.002 A 
ATOM     21  C   UNL d   1     -49.780  15.780  22.599  0.00  0.00     0.000 A 
ATOM     22  C   UNL d   1     -49.545  15.336  21.938  0.00  0.00     0.002 A 
ATOM     23  C   UNL d   1     -49.158  14.615  22.046  0.00  0.00     0.018 A 
ENDBRANCH   4  18
BRANCH   4  24
ATOM     24  C   UNL d   1     -49.055  12.918  22.951  0.00  0.00     0.068 A 
ATOM     25  C   UNL d   1     -49.335  12.639  23.673  0.00  0.00     0.018 A 
ATOM     26  C   UNL d   1     -49.771  11.949  23.698  0.00  0.00     0.002 A 
ATOM     27  C   UNL d   1     -49.934  11.527  23.008  0.00  0.00     0.000 A 
ATOM     28  C   UNL d   1     -49.649  11.811  22.281  0.00  0.00     0.002 A 
ATOM     29  C   UNL d   1     -49.210  12.506  22.253  0.00  0.00     0.018 A 
ENDBRANCH   4  24
TORSDOF 2
ENDMDL
MODEL 2
REMARK VINA RESULT:      -6.8      7.787      9.987
REMARK  2 active torsions:
REMARK  status: ('A' for Active; 'I' for Inactive)
REMARK       I    between atoms: N_3  and  C_1 
REMARK       I    between atoms: N_4  and  C_1 
REMARK       I    between atoms: C_2  and  N_5 
REMARK       I    between atoms: N_6  and  C_2 
REMARK    1  A    between atoms: C_13  and  N_4 
REMARK    2  A    between atoms: C_14  and  N_4 
ROOT
ATOM      1  C   UNL d   1     -38.782  14.706  20.578  0.00  0.00     0.339 C 
ATOM      2  C   UNL d   1     -39.800  15.615  17.574  0.00  0.00     0.340 C 
ATOM      3  N   UNL d   1     -39.040  14.937  19.816  0.00  0.00    -0.254 N 
ATOM      4  N   UNL d   1     -39.318  14.673  21.202  0.00  0.00    -0.260 N 
ATOM      5  N   UNL d   1     -39.543  15.388  18.324  0.00  0.00    -0.254 N 
ATOM      6  N   UNL d   1     -39.265  15.649  16.947  0.00  0.00    -0.253 N 
ATOM      7  O   UNL d   1     -37.984  14.511  20.703  0.00  0.00    -0.245 OA
ATOM      8  O   UNL d   1     -40.588  15.807  17.454  0.00  0.00    -0.245 OA
ATOM      9  C   UNL d   1     -38.482  14.965  19.192  0.00  0.00     0.104 A 
ATOM     10  C   UNL d   1     -39.819  15.128  19.693  0.00  0.00     0.104 A 
ATOM     11  C   UNL d   1     -40.071  15.354  18.945  0.00  0.00     0.104 A 
ATOM     12  C   UNL d   1     -38.734  15.191  18.445  0.00  0.00     0.104 A 
ATOM     13  O   UNL d   1     -38.197  15.719  15.687  0.00  0.00    -0.300 OA
ATOM     14  C   UNL d   1     -39.526  15.877  16.198  0.00  0.00     0.111 A 
ATOM     15  C   UNL d   1     -38.472  15.455  17.072  0.00  0.00     0.111 A 
ATOM     16  C   UNL d   1     -37.940  15.491  16.437  0.00  0.00     0.142 A 
ATOM     17  C   UNL d   1     -38.997  15.913  15.568  0.00  0.00     0.142 A 
ENDROOT
BRANCH   4  18
ATOM     18  C   UNL d   1     -39.062  14.444  21.961  0.00  0.00     0.068 A 
ATOM     19  C   UNL d   1     -38.971  15.019  22.557  0.00  0.00     0.018 A 
ATOM     20  C   UNL d   1     -38.718  14.792  23.309  0.00  0.00     0.002 A 
ATOM     21  C   UNL d   1     -38.555  13.997  23.466  0.00  0.00     0.000 A 
ATOM     22  C   UNL d   1     -38.646  13.425  22.872  0.00  0.00     0.002 A 
ATOM     23  C   UNL d   1     -38.900  13.652  22.120  0.00  0.00     0.018 A 
ENDBRANCH   4  18
BRANCH   4  24
ATOM     24  C   UNL d   1     -40.106  14.865  21.082  0.00  0.00     0.068 A 
ATOM     25  C   UNL d   1     -40.650  14.283  20.877  0.00  0.00     0.018 A 
ATOM     26  C   UNL d   1     -41.432  14.485  20.760  0.00  0.00     0.002 A 
ATOM     27  C   UNL d   1     -41.685  15.265  20.845  0.00  0.00     0.000 A 
ATOM     28  C   UNL d   1     -41.133  15.851  21.052  0.00  0.00     0.002 A 
ATOM     29  C   UNL d   1     -40.344  15.650  21.171  0.00  0.00     0.018 A 
ENDBRANCH   4  24
TORSDOF 2
ENDMDL
MODEL 3
REMARK VINA RESULT:      -5.9      1.440      1.693
REMARK  2 active torsions:
REMARK  status: ('A' for Active; 'I' for Inactive)
REMARK       I    between atoms: N_3  and  C_1 
REMARK       I    between atoms: N_4  and  C_1 
REMARK       I    between atoms: C_2  and  N_5 
REMARK       I    between atoms: N_6  and  C_2 
REMARK    1  A    between atoms: C_13  and  N_4 
REMARK    2  A    between atoms: C_14  and  N_4 
ROOT
ATOM      1  C   UNL d   1     -48.372  14.396  22.619  0.00  0.00     0.339 C 
ATOM      2  C   UNL d   1     -45.783  12.374  22.311  0.00  0.00     0.340 C 
ATOM      3  N   UNL d   1     -47.714  13.884  22.541  0.00  0.00    -0.254 N 
ATOM      4  N   UNL d   1     -49.117  14.089  22.787  0.00  0.00    -0.260 N 
ATOM      5  N   UNL d   1     -46.428  12.881  22.387  0.00  0.00    -0.254 N 
ATOM      6  N   UNL d   1     -45.035  12.678  22.143  0.00  0.00    -0.253 N 
ATOM      7  O   UNL d   1     -48.270  15.215  22.527  0.00  0.00    -0.245 OA
ATOM      8  O   UNL d   1     -45.886  11.566  22.403  0.00  0.00    -0.245 OA
ATOM      9  C   UNL d   1     -46.964  14.213  22.370  0.00  0.00     0.104 A 
ATOM     10  C   UNL d   1     -47.813  13.083  22.631  0.00  0.00     0.104 A 
ATOM     11  C   UNL d   1     -47.168  12.581  22.554  0.00  0.00     0.104 A 
ATOM     12  C   UNL d   1     -46.319  13.710  22.293  0.00  0.00     0.104 A 
ATOM     13  O   UNL d   1     -43.535  13.286  21.805  0.00  0.00    -0.300 OA
ATOM     14  C   UNL d   1     -44.392  12.167  22.067  0.00  0.00     0.111 A 
ATOM     15  C   UNL d   1     -44.935  13.494  22.051  0.00  0.00     0.111 A 
ATOM     16  C   UNL d   1     -44.180  13.794  21.882  0.00  0.00     0.142 A 
ATOM     17  C   UNL d   1     -43.643  12.466  21.899  0.00  0.00     0.142 A 
ENDROOT
BRANCH   4  18
ATOM     18  C   UNL d   1     -49.771  14.599  22.865  0.00  0.00     0.068 A 
ATOM     19  C   UNL d   1     -49.906  14.989  23.589  0.00  0.00     0.018 A 
ATOM     20  C   UNL d   1     -50.554  15.494  23.666  0.00  0.00     0.002 A 
ATOM     21  C   UNL d   1     -51.064  15.610  23.027  0.00  0.00     0.000 A 
ATOM     22  C   UNL d   1     -50.929  15.221  22.306  0.00  0.00     0.002 A 
ATOM     23  C   UNL d   1     -50.281  14.716  22.229  0.00  0.00     0.018 A 
ENDBRANCH   4  18
BRANCH   4  24
ATOM     24  C   UNL d   1     -49.221  13.281  22.879  0.00  0.00     0.068 A 
ATOM     25  C   UNL d   1     -49.129  12.930  23.618  0.00  0.00     0.018 A 
ATOM     26  C   UNL d   1     -49.235  12.125  23.698  0.00  0.00     0.002 A 
ATOM     27  C   UNL d   1     -49.433  11.657  23.048  0.00  0.00     0.000 A 
ATOM     28  C   UNL d   1     -49.525  12.014  22.303  0.00  0.00     0.002 A 
ATOM     29  C   UNL d   1     -49.418  12.826  22.219  0.00  0.00     0.018 A 
ENDBRANCH   4  24
TORSDOF 2
ENDMDL
