MODEL 1
REMARK VINA RESULT:      -1.4      0.000      0.000
REMARK  4 active torsions:
REMARK  status: ('A' for Active; 'I' for Inactive)
REMARK    1  A    between atoms: C_11  and  N_2 
REMARK    2  A    between atoms: C_12  and  C_6 
REMARK    3  A    between atoms: C_15  and  C_11 
REMARK    4  A    between atoms: O_29  and  C_24 
ROOT
ATOM      1  C   UNL d   1      32.882  20.230 -23.251  0.00  0.00     0.137 A 
ATOM      2  N   UNL d   1      33.032  21.482 -22.586  0.00  0.00    -0.256 N 
ATOM      3  C   UNL d   1      32.692  19.867 -22.531  0.00  0.00     0.192 A 
ATOM      4  C   UNL d   1      33.052  21.037 -23.278  0.00  0.00     0.272 A 
ATOM      5  N   UNL d   1      32.672  20.309 -21.841  0.00  0.00    -0.204 NA
ATOM      6  C   UNL d   1      32.843  21.124 -21.865  0.00  0.00     0.152 A 
ATOM      7  C   UNL d   1      32.901  19.781 -23.944  0.00  0.00     0.205 A 
ATOM      8  C   UNL d   1      32.734  18.985 -23.921  0.00  0.00     0.062 A 
ATOM      9  O   UNL d   1      32.523  19.064 -22.512  0.00  0.00    -0.289 OA
ATOM     10  C   UNL d   1      32.544  18.620 -23.207  0.00  0.00     0.107 A 
ATOM     11  C   UNL d   1      32.373  17.806 -23.184  0.00  0.00     0.049 A 
ATOM     12  C   UNL d   1      32.754  18.537 -24.618  0.00  0.00     0.007 A 
ATOM     13  O   UNL d   1      33.241  21.394 -23.996  0.00  0.00    -0.266 OA
ATOM     14  O   UNL d   1      33.090  20.145 -24.658  0.00  0.00    -0.286 OA
ATOM     15  C   UNL d   1      32.394  17.366 -23.877  0.00  0.00     0.096 A 
ATOM     16  C   UNL d   1      32.583  17.730 -24.590  0.00  0.00     0.024 A 
ENDROOT
BRANCH   6  17
ATOM     17  C   UNL d   1      32.822  21.567 -21.169  0.00  0.00     0.035 A 
ATOM     18  C   UNL d   1      32.390  22.266 -21.140  0.00  0.00     0.003 A 
ATOM     19  C   UNL d   1      32.377  22.699 -20.441  0.00  0.00     0.000 A 
ATOM     20  C   UNL d   1      32.788  22.441 -19.778  0.00  0.00     0.000 A 
ATOM     21  C   UNL d   1      33.220  21.737 -19.815  0.00  0.00     0.000 A 
ATOM     22  C   UNL d   1      32.769  22.881 -19.082  0.00  0.00     0.000 C 
ATOM     23  C   UNL d   1      33.238  21.298 -20.510  0.00  0.00     0.003 A 
ENDBRANCH   6  17
BRANCH   2  24
ATOM     24  C   UNL d   1      33.203  22.289 -22.613  0.00  0.00     0.109 C 
BRANCH  24  25
ATOM     25  C   UNL d   1      32.813  22.784 -23.163  0.00  0.00     0.118 A 
ATOM     26  O   UNL d   1      31.997  22.872 -23.240  0.00  0.00    -0.304 OA
ATOM     27  C   UNL d   1      31.857  23.417 -23.853  0.00  0.00     0.123 A 
ATOM     28  C   UNL d   1      32.595  23.665 -24.153  0.00  0.00     0.029 A 
ATOM     29  C   UNL d   1      33.191  23.268 -23.720  0.00  0.00     0.028 A 
ENDBRANCH  24  25
ENDBRANCH   2  24
BRANCH  15  30
ATOM     30  O   UNL d   1      32.227  16.566 -23.865  0.00  0.00    -0.328 OA
ATOM     31  C   UNL d   1      32.078  16.194 -23.146  0.00  0.00     0.181 C 
ENDBRANCH  15  30
TORSDOF 4
ENDMDL
MODEL 2
REMARK VINA RESULT:       0.0      1.491      4.540
REMARK  4 active torsions:
REMARK  status: ('A' for Active; 'I' for Inactive)
REMARK    1  A    between atoms: C_11  and  N_2 
REMARK    2  A    between atoms: C_12  and  C_6 
REMARK    3  A    between atoms: C_15  and  C_11 
REMARK    4  A    between atoms: O_29  and  C_24 
ROOT
ATOM      1  C   UNL d   1      32.897  22.177 -21.648  0.00  0.00     0.137 A 
ATOM      2  N   UNL d   1      32.933  21.481 -22.892  0.00  0.00    -0.256 N 
ATOM      3  C   UNL d   1      32.690  21.476 -21.259  0.00  0.00     0.192 A 
ATOM      4  C   UNL d   1      33.019  22.179 -22.465  0.00  0.00     0.272 A 
ATOM      5  N   UNL d   1      32.604  20.781 -21.683  0.00  0.00    -0.204 NA
ATOM      6  C   UNL d   1      32.725  20.779 -22.507  0.00  0.00     0.152 A 
ATOM      7  C   UNL d   1      32.983  22.876 -21.217  0.00  0.00     0.205 A 
ATOM      8  C   UNL d   1      32.864  22.877 -20.411  0.00  0.00     0.062 A 
ATOM      9  O   UNL d   1      32.570  21.481 -20.446  0.00  0.00    -0.289 OA
ATOM     10  C   UNL d   1      32.657  22.182 -20.020  0.00  0.00     0.107 A 
ATOM     11  C   UNL d   1      32.536  22.185 -19.197  0.00  0.00     0.049 A 
ATOM     12  C   UNL d   1      32.951  23.580 -19.982  0.00  0.00     0.007 A 
ATOM     13  O   UNL d   1      33.225  22.878 -22.848  0.00  0.00    -0.266 OA
ATOM     14  O   UNL d   1      33.190  23.571 -21.607  0.00  0.00    -0.286 OA
ATOM     15  C   UNL d   1      32.623  22.883 -18.775  0.00  0.00     0.096 A 
ATOM     16  C   UNL d   1      32.829  23.578 -19.165  0.00  0.00     0.024 A 
ENDROOT
BRANCH   6  17
ATOM     17  C   UNL d   1      32.638  20.078 -22.933  0.00  0.00     0.035 A 
ATOM     18  C   UNL d   1      33.241  19.822 -23.432  0.00  0.00     0.003 A 
ATOM     19  C   UNL d   1      33.142  19.122 -23.851  0.00  0.00     0.000 A 
ATOM     20  C   UNL d   1      32.454  18.679 -23.775  0.00  0.00     0.000 A 
ATOM     21  C   UNL d   1      31.853  18.942 -23.272  0.00  0.00     0.000 A 
ATOM     22  C   UNL d   1      32.364  17.978 -24.198  0.00  0.00     0.000 C 
ATOM     23  C   UNL d   1      31.944  19.642 -22.849  0.00  0.00     0.003 A 
ENDBRANCH   6  17
BRANCH   2  24
ATOM     24  C   UNL d   1      33.054  21.484 -23.708  0.00  0.00     0.109 C 
BRANCH  24  25
ATOM     25  C   UNL d   1      32.763  22.113 -24.176  0.00  0.00     0.118 A 
ATOM     26  O   UNL d   1      31.970  22.278 -24.324  0.00  0.00    -0.304 OA
ATOM     27  C   UNL d   1      31.937  22.949 -24.815  0.00  0.00     0.123 A 
ATOM     28  C   UNL d   1      32.719  23.197 -24.967  0.00  0.00     0.029 A 
ATOM     29  C   UNL d   1      33.234  22.673 -24.567  0.00  0.00     0.028 A 
ENDBRANCH  24  25
ENDBRANCH   2  24
BRANCH  15  30
ATOM     30  O   UNL d   1      32.506  22.895 -17.966  0.00  0.00    -0.328 OA
ATOM     31  C   UNL d   1      33.009  23.340 -17.489  0.00  0.00     0.181 C 
ENDBRANCH  15  30
TORSDOF 4
ENDMDL
