MODEL 1
REMARK VINA RESULT:      25.0      0.000      0.000
REMARK  2 active torsions:
REMARK  status: ('A' for Active; 'I' for Inactive)
REMARK    1  A    between atoms: C_2  and  C_1 
REMARK       I    between atoms: N_3  and  C_2 
REMARK    2  A    between atoms: C_6  and  N_3 
ROOT
ATOM      1  C   UNL d   1     -57.764 -98.819 -44.294  0.00  0.00     0.303 C 
ATOM      2  N   UNL d   1     -57.185 -98.757 -44.887  0.00  0.00    -0.206 NA
ATOM      3  O   UNL d   1     -57.537 -98.902 -43.508  0.00  0.00    -0.263 OA
ENDROOT
BRANCH   2   4
ATOM      4  C   UNL d   1     -56.385 -98.779 -44.682  0.00  0.00     0.086 A 
ATOM      5  C   UNL d   1     -56.163 -98.772 -43.881  0.00  0.00     0.031 A 
ATOM      6  C   UNL d   1     -55.364 -98.795 -43.691  0.00  0.00     0.059 A 
ATOM      7 CL   UNL d   1     -55.149 -98.788 -42.895  0.00  0.00    -0.082 Cl
ATOM      8  C   UNL d   1     -54.800 -98.823 -44.281  0.00  0.00     0.011 A 
ATOM      9  C   UNL d   1     -55.010 -98.831 -45.069  0.00  0.00     0.002 A 
ATOM     10  C   UNL d   1     -55.810 -98.808 -45.275  0.00  0.00     0.018 A 
ATOM     11  C   UNL d   1     -56.028 -98.815 -46.058  0.00  0.00     0.002 C 
ENDBRANCH   2   4
BRANCH   1  12
ATOM     12  C   UNL d   1     -58.563 -98.796 -44.499  0.00  0.00     0.176 A 
ATOM     13  C   UNL d   1     -59.199 -98.781 -43.968  0.00  0.00     0.110 A 
ATOM     14  N   UNL d   1     -59.898 -98.761 -44.405  0.00  0.00    -0.233 NA
ATOM     15  C   UNL d   1     -59.140 -98.786 -43.150  0.00  0.00     0.023 C 
ATOM     16  C   UNL d   1     -59.693 -98.763 -45.214  0.00  0.00     0.259 A 
ATOM     17  O   UNL d   1     -58.867 -98.786 -45.262  0.00  0.00    -0.296 OA
ENDBRANCH   1  12
TORSDOF 2
ENDMDL
