MODEL 1
REMARK VINA RESULT:       5.9      0.000      0.000
REMARK  4 active torsions:
REMARK  status: ('A' for Active; 'I' for Inactive)
REMARK    1  A    between atoms: N_5  and  C_1 
REMARK    2  A    between atoms: C_4  and  N_6 
REMARK    3  A    between atoms: N_11  and  C_4 
REMARK    4  A    between atoms: N_6  and  N_5 
ROOT
ATOM      1  C   UNL d   1      13.340  12.290  -3.396  0.00  0.00     0.768 A 
ATOM      2  N   UNL d   1      13.250  11.850  -4.085  0.00  0.00    -0.058 NA
ATOM      3  N   UNL d   1      13.231  13.111  -3.414  0.00  0.00    -0.058 NA
ATOM      4  C   UNL d   1      13.052  12.223  -4.795  0.00  0.00     0.102 A 
ATOM      5  C   UNL d   1      13.032  13.484  -4.124  0.00  0.00     0.102 A 
ATOM      6  C   UNL d   1      12.943  13.044  -4.813  0.00  0.00     0.040 A 
ATOM      7  C   UNL d   1      12.924  14.302  -4.144  0.00  0.00     0.021 C 
ATOM      8  C   UNL d   1      12.962  11.779  -5.485  0.00  0.00     0.021 C 
ENDROOT
BRANCH   1   9
ATOM      9  N   UNL d   1      13.537  11.917  -2.690  0.00  0.00     0.049 NA
BRANCH   9  10
ATOM     10  N   UNL d   1      14.177  12.189  -2.250  0.00  0.00    -0.101 NA
BRANCH  10  11
ATOM     11  C   UNL d   1      14.268  11.948  -1.473  0.00  0.00     0.241 C 
ATOM     12  S   UNL d   1      13.608  11.779  -1.017  0.00  0.00    -0.035 SA
BRANCH  11  13
ATOM     13  N   UNL d   1      15.018  11.876  -1.152  0.00  0.00    -0.213 NA
ATOM     14  C   UNL d   1      15.118  11.872  -0.335  0.00  0.00     0.122 C 
ENDBRANCH  11  13
ENDBRANCH  10  11
ENDBRANCH   9  10
ENDBRANCH   1   9
TORSDOF 4
ENDMDL
