MODEL 1
REMARK VINA RESULT:      28.3      0.000      0.000
REMARK  4 active torsions:
REMARK  status: ('A' for Active; 'I' for Inactive)
REMARK    1  A    between atoms: N_7  and  C_6 
REMARK       I    between atoms: C_8  and  N_7 
REMARK    2  A    between atoms: C_14  and  C_8 
REMARK    3  A    between atoms: C_16  and  C_14 
REMARK    4  A    between atoms: C_17  and  C_16 
ROOT
ATOM      1  C   UNL d   1      14.572  14.516  -1.851  0.00  0.00     0.269 A 
ATOM      2  N   UNL d   1      14.779  15.225  -1.461  0.00  0.00    -0.239 N 
ATOM      3  C   UNL d   1      14.744  13.899  -1.329  0.00  0.00     0.079 A 
ATOM      4  C   UNL d   1      15.067  15.038  -0.728  0.00  0.00     0.267 A 
ATOM      5  C   UNL d   1      15.050  14.222  -0.634  0.00  0.00     0.063 A 
ATOM      6  C   UNL d   1      14.658  13.085  -1.404  0.00  0.00     0.089 A 
ATOM      7  O   UNL d   1      14.257  14.441  -2.608  0.00  0.00    -0.267 OA
ATOM      8  O   UNL d   1      15.338  15.590  -0.157  0.00  0.00    -0.267 OA
ATOM      9  C   UNL d   1      14.703  15.984  -1.775  0.00  0.00     0.105 C 
ATOM     10  C   UNL d   1      15.271  13.731  -0.014  0.00  0.00     0.005 A 
ATOM     11  C   UNL d   1      14.879  12.590  -0.781  0.00  0.00     0.019 A 
ATOM     12  C   UNL d   1      15.186  12.913  -0.086  0.00  0.00     0.002 A 
ENDROOT
BRANCH   6  13
ATOM     13  N   UNL d   1      14.352  12.762  -2.098  0.00  0.00    -0.208 NA
ATOM     14  C   UNL d   1      13.848  12.112  -2.059  0.00  0.00     0.279 C 
ATOM     15  O   UNL d   1      13.647  11.782  -1.332  0.00  0.00    -0.265 OA
BRANCH  14  16
ATOM     16  C   UNL d   1      13.542  11.789  -2.753  0.00  0.00     0.062 C 
BRANCH  16  17
ATOM     17  C   UNL d   1      12.916  12.163  -3.140  0.00  0.00     0.005 C 
BRANCH  17  18
ATOM     18  C   UNL d   1      12.984  12.359  -3.939  0.00  0.00     0.000 A 
ATOM     19  C   UNL d   1      13.226  11.780  -4.487  0.00  0.00     0.000 A 
ATOM     20  C   UNL d   1      13.294  11.977  -5.286  0.00  0.00     0.000 A 
ATOM     21  C   UNL d   1      13.120  12.752  -5.536  0.00  0.00     0.000 A 
ATOM     22  C   UNL d   1      12.884  13.310  -4.993  0.00  0.00     0.000 A 
ATOM     23  C   UNL d   1      12.816  13.114  -4.194  0.00  0.00     0.000 A 
ENDBRANCH  17  18
ENDBRANCH  16  17
ENDBRANCH  14  16
ENDBRANCH   6  13
TORSDOF 4
ENDMDL
MODEL 2
REMARK VINA RESULT:      30.6      1.505      4.059
REMARK  4 active torsions:
REMARK  status: ('A' for Active; 'I' for Inactive)
REMARK    1  A    between atoms: N_7  and  C_6 
REMARK       I    between atoms: C_8  and  N_7 
REMARK    2  A    between atoms: C_14  and  C_8 
REMARK    3  A    between atoms: C_16  and  C_14 
REMARK    4  A    between atoms: C_17  and  C_16 
ROOT
ATOM      1  C   UNL d   1      13.123  14.018  -3.905  0.00  0.00     0.269 A 
ATOM      2  N   UNL d   1      13.139  14.481  -4.601  0.00  0.00    -0.239 N 
ATOM      3  C   UNL d   1      13.134  13.228  -4.146  0.00  0.00     0.079 A 
ATOM      4  C   UNL d   1      13.159  13.983  -5.238  0.00  0.00     0.267 A 
ATOM      5  C   UNL d   1      13.157  13.206  -4.971  0.00  0.00     0.063 A 
ATOM      6  C   UNL d   1      13.127  12.529  -3.715  0.00  0.00     0.089 A 
ATOM      7  O   UNL d   1      13.100  14.291  -3.129  0.00  0.00    -0.267 OA
ATOM      8  O   UNL d   1      13.180  14.223  -6.043  0.00  0.00    -0.267 OA
ATOM      9  C   UNL d   1      13.135  15.306  -4.627  0.00  0.00     0.105 C 
ATOM     10  C   UNL d   1      13.172  12.485  -5.364  0.00  0.00     0.005 A 
ATOM     11  C   UNL d   1      13.142  11.803  -4.109  0.00  0.00     0.019 A 
ATOM     12  C   UNL d   1      13.165  11.781  -4.933  0.00  0.00     0.002 A 
ENDROOT
BRANCH   6  13
ATOM     13  N   UNL d   1      13.105  12.550  -2.890  0.00  0.00    -0.208 NA
ATOM     14  C   UNL d   1      13.695  12.175  -2.456  0.00  0.00     0.279 C 
ATOM     15  O   UNL d   1      14.308  11.779  -2.837  0.00  0.00    -0.265 OA
BRANCH  14  16
ATOM     16  C   UNL d   1      13.673  12.197  -1.632  0.00  0.00     0.062 C 
BRANCH  16  17
ATOM     17  C   UNL d   1      14.364  12.078  -1.197  0.00  0.00     0.005 C 
BRANCH  17  18
ATOM     18  C   UNL d   1      14.717  12.711  -0.803  0.00  0.00     0.000 A 
ATOM     19  C   UNL d   1      15.547  12.788  -0.805  0.00  0.00     0.000 A 
ATOM     20  C   UNL d   1      15.899  13.421  -0.411  0.00  0.00     0.000 A 
ATOM     21  C   UNL d   1      15.422  13.977  -0.015  0.00  0.00     0.000 A 
ATOM     22  C   UNL d   1      14.613  13.894  -0.018  0.00  0.00     0.000 A 
ATOM     23  C   UNL d   1      14.260  13.261  -0.413  0.00  0.00     0.000 A 
ENDBRANCH  17  18
ENDBRANCH  16  17
ENDBRANCH  14  16
ENDBRANCH   6  13
TORSDOF 4
ENDMDL
