MODEL 1
REMARK VINA RESULT:      95.0      0.000      0.000
REMARK  5 active torsions:
REMARK  status: ('A' for Active; 'I' for Inactive)
REMARK    1  A    between atoms: C_6  and  N_1 
REMARK    2  A    between atoms: C_7  and  C_3 
REMARK    3  A    between atoms: C_10  and  C_7 
REMARK    4  A    between atoms: C_16  and  C_8 
REMARK    5  A    between atoms: C_14  and  C_18 
ROOT
ATOM      1  N   UNL d   1     -55.023-101.243 -39.242  0.00  0.00    -0.252 N 
ATOM      2  C   UNL d   1     -54.999-101.569 -39.994  0.00  0.00     0.203 A 
ATOM      3  C   UNL d   1     -55.146-100.255 -40.123  0.00  0.00     0.091 A 
ATOM      4  C   UNL d   1     -55.114-100.429 -39.317  0.00  0.00     0.272 A 
ATOM      5  S   UNL d   1     -55.074-100.963 -40.540  0.00  0.00    -0.043 SA
ATOM      6  N   UNL d   1     -54.913-102.375 -40.172  0.00  0.00    -0.121 N 
ATOM      7  O   UNL d   1     -55.165 -99.884 -38.705  0.00  0.00    -0.266 OA
ENDROOT
BRANCH   3   8
ATOM      8  C   UNL d   1     -55.233 -99.506 -40.458  0.00  0.00     0.036 C 
BRANCH   8   9
ATOM      9  C   UNL d   1     -55.109 -99.386 -41.270  0.00  0.00     0.101 A 
ATOM     10  O   UNL d   1     -55.368 -99.892 -41.870  0.00  0.00    -0.307 OA
ATOM     11  C   UNL d   1     -55.131 -99.572 -42.598  0.00  0.00     0.100 A 
ATOM     12  C   UNL d   1     -54.725 -98.864 -42.437  0.00  0.00     0.027 A 
ATOM     13  C   UNL d   1     -54.717 -98.758 -41.617  0.00  0.00     0.027 A 
BRANCH  11  14
ATOM     14  C   UNL d   1     -55.272 -99.893 -43.336  0.00  0.00     0.023 A 
ATOM     15  C   UNL d   1     -55.158-100.694 -43.470  0.00  0.00     0.008 A 
ATOM     16  C   UNL d   1     -55.303-101.011 -44.223  0.00  0.00     0.065 A 
ATOM     17  C   UNL d   1     -55.557-100.536 -44.827  0.00  0.00     0.006 A 
ATOM     18  C   UNL d   1     -55.676 -99.731 -44.708  0.00  0.00     0.000 A 
ATOM     19  C   UNL d   1     -55.530 -99.416 -43.953  0.00  0.00     0.002 A 
BRANCH  16  20
ATOM     20  C   UNL d   1     -55.183-101.836 -44.353  0.00  0.00     0.211 C 
ATOM     21  O   UNL d   1     -55.537-102.386 -43.857  0.00  0.00    -0.644 OA
ATOM     22  O   UNL d   1     -54.715-102.090 -44.971  0.00  0.00    -0.644 OA
ENDBRANCH  16  20
ENDBRANCH  11  14
ENDBRANCH   8   9
ENDBRANCH   3   8
BRANCH   1  23
ATOM     23  C   UNL d   1     -54.966-101.664 -38.531  0.00  0.00     0.071 A 
ATOM     24  C   UNL d   1     -55.108-101.276 -37.811  0.00  0.00     0.044 A 
ATOM     25  C   UNL d   1     -55.052-101.693 -37.089  0.00  0.00     0.121 A 
ATOM     26  O   UNL d   1     -55.162-101.450 -36.305  0.00  0.00    -0.299 OA
ATOM     27  C   UNL d   1     -54.857-102.489 -37.098  0.00  0.00     0.119 A 
ATOM     28  C   UNL d   1     -55.032-102.108 -35.826  0.00  0.00     0.304 A 
ATOM     29  O   UNL d   1     -54.842-102.757 -36.312  0.00  0.00    -0.300 OA
ATOM     30  C   UNL d   1     -54.716-102.880 -37.805  0.00  0.00     0.028 A 
ATOM     31  C   UNL d   1     -54.771-102.466 -38.526  0.00  0.00     0.020 A 
ENDBRANCH   1  23
TORSDOF 5
ENDMDL
MODEL 2
REMARK VINA RESULT:      97.2      1.921      6.231
REMARK  5 active torsions:
REMARK  status: ('A' for Active; 'I' for Inactive)
REMARK    1  A    between atoms: C_6  and  N_1 
REMARK    2  A    between atoms: C_7  and  C_3 
REMARK    3  A    between atoms: C_10  and  C_7 
REMARK    4  A    between atoms: C_16  and  C_8 
REMARK    5  A    between atoms: C_14  and  C_18 
ROOT
ATOM      1  N   UNL d   1     -55.956-101.315 -42.828  0.00  0.00    -0.252 N 
ATOM      2  C   UNL d   1     -55.201-101.148 -42.552  0.00  0.00     0.203 A 
ATOM      3  C   UNL d   1     -55.654-102.208 -41.891  0.00  0.00     0.091 A 
ATOM      4  C   UNL d   1     -56.240-101.970 -42.421  0.00  0.00     0.272 A 
ATOM      5  S   UNL d   1     -55.012-101.697 -41.975  0.00  0.00    -0.043 SA
ATOM      6  N   UNL d   1     -54.714-100.530 -42.815  0.00  0.00    -0.121 N 
ATOM      7  O   UNL d   1     -56.972-102.328 -42.520  0.00  0.00    -0.266 OA
ENDROOT
BRANCH   3   8
ATOM      8  C   UNL d   1     -55.698-102.844 -41.367  0.00  0.00     0.036 C 
BRANCH   8   9
ATOM      9  C   UNL d   1     -55.468-102.758 -40.574  0.00  0.00     0.101 A 
ATOM     10  O   UNL d   1     -55.978-102.799 -39.925  0.00  0.00    -0.307 OA
ATOM     11  C   UNL d   1     -55.530-102.685 -39.237  0.00  0.00     0.100 A 
ATOM     12  C   UNL d   1     -54.740-102.573 -39.471  0.00  0.00     0.027 A 
ATOM     13  C   UNL d   1     -54.712-102.620 -40.296  0.00  0.00     0.027 A 
BRANCH  11  14
ATOM     14  C   UNL d   1     -55.812-102.683 -38.470  0.00  0.00     0.023 A 
ATOM     15  C   UNL d   1     -55.319-102.490 -37.844  0.00  0.00     0.008 A 
ATOM     16  C   UNL d   1     -55.614-102.491 -37.069  0.00  0.00     0.065 A 
ATOM     17  C   UNL d   1     -56.388-102.680 -36.925  0.00  0.00     0.006 A 
ATOM     18  C   UNL d   1     -56.896-102.875 -37.541  0.00  0.00     0.000 A 
ATOM     19  C   UNL d   1     -56.596-102.874 -38.316  0.00  0.00     0.002 A 
BRANCH  16  20
ATOM     20  C   UNL d   1     -55.099-102.291 -36.431  0.00  0.00     0.211 C 
ATOM     21  O   UNL d   1     -54.924-101.505 -36.275  0.00  0.00    -0.644 OA
ATOM     22  O   UNL d   1     -54.773-102.879 -35.968  0.00  0.00    -0.644 OA
ENDBRANCH  16  20
ENDBRANCH  11  14
ENDBRANCH   8   9
ENDBRANCH   3   8
BRANCH   1  23
ATOM     23  C   UNL d   1     -56.360-100.893 -43.416  0.00  0.00     0.071 A 
ATOM     24  C   UNL d   1     -56.857-100.263 -43.203  0.00  0.00     0.044 A 
ATOM     25  C   UNL d   1     -57.267 -99.833 -43.790  0.00  0.00     0.121 A 
ATOM     26  O   UNL d   1     -57.789 -99.192 -43.735  0.00  0.00    -0.299 OA
ATOM     27  C   UNL d   1     -57.175-100.038 -44.578  0.00  0.00     0.119 A 
ATOM     28  C   UNL d   1     -58.020 -99.001 -44.503  0.00  0.00     0.304 A 
ATOM     29  O   UNL d   1     -57.643 -99.523 -45.031  0.00  0.00    -0.300 OA
ATOM     30  C   UNL d   1     -56.686-100.658 -44.797  0.00  0.00     0.028 A 
ATOM     31  C   UNL d   1     -56.275-101.089 -44.213  0.00  0.00     0.020 A 
ENDBRANCH   1  23
TORSDOF 5
ENDMDL
