MODEL 1
REMARK VINA RESULT:      63.8      0.000      0.000
REMARK  2 active torsions:
REMARK  status: ('A' for Active; 'I' for Inactive)
REMARK    1  A    between atoms: C_2  and  C_5 
REMARK       I    between atoms: C_5  and  N_9 
REMARK    2  A    between atoms: N_9  and  C_15 
ROOT
ATOM      1  C   UNL d   1     -55.417-102.033 -41.983  0.00  0.00     0.304 C 
ATOM      2  N   UNL d   1     -55.130-101.302 -42.222  0.00  0.00    -0.206 NA
ATOM      3  O   UNL d   1     -55.707-102.557 -42.533  0.00  0.00    -0.263 OA
ENDROOT
BRANCH   1   4
ATOM      4  C   UNL d   1     -55.415-102.244 -41.191  0.00  0.00     0.182 A 
ATOM      5  O   UNL d   1     -56.122-102.244 -40.781  0.00  0.00    -0.298 OA
ATOM      6  C   UNL d   1     -56.123-102.458 -39.979  0.00  0.00     0.123 A 
ATOM      7  C   UNL d   1     -56.832-102.460 -39.557  0.00  0.00     0.027 A 
ATOM      8  C   UNL d   1     -55.427-102.662 -39.615  0.00  0.00     0.123 A 
ATOM      9  C   UNL d   1     -56.825-102.673 -38.764  0.00  0.00     0.002 A 
ATOM     10  C   UNL d   1     -56.139-102.877 -38.394  0.00  0.00     0.002 A 
ATOM     11  C   UNL d   1     -55.430-102.875 -38.815  0.00  0.00     0.027 A 
ATOM     12  O   UNL d   1     -54.717-102.660 -40.036  0.00  0.00    -0.301 OA
ATOM     13  C   UNL d   1     -54.725-102.449 -40.823  0.00  0.00     0.152 A 
ENDBRANCH   1   4
BRANCH   2  14
ATOM     14  C   UNL d   1     -55.107-101.037 -43.009  0.00  0.00     0.085 A 
ATOM     15  C   UNL d   1     -54.713-101.422 -43.633  0.00  0.00     0.021 A 
ATOM     16  C   UNL d   1     -54.727-101.115 -44.380  0.00  0.00     0.021 A 
ATOM     17  C   UNL d   1     -55.119-100.436 -44.539  0.00  0.00     0.088 A 
ATOM     18  C   UNL d   1     -55.515-100.044 -43.929  0.00  0.00     0.050 A 
ATOM     19  N   UNL d   1     -55.249 -99.975 -45.210  0.00  0.00    -0.239 NA
ATOM     20  C   UNL d   1     -55.517-100.336 -43.156  0.00  0.00     0.027 A 
ATOM     21  S   UNL d   1     -55.876 -99.353 -44.248  0.00  0.00    -0.066 SA
ATOM     22  C   UNL d   1     -55.683 -99.353 -45.047  0.00  0.00     0.111 A 
ATOM     23  C   UNL d   1     -55.931 -98.759 -45.581  0.00  0.00     0.028 C 
ENDBRANCH   2  14
TORSDOF 2
ENDMDL
MODEL 2
REMARK VINA RESULT:      65.6      1.251      1.574
REMARK  2 active torsions:
REMARK  status: ('A' for Active; 'I' for Inactive)
REMARK    1  A    between atoms: C_2  and  C_5 
REMARK       I    between atoms: C_5  and  N_9 
REMARK    2  A    between atoms: N_9  and  C_15 
ROOT
ATOM      1  C   UNL d   1     -54.977-100.660 -41.332  0.00  0.00     0.304 C 
ATOM      2  N   UNL d   1     -54.711-100.832 -42.090  0.00  0.00    -0.206 NA
ATOM      3  O   UNL d   1     -55.295 -99.931 -41.167  0.00  0.00    -0.263 OA
ENDROOT
BRANCH   1   4
ATOM      4  C   UNL d   1     -54.925-101.219 -40.735  0.00  0.00     0.182 A 
ATOM      5  O   UNL d   1     -54.890-100.965 -39.959  0.00  0.00    -0.298 OA
ATOM      6  C   UNL d   1     -54.837-101.528 -39.351  0.00  0.00     0.123 A 
ATOM      7  C   UNL d   1     -54.802-101.280 -38.565  0.00  0.00     0.027 A 
ATOM      8  C   UNL d   1     -54.821-102.319 -39.535  0.00  0.00     0.123 A 
ATOM      9  C   UNL d   1     -54.750-101.844 -37.970  0.00  0.00     0.002 A 
ATOM     10  C   UNL d   1     -54.733-102.631 -38.142  0.00  0.00     0.002 A 
ATOM     11  C   UNL d   1     -54.769-102.879 -38.928  0.00  0.00     0.027 A 
ATOM     12  O   UNL d   1     -54.857-102.567 -40.321  0.00  0.00    -0.301 OA
ATOM     13  C   UNL d   1     -54.909-102.007 -40.911  0.00  0.00     0.152 A 
ENDBRANCH   1   4
BRANCH   2  14
ATOM     14  C   UNL d   1     -54.740-100.305 -42.732  0.00  0.00     0.085 A 
ATOM     15  C   UNL d   1     -54.787 -99.477 -42.669  0.00  0.00     0.021 A 
ATOM     16  C   UNL d   1     -54.812 -99.015 -43.331  0.00  0.00     0.021 A 
ATOM     17  C   UNL d   1     -54.791 -99.341 -44.062  0.00  0.00     0.088 A 
ATOM     18  C   UNL d   1     -54.744-100.162 -44.137  0.00  0.00     0.050 A 
ATOM     19  N   UNL d   1     -54.806 -99.055 -44.835  0.00  0.00    -0.239 NA
ATOM     20  C   UNL d   1     -54.718-100.658 -43.477  0.00  0.00     0.027 A 
ATOM     21  S   UNL d   1     -54.731-100.353 -44.959  0.00  0.00    -0.066 SA
ATOM     22  C   UNL d   1     -54.771 -99.631 -45.352  0.00  0.00     0.111 A 
ATOM     23  C   UNL d   1     -54.773 -99.561 -46.185  0.00  0.00     0.028 C 
ENDBRANCH   2  14
TORSDOF 2
ENDMDL
