MODEL 1
REMARK VINA RESULT:      -5.2      0.000      0.000
REMARK  0 active torsions:
REMARK  status: ('A' for Active; 'I' for Inactive)
ROOT
ATOM      1  N   UNL d   1     -41.620-121.931 -52.247  0.00  0.00    -0.202 NA
ATOM      2  N   UNL d   1     -41.135-123.490 -52.068  0.00  0.00    -0.202 NA
ATOM      3  C   UNL d   1     -41.250-123.021 -51.403  0.00  0.00     0.337 A 
ATOM      4  C   UNL d   1     -41.494-122.235 -51.491  0.00  0.00     0.337 A 
ATOM      5  C   UNL d   1     -41.262-123.183 -52.816  0.00  0.00     0.102 A 
ATOM      6  C   UNL d   1     -41.502-122.409 -52.902  0.00  0.00     0.102 A 
ATOM      7  C   UNL d   1     -41.632-122.092 -53.655  0.00  0.00     0.021 A 
ATOM      8  C   UNL d   1     -41.144-123.664 -53.479  0.00  0.00     0.021 A 
ATOM      9  C   UNL d   1     -41.274-123.345 -54.235  0.00  0.00     0.002 A 
ATOM     10  C   UNL d   1     -41.517-122.564 -54.322  0.00  0.00     0.002 A 
ATOM     11  O   UNL d   1     -41.123-123.328 -50.651  0.00  0.00    -0.260 OA
ATOM     12  O   UNL d   1     -41.610-121.762 -50.826  0.00  0.00    -0.260 OA
ATOM     13  C   UNL d   1     -41.644-122.254 -55.076  0.00  0.00     0.000 C 
ATOM     14  C   UNL d   1     -41.158-123.817 -54.894  0.00  0.00     0.000 C 
ENDROOT
TORSDOF 0
ENDMDL
MODEL 2
REMARK VINA RESULT:      -3.9      2.876      4.682
REMARK  0 active torsions:
REMARK  status: ('A' for Active; 'I' for Inactive)
ROOT
ATOM      1  N   UNL d   1     -42.828-122.657 -49.899  0.00  0.00    -0.202 NA
ATOM      2  N   UNL d   1     -41.197-122.854 -49.889  0.00  0.00    -0.202 NA
ATOM      3  C   UNL d   1     -41.567-122.563 -50.562  0.00  0.00     0.337 A 
ATOM      4  C   UNL d   1     -42.389-122.463 -50.570  0.00  0.00     0.337 A 
ATOM      5  C   UNL d   1     -41.638-123.044 -49.226  0.00  0.00     0.102 A 
ATOM      6  C   UNL d   1     -42.447-122.946 -49.234  0.00  0.00     0.102 A 
ATOM      7  C   UNL d   1     -42.899-123.136 -48.568  0.00  0.00     0.021 A 
ATOM      8  C   UNL d   1     -41.255-123.337 -48.552  0.00  0.00     0.021 A 
ATOM      9  C   UNL d   1     -41.710-123.528 -47.883  0.00  0.00     0.002 A 
ATOM     10  C   UNL d   1     -42.526-123.429 -47.891  0.00  0.00     0.002 A 
ATOM     11  O   UNL d   1     -41.125-122.371 -51.228  0.00  0.00    -0.260 OA
ATOM     12  O   UNL d   1     -42.763-122.171 -51.244  0.00  0.00    -0.260 OA
ATOM     13  C   UNL d   1     -42.970-123.620 -47.224  0.00  0.00     0.000 C 
ATOM     14  C   UNL d   1     -41.335-123.817 -47.215  0.00  0.00     0.000 C 
ENDROOT
TORSDOF 0
ENDMDL
MODEL 3
REMARK VINA RESULT:      -3.7      1.737      2.858
REMARK  0 active torsions:
REMARK  status: ('A' for Active; 'I' for Inactive)
ROOT
ATOM      1  N   UNL d   1     -41.387-122.156 -53.457  0.00  0.00    -0.202 NA
ATOM      2  N   UNL d   1     -41.127-123.779 -53.460  0.00  0.00    -0.202 NA
ATOM      3  C   UNL d   1     -41.193-123.376 -54.174  0.00  0.00     0.337 A 
ATOM      4  C   UNL d   1     -41.324-122.558 -54.175  0.00  0.00     0.337 A 
ATOM      5  C   UNL d   1     -41.191-123.374 -52.752  0.00  0.00     0.102 A 
ATOM      6  C   UNL d   1     -41.320-122.569 -52.753  0.00  0.00     0.102 A 
ATOM      7  C   UNL d   1     -41.385-122.154 -52.040  0.00  0.00     0.021 A 
ATOM      8  C   UNL d   1     -41.123-123.790 -52.038  0.00  0.00     0.021 A 
ATOM      9  C   UNL d   1     -41.189-123.372 -51.323  0.00  0.00     0.002 A 
ATOM     10  C   UNL d   1     -41.319-122.560 -51.324  0.00  0.00     0.002 A 
ATOM     11  O   UNL d   1     -41.129-123.780 -54.886  0.00  0.00    -0.260 OA
ATOM     12  O   UNL d   1     -41.390-122.151 -54.888  0.00  0.00    -0.260 OA
ATOM     13  C   UNL d   1     -41.383-122.153 -50.610  0.00  0.00     0.000 C 
ATOM     14  C   UNL d   1     -41.122-123.779 -50.615  0.00  0.00     0.000 C 
ENDROOT
TORSDOF 0
ENDMDL
MODEL 4
REMARK VINA RESULT:      -3.6      1.264      1.718
REMARK  0 active torsions:
REMARK  status: ('A' for Active; 'I' for Inactive)
ROOT
ATOM      1  N   UNL d   1     -41.927-122.146 -50.583  0.00  0.00    -0.202 NA
ATOM      2  N   UNL d   1     -41.930-123.789 -50.584  0.00  0.00    -0.202 NA
ATOM      3  C   UNL d   1     -42.131-123.382 -49.898  0.00  0.00     0.337 A 
ATOM      4  C   UNL d   1     -42.130-122.554 -49.895  0.00  0.00     0.337 A 
ATOM      5  C   UNL d   1     -41.730-123.378 -51.263  0.00  0.00     0.102 A 
ATOM      6  C   UNL d   1     -41.729-122.563 -51.260  0.00  0.00     0.102 A 
ATOM      7  C   UNL d   1     -41.527-122.142 -51.942  0.00  0.00     0.021 A 
ATOM      8  C   UNL d   1     -41.529-123.798 -51.948  0.00  0.00     0.021 A 
ATOM      9  C   UNL d   1     -41.326-123.373 -52.633  0.00  0.00     0.002 A 
ATOM     10  C   UNL d   1     -41.325-122.551 -52.630  0.00  0.00     0.002 A 
ATOM     11  O   UNL d   1     -42.333-123.794 -49.216  0.00  0.00    -0.260 OA
ATOM     12  O   UNL d   1     -42.331-122.144 -49.210  0.00  0.00    -0.260 OA
ATOM     13  C   UNL d   1     -41.123-122.137 -53.314  0.00  0.00     0.000 C 
ATOM     14  C   UNL d   1     -41.127-123.784 -53.313  0.00  0.00     0.000 C 
ENDROOT
TORSDOF 0
ENDMDL
MODEL 5
REMARK VINA RESULT:      -2.4      1.045      1.398
REMARK  0 active torsions:
REMARK  status: ('A' for Active; 'I' for Inactive)
ROOT
ATOM      1  N   UNL d   1     -42.740-121.824 -52.996  0.00  0.00    -0.202 NA
ATOM      2  N   UNL d   1     -41.214-122.429 -53.067  0.00  0.00    -0.202 NA
ATOM      3  C   UNL d   1     -41.548-122.253 -52.337  0.00  0.00     0.337 A 
ATOM      4  C   UNL d   1     -42.317-121.948 -52.298  0.00  0.00     0.337 A 
ATOM      5  C   UNL d   1     -41.639-122.303 -53.755  0.00  0.00     0.102 A 
ATOM      6  C   UNL d   1     -42.396-122.004 -53.717  0.00  0.00     0.102 A 
ATOM      7  C   UNL d   1     -42.830-121.875 -54.409  0.00  0.00     0.021 A 
ATOM      8  C   UNL d   1     -41.292-122.484 -54.485  0.00  0.00     0.021 A 
ATOM      9  C   UNL d   1     -41.730-122.354 -55.180  0.00  0.00     0.002 A 
ATOM     10  C   UNL d   1     -42.493-122.052 -55.142  0.00  0.00     0.002 A 
ATOM     11  O   UNL d   1     -41.123-122.378 -51.644  0.00  0.00    -0.260 OA
ATOM     12  O   UNL d   1     -42.655-121.771 -51.568  0.00  0.00    -0.260 OA
ATOM     13  C   UNL d   1     -42.921-121.926 -55.835  0.00  0.00     0.000 C 
ATOM     14  C   UNL d   1     -41.391-122.531 -55.904  0.00  0.00     0.000 C 
ENDROOT
TORSDOF 0
ENDMDL
