MODEL 1
REMARK VINA RESULT:     -10.1      0.000      0.000
REMARK  3 active torsions:
REMARK  status: ('A' for Active; 'I' for Inactive)
REMARK    1  A    between atoms: O_3  and  C_1 
REMARK    2  A    between atoms: C_4  and  O_3 
REMARK    3  A    between atoms: C_8  and  C_4 
ROOT
ATOM      1  C   UNL d   1      53.080  33.059  54.186  0.00  0.00     0.131 A 
ATOM      2  C   UNL d   1      52.544  33.520  53.758  0.00  0.00     0.106 A 
ATOM      3  C   UNL d   1      52.602  34.342  53.764  0.00  0.00     0.030 A 
ATOM      4  C   UNL d   1      53.681  33.426  54.623  0.00  0.00     0.083 A 
ATOM      5  C   UNL d   1      53.203  34.710  54.202  0.00  0.00     0.060 A 
ATOM      6  C   UNL d   1      53.740  34.256  54.629  0.00  0.00     0.025 A 
ATOM      7  N   UNL d   1      51.946  33.153  53.323  0.00  0.00    -0.242 NA
ATOM      8 CL   UNL d   1      54.222  32.980  55.053  0.00  0.00    -0.080 Cl
ATOM      9 CL   UNL d   1      53.262  35.532  54.207  0.00  0.00    -0.082 Cl
ATOM     10  C   UNL d   1      52.073  34.796  53.342  0.00  0.00     0.004 A 
ATOM     11  C   UNL d   1      51.410  33.607  52.897  0.00  0.00     0.099 A 
ATOM     12  C   UNL d   1      51.472  34.432  52.905  0.00  0.00     0.021 A 
ENDROOT
BRANCH   1  13
ATOM     13  O   UNL d   1      53.029  32.244  54.185  0.00  0.00    -0.269 OA
BRANCH  13  14
ATOM     14  C   UNL d   1      53.537  31.794  53.717  0.00  0.00     0.323 C 
ATOM     15  O   UNL d   1      54.170  32.158  53.339  0.00  0.00    -0.257 OA
BRANCH  14  16
ATOM     16  C   UNL d   1      53.415  30.985  53.627  0.00  0.00     0.163 A 
ATOM     17  O   UNL d   1      53.426  30.418  54.232  0.00  0.00    -0.300 OA
ATOM     18  C   UNL d   1      53.279  29.688  53.899  0.00  0.00     0.123 A 
ATOM     19  C   UNL d   1      53.174  29.794  53.076  0.00  0.00     0.029 A 
ATOM     20  C   UNL d   1      53.260  30.598  52.919  0.00  0.00     0.032 A 
ENDBRANCH  14  16
ENDBRANCH  13  14
ENDBRANCH   1  13
TORSDOF 3
ENDMDL
MODEL 2
REMARK VINA RESULT:      -9.7      1.126      1.883
REMARK  3 active torsions:
REMARK  status: ('A' for Active; 'I' for Inactive)
REMARK    1  A    between atoms: O_3  and  C_1 
REMARK    2  A    between atoms: C_4  and  O_3 
REMARK    3  A    between atoms: C_8  and  C_4 
ROOT
ATOM      1  C   UNL d   1      52.678  33.097  53.870  0.00  0.00     0.131 A 
ATOM      2  C   UNL d   1      53.312  33.368  54.327  0.00  0.00     0.106 A 
ATOM      3  C   UNL d   1      53.460  34.175  54.400  0.00  0.00     0.030 A 
ATOM      4  C   UNL d   1      52.188  33.643  53.483  0.00  0.00     0.083 A 
ATOM      5  C   UNL d   1      52.970  34.721  54.013  0.00  0.00     0.060 A 
ATOM      6  C   UNL d   1      52.338  34.458  53.557  0.00  0.00     0.025 A 
ATOM      7  N   UNL d   1      53.799  32.823  54.712  0.00  0.00    -0.242 NA
ATOM      8 CL   UNL d   1      51.554  33.388  53.025  0.00  0.00    -0.080 Cl
ATOM      9 CL   UNL d   1      53.118  35.528  54.086  0.00  0.00    -0.082 Cl
ATOM     10  C   UNL d   1      54.085  34.440  54.851  0.00  0.00     0.004 A 
ATOM     11  C   UNL d   1      54.430  33.087  55.167  0.00  0.00     0.099 A 
ATOM     12  C   UNL d   1      54.576  33.899  55.239  0.00  0.00     0.021 A 
ENDROOT
BRANCH   1  13
ATOM     13  O   UNL d   1      52.525  32.299  53.793  0.00  0.00    -0.269 OA
BRANCH  13  14
ATOM     14  C   UNL d   1      52.753  31.894  53.112  0.00  0.00     0.323 C 
ATOM     15  O   UNL d   1      52.968  32.318  52.441  0.00  0.00    -0.257 OA
BRANCH  14  16
ATOM     16  C   UNL d   1      52.767  31.071  53.101  0.00  0.00     0.163 A 
ATOM     17  O   UNL d   1      52.124  30.569  53.249  0.00  0.00    -0.300 OA
ATOM     18  C   UNL d   1      52.382  29.798  53.180  0.00  0.00     0.123 A 
ATOM     19  C   UNL d   1      53.196  29.813  52.987  0.00  0.00     0.029 A 
ATOM     20  C   UNL d   1      53.423  30.603  52.940  0.00  0.00     0.032 A 
ENDBRANCH  14  16
ENDBRANCH  13  14
ENDBRANCH   1  13
TORSDOF 3
ENDMDL
MODEL 3
REMARK VINA RESULT:      -9.7      1.453      3.252
REMARK  3 active torsions:
REMARK  status: ('A' for Active; 'I' for Inactive)
REMARK    1  A    between atoms: O_3  and  C_1 
REMARK    2  A    between atoms: C_4  and  O_3 
REMARK    3  A    between atoms: C_8  and  C_4 
ROOT
ATOM      1  C   UNL d   1      52.797  33.785  54.111  0.00  0.00     0.131 A 
ATOM      2  C   UNL d   1      53.205  33.078  53.985  0.00  0.00     0.106 A 
ATOM      3  C   UNL d   1      53.965  32.974  54.285  0.00  0.00     0.030 A 
ATOM      4  C   UNL d   1      53.156  34.395  54.544  0.00  0.00     0.083 A 
ATOM      5  C   UNL d   1      54.324  33.584  54.718  0.00  0.00     0.060 A 
ATOM      6  C   UNL d   1      53.923  34.290  54.847  0.00  0.00     0.025 A 
ATOM      7  N   UNL d   1      52.846  32.472  53.553  0.00  0.00    -0.242 NA
ATOM      8 CL   UNL d   1      52.762  35.104  54.678  0.00  0.00    -0.080 Cl
ATOM      9 CL   UNL d   1      55.084  33.479  55.018  0.00  0.00    -0.082 Cl
ATOM     10  C   UNL d   1      54.366  32.276  54.159  0.00  0.00     0.004 A 
ATOM     11  C   UNL d   1      53.247  31.766  53.424  0.00  0.00     0.099 A 
ATOM     12  C   UNL d   1      54.011  31.665  53.727  0.00  0.00     0.021 A 
ENDROOT
BRANCH   1  13
ATOM     13  O   UNL d   1      52.044  33.896  53.817  0.00  0.00    -0.269 OA
BRANCH  13  14
ATOM     14  C   UNL d   1      51.923  34.340  53.132  0.00  0.00     0.323 C 
ATOM     15  O   UNL d   1      52.545  34.775  52.817  0.00  0.00    -0.257 OA
BRANCH  14  16
ATOM     16  C   UNL d   1      51.187  34.348  52.764  0.00  0.00     0.163 A 
ATOM     17  O   UNL d   1      50.452  34.424  53.141  0.00  0.00    -0.300 OA
ATOM     18  C   UNL d   1      49.870  34.405  52.570  0.00  0.00     0.123 A 
ATOM     19  C   UNL d   1      50.241  34.316  51.825  0.00  0.00     0.029 A 
ATOM     20  C   UNL d   1      51.053  34.282  51.956  0.00  0.00     0.032 A 
ENDBRANCH  14  16
ENDBRANCH  13  14
ENDBRANCH   1  13
TORSDOF 3
ENDMDL
MODEL 4
REMARK VINA RESULT:      -7.2      1.626      2.833
REMARK  3 active torsions:
REMARK  status: ('A' for Active; 'I' for Inactive)
REMARK    1  A    between atoms: O_3  and  C_1 
REMARK    2  A    between atoms: C_4  and  O_3 
REMARK    3  A    between atoms: C_8  and  C_4 
ROOT
ATOM      1  C   UNL d   1      53.110  32.855  53.404  0.00  0.00     0.131 A 
ATOM      2  C   UNL d   1      52.538  33.442  53.295  0.00  0.00     0.106 A 
ATOM      3  C   UNL d   1      51.774  33.243  53.061  0.00  0.00     0.030 A 
ATOM      4  C   UNL d   1      52.912  32.059  53.277  0.00  0.00     0.083 A 
ATOM      5  C   UNL d   1      51.576  32.447  52.933  0.00  0.00     0.060 A 
ATOM      6  C   UNL d   1      52.140  31.858  53.040  0.00  0.00     0.025 A 
ATOM      7  N   UNL d   1      52.737  34.233  53.423  0.00  0.00    -0.242 NA
ATOM      8 CL   UNL d   1      53.471  31.465  53.381  0.00  0.00    -0.080 Cl
ATOM      9 CL   UNL d   1      50.811  32.248  52.699  0.00  0.00    -0.082 Cl
ATOM     10  C   UNL d   1      51.212  33.823  52.954  0.00  0.00     0.004 A 
ATOM     11  C   UNL d   1      52.173  34.821  53.316  0.00  0.00     0.099 A 
ATOM     12  C   UNL d   1      51.406  34.617  53.080  0.00  0.00     0.021 A 
ENDROOT
BRANCH   1  13
ATOM     13  O   UNL d   1      53.869  33.044  53.636  0.00  0.00    -0.269 OA
BRANCH  13  14
ATOM     14  C   UNL d   1      54.113  32.918  54.414  0.00  0.00     0.323 C 
ATOM     15  O   UNL d   1      53.707  32.378  54.883  0.00  0.00    -0.257 OA
BRANCH  14  16
ATOM     16  C   UNL d   1      54.757  33.327  54.721  0.00  0.00     0.163 A 
ATOM     17  O   UNL d   1      55.446  33.536  54.310  0.00  0.00    -0.300 OA
ATOM     18  C   UNL d   1      55.938  33.935  54.824  0.00  0.00     0.123 A 
ATOM     19  C   UNL d   1      55.557  33.978  55.568  0.00  0.00     0.029 A 
ATOM     20  C   UNL d   1      54.829  33.600  55.493  0.00  0.00     0.032 A 
ENDBRANCH  14  16
ENDBRANCH  13  14
ENDBRANCH   1  13
TORSDOF 3
ENDMDL
