MODEL 1
REMARK VINA RESULT:      18.0      0.000      0.000
REMARK  2 active torsions:
REMARK  status: ('A' for Active; 'I' for Inactive)
REMARK    1  A    between atoms: O_3  and  C_1 
REMARK    2  A    between atoms: C_2  and  O_3 
REMARK       I    between atoms: N_7  and  C_2 
ROOT
ATOM      1  C   UNL d   1      46.482 -18.152  43.296  0.00  0.00     0.133 A 
ATOM      2  C   UNL d   1      46.538 -18.883  43.702  0.00  0.00     0.106 A 
ATOM      3  C   UNL d   1      46.589 -19.579  43.274  0.00  0.00     0.030 A 
ATOM      4  C   UNL d   1      46.479 -18.136  42.474  0.00  0.00     0.083 A 
ATOM      5  C   UNL d   1      46.586 -19.573  42.451  0.00  0.00     0.060 A 
ATOM      6  C   UNL d   1      46.531 -18.842  42.046  0.00  0.00     0.025 A 
ATOM      7  N   UNL d   1      46.540 -18.887  44.528  0.00  0.00    -0.242 NA
ATOM      8 CL   UNL d   1      46.424 -17.416  42.074  0.00  0.00    -0.080 Cl
ATOM      9 CL   UNL d   1      46.638 -20.273  42.016  0.00  0.00    -0.082 Cl
ATOM     10  C   UNL d   1      46.644 -20.299  43.673  0.00  0.00     0.004 A 
ATOM     11  C   UNL d   1      46.595 -19.607  44.927  0.00  0.00     0.099 A 
ATOM     12  C   UNL d   1      46.647 -20.315  44.496  0.00  0.00     0.021 A 
ENDROOT
BRANCH   1  13
ATOM     13  O   UNL d   1      46.429 -17.433  43.721  0.00  0.00    -0.257 OA
BRANCH  13  14
ATOM     14  C   UNL d   1      45.689 -17.050  43.805  0.00  0.00     0.378 C 
ATOM     15  N   UNL d   1      45.641 -16.323  44.181  0.00  0.00    -0.252 N 
ATOM     16  C   UNL d   1      44.907 -15.949  44.261  0.00  0.00     0.085 A 
ATOM     17  C   UNL d   1      46.321 -15.963  44.479  0.00  0.00     0.085 A 
ATOM     18  C   UNL d   1      44.856 -15.219  44.639  0.00  0.00     0.019 A 
ATOM     19  C   UNL d   1      45.536 -14.859  44.937  0.00  0.00     0.003 A 
ATOM     20  C   UNL d   1      46.264 -15.232  44.856  0.00  0.00     0.019 A 
ATOM     21  O   UNL d   1      44.999 -17.415  43.503  0.00  0.00    -0.237 OA
ENDBRANCH  13  14
ENDBRANCH   1  13
TORSDOF 2
ENDMDL
MODEL 2
REMARK VINA RESULT:      18.7      1.097      1.752
REMARK  2 active torsions:
REMARK  status: ('A' for Active; 'I' for Inactive)
REMARK    1  A    between atoms: O_3  and  C_1 
REMARK    2  A    between atoms: C_2  and  O_3 
REMARK       I    between atoms: N_7  and  C_2 
ROOT
ATOM      1  C   UNL d   1      46.453 -17.878  43.541  0.00  0.00     0.133 A 
ATOM      2  C   UNL d   1      46.518 -18.170  42.758  0.00  0.00     0.106 A 
ATOM      3  C   UNL d   1      46.563 -18.977  42.631  0.00  0.00     0.030 A 
ATOM      4  C   UNL d   1      46.433 -18.401  44.176  0.00  0.00     0.083 A 
ATOM      5  C   UNL d   1      46.544 -19.508  43.260  0.00  0.00     0.060 A 
ATOM      6  C   UNL d   1      46.478 -19.216  44.042  0.00  0.00     0.025 A 
ATOM      7  N   UNL d   1      46.537 -17.636  42.128  0.00  0.00    -0.242 NA
ATOM      8 CL   UNL d   1      46.368 -18.114  44.946  0.00  0.00    -0.080 Cl
ATOM      9 CL   UNL d   1      46.588 -20.324  43.135  0.00  0.00    -0.082 Cl
ATOM     10  C   UNL d   1      46.627 -19.265  41.860  0.00  0.00     0.004 A 
ATOM     11  C   UNL d   1      46.602 -17.923  41.358  0.00  0.00     0.099 A 
ATOM     12  C   UNL d   1      46.647 -18.742  41.226  0.00  0.00     0.021 A 
ENDROOT
BRANCH   1  13
ATOM     13  O   UNL d   1      46.406 -17.055  43.685  0.00  0.00    -0.257 OA
BRANCH  13  14
ATOM     14  C   UNL d   1      45.771 -16.744  44.134  0.00  0.00     0.378 C 
ATOM     15  N   UNL d   1      45.719 -15.937  44.272  0.00  0.00    -0.252 N 
ATOM     16  C   UNL d   1      45.089 -15.636  44.715  0.00  0.00     0.085 A 
ATOM     17  C   UNL d   1      46.292 -15.426  43.969  0.00  0.00     0.085 A 
ATOM     18  C   UNL d   1      45.035 -14.825  44.855  0.00  0.00     0.019 A 
ATOM     19  C   UNL d   1      45.608 -14.314  44.552  0.00  0.00     0.003 A 
ATOM     20  C   UNL d   1      46.232 -14.616  44.112  0.00  0.00     0.019 A 
ATOM     21  O   UNL d   1      45.190 -17.262  44.441  0.00  0.00    -0.237 OA
ENDBRANCH  13  14
ENDBRANCH   1  13
TORSDOF 2
ENDMDL
