MODEL 1
REMARK VINA RESULT:     138.6      0.000      0.000
REMARK  3 active torsions:
REMARK  status: ('A' for Active; 'I' for Inactive)
REMARK    1  A    between atoms: N_4  and  C_1 
REMARK    2  A    between atoms: C_15  and  C_5 
REMARK    3  A    between atoms: C_9  and  N_8 
ROOT
ATOM      1  C   UNL d   1      61.218  45.825  50.988  0.00  0.00     0.169 A 
ATOM      2  N   UNL d   1      60.658  46.042  51.552  0.00  0.00    -0.130 NA
ATOM      3  N   UNL d   1      60.382  46.830  51.548  0.00  0.00    -0.147 NA
ATOM      4  C   UNL d   1      60.658  47.368  51.004  0.00  0.00     0.103 A 
ATOM      5  C   UNL d   1      61.492  46.362  50.446  0.00  0.00     0.038 A 
ATOM      6  C   UNL d   1      61.209  47.141  50.454  0.00  0.00     0.022 A 
ATOM      7  C   UNL d   1      62.067  46.133  49.870  0.00  0.00     0.003 A 
ATOM      8  C   UNL d   1      61.511  47.690  49.874  0.00  0.00     0.002 A 
ATOM      9  C   UNL d   1      62.360  46.689  49.297  0.00  0.00     0.000 A 
ATOM     10  C   UNL d   1      62.068  47.464  49.317  0.00  0.00     0.000 A 
ENDROOT
BRANCH   1  11
ATOM     11  N   UNL d   1      61.496  45.060  50.980  0.00  0.00    -0.285 N 
ATOM     12  C   UNL d   1      61.750  44.700  50.280  0.00  0.00     0.101 A 
ATOM     13  C   UNL d   1      62.031  43.925  50.272  0.00  0.00     0.101 A 
ATOM     14  N   UNL d   1      62.065  43.492  50.964  0.00  0.00    -0.286 N 
ATOM     15  C   UNL d   1      61.818  43.834  51.659  0.00  0.00     0.101 A 
ATOM     16  C   UNL d   1      61.528  44.633  51.667  0.00  0.00     0.101 A 
BRANCH  14  17
ATOM     17  C   UNL d   1      62.343  42.717  50.972  0.00  0.00     0.148 A 
ATOM     18  N   UNL d   1      62.167  42.192  51.587  0.00  0.00    -0.227 NA
ATOM     19  C   UNL d   1      62.446  41.416  51.595  0.00  0.00     0.101 A 
ATOM     20  C   UNL d   1      62.913  41.150  50.977  0.00  0.00     0.021 A 
ATOM     21  C   UNL d   1      63.088  41.664  50.369  0.00  0.00     0.005 A 
ATOM     22  C   UNL d   1      62.809  42.439  50.363  0.00  0.00     0.037 A 
ENDBRANCH  14  17
ENDBRANCH   1  11
BRANCH   4  23
ATOM     23  C   UNL d   1      60.375  48.148  51.012  0.00  0.00     0.019 A 
ATOM     24  C   UNL d   1      59.610  48.299  50.745  0.00  0.00     0.002 A 
ATOM     25  C   UNL d   1      59.320  49.081  50.751  0.00  0.00     0.000 A 
ATOM     26  C   UNL d   1      59.784  49.708  51.019  0.00  0.00     0.000 A 
ATOM     27  C   UNL d   1      60.555  49.557  51.287  0.00  0.00     0.000 A 
ATOM     28  C   UNL d   1      60.856  48.768  51.285  0.00  0.00     0.002 A 
ENDBRANCH   4  23
TORSDOF 3
ENDMDL
