MODEL 1
REMARK VINA RESULT:      -3.3      0.000      0.000
REMARK  3 active torsions:
REMARK  status: ('A' for Active; 'I' for Inactive)
REMARK    1  A    between atoms: C_14  and  C_4 
REMARK    2  A    between atoms: C_10  and  O_11 
REMARK    3  A    between atoms: O_11  and  C_14 
ROOT
ATOM      1  C   UNL d   1      32.842  19.838 -21.900  0.00  0.00     0.144 C 
ENDROOT
BRANCH   1   2
ATOM      2  O   UNL d   1      32.951  19.853 -22.726  0.00  0.00    -0.303 OA
BRANCH   2   3
ATOM      3  C   UNL d   1      32.987  19.165 -23.142  0.00  0.00     0.100 A 
ATOM      4  C   UNL d   1      33.130  19.175 -23.958  0.00  0.00     0.024 A 
ATOM      5  C   UNL d   1      33.165  18.454 -24.376  0.00  0.00     0.013 A 
ATOM      6  C   UNL d   1      33.240  19.873 -24.368  0.00  0.00     0.002 C 
ATOM      7  C   UNL d   1      33.058  17.733 -23.989  0.00  0.00     0.058 A 
ATOM      8  C   UNL d   1      32.914  17.723 -23.173  0.00  0.00     0.013 A 
ATOM      9 CL   UNL d   1      33.091  16.994 -24.406  0.00  0.00    -0.082 Cl
ATOM     10  C   UNL d   1      32.876  18.434 -22.737  0.00  0.00     0.026 A 
ENDBRANCH   2   3
ENDBRANCH   1   2
BRANCH   1  11
ATOM     11  C   UNL d   1      32.761  20.528 -21.485  0.00  0.00     0.142 A 
ATOM     12  N   UNL d   1      32.154  21.080 -21.583  0.00  0.00    -0.057 NA
ATOM     13  C   UNL d   1      32.285  21.684 -21.060  0.00  0.00     0.735 A 
ATOM     14  N   UNL d   1      32.961  21.515 -20.642  0.00  0.00    -0.136 N 
ATOM     15  N   UNL d   1      31.865  22.383 -20.907  0.00  0.00    -0.059 NA
ATOM     16  C   UNL d   1      33.238  20.806 -20.914  0.00  0.00     0.120 A 
ATOM     17  C   UNL d   1      33.223  22.056 -20.059  0.00  0.00     0.100 A 
ATOM     18  C   UNL d   1      32.815  22.735 -19.910  0.00  0.00     0.041 A 
ATOM     19  C   UNL d   1      32.129  22.901 -20.339  0.00  0.00     0.119 A 
ENDBRANCH   1  11
TORSDOF 3
ENDMDL
MODEL 2
REMARK VINA RESULT:      -2.9      2.318      4.665
REMARK  3 active torsions:
REMARK  status: ('A' for Active; 'I' for Inactive)
REMARK    1  A    between atoms: C_14  and  C_4 
REMARK    2  A    between atoms: C_10  and  O_11 
REMARK    3  A    between atoms: O_11  and  C_14 
ROOT
ATOM      1  C   UNL d   1      33.167  20.782 -21.467  0.00  0.00     0.144 C 
ENDROOT
BRANCH   1   2
ATOM      2  O   UNL d   1      32.835  21.544 -21.530  0.00  0.00    -0.303 OA
BRANCH   2   3
ATOM      3  C   UNL d   1      32.846  22.044 -20.900  0.00  0.00     0.100 A 
ATOM      4  C   UNL d   1      32.488  22.790 -20.950  0.00  0.00     0.024 A 
ATOM      5  C   UNL d   1      32.507  23.297 -20.288  0.00  0.00     0.013 A 
ATOM      6  C   UNL d   1      32.114  23.044 -21.630  0.00  0.00     0.002 C 
ATOM      7  C   UNL d   1      32.877  23.068 -19.587  0.00  0.00     0.058 A 
ATOM      8  C   UNL d   1      33.235  22.322 -19.537  0.00  0.00     0.013 A 
ATOM      9 CL   UNL d   1      32.901  23.578 -18.909  0.00  0.00    -0.082 Cl
ATOM     10  C   UNL d   1      33.227  21.800 -20.188  0.00  0.00     0.026 A 
ENDBRANCH   2   3
ENDBRANCH   1   2
BRANCH   1  11
ATOM     11  C   UNL d   1      33.127  20.265 -22.088  0.00  0.00     0.142 A 
ATOM     12  N   UNL d   1      33.241  20.458 -22.883  0.00  0.00    -0.057 NA
ATOM     13  C   UNL d   1      33.152  19.780 -23.315  0.00  0.00     0.735 A 
ATOM     14  N   UNL d   1      32.986  19.172 -22.803  0.00  0.00    -0.136 N 
ATOM     15  N   UNL d   1      33.203  19.634 -24.131  0.00  0.00    -0.059 NA
ATOM     16  C   UNL d   1      32.974  19.486 -22.058  0.00  0.00     0.120 A 
ATOM     17  C   UNL d   1      32.867  18.402 -23.111  0.00  0.00     0.100 A 
ATOM     18  C   UNL d   1      32.916  18.260 -23.903  0.00  0.00     0.041 A 
ATOM     19  C   UNL d   1      33.086  18.882 -24.419  0.00  0.00     0.119 A 
ENDBRANCH   1  11
TORSDOF 3
ENDMDL
MODEL 3
REMARK VINA RESULT:      -2.7      2.348      4.635
REMARK  3 active torsions:
REMARK  status: ('A' for Active; 'I' for Inactive)
REMARK    1  A    between atoms: C_14  and  C_4 
REMARK    2  A    between atoms: C_10  and  O_11 
REMARK    3  A    between atoms: O_11  and  C_14 
ROOT
ATOM      1  C   UNL d   1      33.172  20.094 -22.488  0.00  0.00     0.144 C 
ENDROOT
BRANCH   1   2
ATOM      2  O   UNL d   1      32.747  20.423 -21.852  0.00  0.00    -0.303 OA
BRANCH   2   3
ATOM      3  C   UNL d   1      32.764  21.217 -21.721  0.00  0.00     0.100 A 
ATOM      4  C   UNL d   1      32.335  21.550 -21.095  0.00  0.00     0.024 A 
ATOM      5  C   UNL d   1      32.363  22.374 -20.973  0.00  0.00     0.013 A 
ATOM      6  C   UNL d   1      31.882  21.092 -20.592  0.00  0.00     0.002 C 
ATOM      7  C   UNL d   1      32.811  22.862 -21.464  0.00  0.00     0.058 A 
ATOM      8  C   UNL d   1      33.241  22.530 -22.090  0.00  0.00     0.013 A 
ATOM      9 CL   UNL d   1      32.846  23.702 -21.346  0.00  0.00    -0.082 Cl
ATOM     10  C   UNL d   1      33.226  21.707 -22.230  0.00  0.00     0.026 A 
ENDBRANCH   2   3
ENDBRANCH   1   2
BRANCH   1  11
ATOM     11  C   UNL d   1      32.990  19.354 -22.763  0.00  0.00     0.142 A 
ATOM     12  N   UNL d   1      33.241  18.642 -22.428  0.00  0.00    -0.057 NA
ATOM     13  C   UNL d   1      32.935  18.040 -22.874  0.00  0.00     0.735 A 
ATOM     14  N   UNL d   1      32.500  18.367 -23.478  0.00  0.00    -0.136 N 
ATOM     15  N   UNL d   1      32.998  17.215 -22.807  0.00  0.00    -0.059 NA
ATOM     16  C   UNL d   1      32.545  19.170 -23.394  0.00  0.00     0.120 A 
ATOM     17  C   UNL d   1      32.121  17.860 -24.025  0.00  0.00     0.100 A 
ATOM     18  C   UNL d   1      32.182  17.059 -23.960  0.00  0.00     0.041 A 
ATOM     19  C   UNL d   1      32.625  16.732 -23.344  0.00  0.00     0.119 A 
ENDBRANCH   1  11
TORSDOF 3
ENDMDL
MODEL 4
REMARK VINA RESULT:      -1.9      3.695      4.973
REMARK  3 active torsions:
REMARK  status: ('A' for Active; 'I' for Inactive)
REMARK    1  A    between atoms: C_14  and  C_4 
REMARK    2  A    between atoms: C_10  and  O_11 
REMARK    3  A    between atoms: O_11  and  C_14 
ROOT
ATOM      1  C   UNL d   1      30.675  17.001 -24.231  0.00  0.00     0.144 C 
ENDROOT
BRANCH   1   2
ATOM      2  O   UNL d   1      29.896  17.214 -24.434  0.00  0.00    -0.303 OA
BRANCH   2   3
ATOM      3  C   UNL d   1      29.273  16.798 -24.140  0.00  0.00     0.100 A 
ATOM      4  C   UNL d   1      28.556  17.179 -23.969  0.00  0.00     0.024 A 
ATOM      5  C   UNL d   1      27.920  16.735 -23.665  0.00  0.00     0.013 A 
ATOM      6  C   UNL d   1      28.455  17.981 -24.091  0.00  0.00     0.002 C 
ATOM      7  C   UNL d   1      27.993  15.924 -23.531  0.00  0.00     0.058 A 
ATOM      8  C   UNL d   1      28.709  15.543 -23.702  0.00  0.00     0.013 A 
ATOM      9 CL   UNL d   1      27.350  15.464 -23.222  0.00  0.00    -0.082 Cl
ATOM     10  C   UNL d   1      29.358  15.970 -24.007  0.00  0.00     0.026 A 
ENDBRANCH   2   3
ENDBRANCH   1   2
BRANCH   1  11
ATOM     11  C   UNL d   1      31.268  17.552 -24.250  0.00  0.00     0.142 A 
ATOM     12  N   UNL d   1      31.640  17.883 -23.591  0.00  0.00    -0.057 NA
ATOM     13  C   UNL d   1      32.197  18.405 -23.860  0.00  0.00     0.735 A 
ATOM     14  N   UNL d   1      32.177  18.402 -24.672  0.00  0.00    -0.136 N 
ATOM     15  N   UNL d   1      32.734  18.895 -23.459  0.00  0.00    -0.059 NA
ATOM     16  C   UNL d   1      31.604  17.875 -24.893  0.00  0.00     0.120 A 
ATOM     17  C   UNL d   1      32.704  18.898 -25.093  0.00  0.00     0.100 A 
ATOM     18  C   UNL d   1      33.225  19.374 -24.704  0.00  0.00     0.041 A 
ATOM     19  C   UNL d   1      33.241  19.373 -23.878  0.00  0.00     0.119 A 
ENDBRANCH   1  11
TORSDOF 3
ENDMDL
MODEL 5
REMARK VINA RESULT:      -0.8      1.390      1.998
REMARK  3 active torsions:
REMARK  status: ('A' for Active; 'I' for Inactive)
REMARK    1  A    between atoms: C_14  and  C_4 
REMARK    2  A    between atoms: C_10  and  O_11 
REMARK    3  A    between atoms: O_11  and  C_14 
ROOT
ATOM      1  C   UNL d   1      32.403  18.649 -22.848  0.00  0.00     0.144 C 
ENDROOT
BRANCH   1   2
ATOM      2  O   UNL d   1      32.549  18.462 -23.646  0.00  0.00    -0.303 OA
BRANCH   2   3
ATOM      3  C   UNL d   1      32.190  17.826 -23.985  0.00  0.00     0.100 A 
ATOM      4  C   UNL d   1      32.483  17.505 -24.691  0.00  0.00     0.024 A 
ATOM      5  C   UNL d   1      32.101  16.846 -25.030  0.00  0.00     0.013 A 
ATOM      6  C   UNL d   1      33.139  17.817 -25.067  0.00  0.00     0.002 C 
ATOM      7  C   UNL d   1      31.437  16.510 -24.674  0.00  0.00     0.058 A 
ATOM      8  C   UNL d   1      31.144  16.831 -23.967  0.00  0.00     0.013 A 
ATOM      9 CL   UNL d   1      31.041  15.839 -25.012  0.00  0.00    -0.082 Cl
ATOM     10  C   UNL d   1      31.513  17.490 -23.613  0.00  0.00     0.026 A 
ENDBRANCH   2   3
ENDBRANCH   1   2
BRANCH   1  11
ATOM     11  C   UNL d   1      32.595  19.379 -22.557  0.00  0.00     0.142 A 
ATOM     12  N   UNL d   1      32.726  19.562 -21.762  0.00  0.00    -0.057 NA
ATOM     13  C   UNL d   1      32.903  20.351 -21.717  0.00  0.00     0.735 A 
ATOM     14  N   UNL d   1      32.884  20.658 -22.468  0.00  0.00    -0.136 N 
ATOM     15  N   UNL d   1      33.083  20.840 -21.071  0.00  0.00    -0.059 NA
ATOM     16  C   UNL d   1      32.695  20.051 -22.968  0.00  0.00     0.120 A 
ATOM     17  C   UNL d   1      33.049  21.472 -22.578  0.00  0.00     0.100 A 
ATOM     18  C   UNL d   1      33.224  21.947 -21.951  0.00  0.00     0.041 A 
ATOM     19  C   UNL d   1      33.241  21.629 -21.189  0.00  0.00     0.119 A 
ENDBRANCH   1  11
TORSDOF 3
ENDMDL
