MODEL 1
REMARK VINA RESULT:      63.1      0.000      0.000
REMARK  9 active torsions:
REMARK  status: ('A' for Active; 'I' for Inactive)
REMARK    1  A    between atoms: C_12  and  N_1 
REMARK    2  A    between atoms: C_13  and  N_2 
REMARK    3  A    between atoms: O_9  and  C_23 
REMARK    4  A    between atoms: C_10  and  O_9 
REMARK    5  A    between atoms: C_11  and  C_12 
REMARK    6  A    between atoms: C_18  and  C_13 
REMARK    7  A    between atoms: C_26  and  C_15 
REMARK    8  A    between atoms: C_16  and  C_26 
REMARK    9  A    between atoms: C_23  and  C_18 
ROOT
ATOM      1  N   UNL d   1     -47.251  30.362  35.569  0.00  0.00    -0.300 N 
ATOM      2  N   UNL d   1     -47.730  28.820  35.166  0.00  0.00    -0.297 N 
ATOM      3  C   UNL d   1     -46.936  29.986  34.933  0.00  0.00     0.100 A 
ATOM      4  C   UNL d   1     -48.063  29.188  35.820  0.00  0.00     0.100 A 
ATOM      5  C   UNL d   1     -47.158  29.219  34.713  0.00  0.00     0.100 A 
ATOM      6  C   UNL d   1     -47.823  29.959  36.021  0.00  0.00     0.100 A 
ENDROOT
BRANCH   2   7
ATOM      7  C   UNL d   1     -47.954  28.071  34.961  0.00  0.00     0.125 C 
BRANCH   7   8
ATOM      8  C   UNL d   1     -48.723  27.825  35.004  0.00  0.00     0.238 C 
ATOM      9  O   UNL d   1     -49.157  28.032  35.684  0.00  0.00    -0.283 OA
BRANCH   8  10
ATOM     10  C   UNL d   1     -49.056  27.399  34.415  0.00  0.00     0.166 C 
BRANCH  10  11
ATOM     11  O   UNL d   1     -49.587  26.787  34.589  0.00  0.00    -0.302 OA
BRANCH  11  12
ATOM     12  C   UNL d   1     -50.276  26.708  34.169  0.00  0.00     0.100 A 
ATOM     13  C   UNL d   1     -50.440  26.022  33.754  0.00  0.00     0.023 A 
ATOM     14  C   UNL d   1     -51.137  25.931  33.324  0.00  0.00     0.002 A 
ATOM     15  C   UNL d   1     -51.691  26.547  33.306  0.00  0.00     0.000 A 
ATOM     16  C   UNL d   1     -51.537  27.255  33.725  0.00  0.00     0.002 A 
ATOM     17  C   UNL d   1     -50.820  27.326  34.157  0.00  0.00     0.025 A 
BRANCH  13  18
ATOM     18  C   UNL d   1     -49.899  25.416  33.769  0.00  0.00     0.002 C 
BRANCH  18  19
ATOM     19  C   UNL d   1     -50.036  24.734  33.344  0.00  0.00     0.000 C 
ATOM     20  C   UNL d   1     -49.486  24.113  33.356  0.00  0.00     0.000 C 
ENDBRANCH  18  19
ENDBRANCH  13  18
ENDBRANCH  11  12
ENDBRANCH  10  11
ENDBRANCH   8  10
ENDBRANCH   7   8
ENDBRANCH   2   7
BRANCH   1  21
ATOM     21  C   UNL d   1     -47.018  31.111  35.764  0.00  0.00     0.080 C 
BRANCH  21  22
ATOM     22  C   UNL d   1     -47.125  31.705  35.220  0.00  0.00     0.020 A 
ATOM     23  C   UNL d   1     -47.875  31.964  35.050  0.00  0.00     0.028 A 
ATOM     24  C   UNL d   1     -47.956  32.571  34.491  0.00  0.00     0.119 A 
ATOM     25  O   UNL d   1     -48.651  32.922  34.229  0.00  0.00    -0.300 OA
ATOM     26  C   UNL d   1     -47.308  32.897  34.125  0.00  0.00     0.119 A 
ATOM     27  C   UNL d   1     -48.439  33.511  33.659  0.00  0.00     0.304 A 
ATOM     28  O   UNL d   1     -47.600  33.482  33.607  0.00  0.00    -0.300 OA
ATOM     29  C   UNL d   1     -46.543  32.634  34.298  0.00  0.00     0.026 A 
ATOM     30  C   UNL d   1     -46.457  32.030  34.854  0.00  0.00     0.004 A 
ENDBRANCH  21  22
ENDBRANCH   1  21
TORSDOF 9
ENDMDL
MODEL 2
REMARK VINA RESULT:      63.4      0.787      1.075
REMARK  9 active torsions:
REMARK  status: ('A' for Active; 'I' for Inactive)
REMARK    1  A    between atoms: C_12  and  N_1 
REMARK    2  A    between atoms: C_13  and  N_2 
REMARK    3  A    between atoms: O_9  and  C_23 
REMARK    4  A    between atoms: C_10  and  O_9 
REMARK    5  A    between atoms: C_11  and  C_12 
REMARK    6  A    between atoms: C_18  and  C_13 
REMARK    7  A    between atoms: C_26  and  C_15 
REMARK    8  A    between atoms: C_16  and  C_26 
REMARK    9  A    between atoms: C_23  and  C_18 
ROOT
ATOM      1  N   UNL d   1     -47.728  29.546  35.775  0.00  0.00    -0.300 N 
ATOM      2  N   UNL d   1     -48.888  28.385  35.499  0.00  0.00    -0.297 N 
ATOM      3  C   UNL d   1     -47.824  29.226  35.044  0.00  0.00     0.100 A 
ATOM      4  C   UNL d   1     -48.805  28.700  36.251  0.00  0.00     0.100 A 
ATOM      5  C   UNL d   1     -48.395  28.647  34.883  0.00  0.00     0.100 A 
ATOM      6  C   UNL d   1     -48.224  29.281  36.389  0.00  0.00     0.100 A 
ENDROOT
BRANCH   2   7
ATOM      7  C   UNL d   1     -49.448  27.821  35.353  0.00  0.00     0.125 C 
BRANCH   7   8
ATOM      8  C   UNL d   1     -49.593  27.539  34.609  0.00  0.00     0.238 C 
ATOM      9  O   UNL d   1     -49.048  27.735  34.010  0.00  0.00    -0.283 OA
BRANCH   8  10
ATOM     10  C   UNL d   1     -50.234  27.089  34.453  0.00  0.00     0.166 C 
BRANCH  10  11
ATOM     11  O   UNL d   1     -50.179  26.448  33.930  0.00  0.00    -0.302 OA
BRANCH  11  12
ATOM     12  C   UNL d   1     -50.841  26.026  33.726  0.00  0.00     0.100 A 
ATOM     13  C   UNL d   1     -50.790  25.233  33.528  0.00  0.00     0.023 A 
ATOM     14  C   UNL d   1     -51.455  24.794  33.319  0.00  0.00     0.002 A 
ATOM     15  C   UNL d   1     -52.200  25.159  33.307  0.00  0.00     0.000 A 
ATOM     16  C   UNL d   1     -52.268  25.969  33.507  0.00  0.00     0.002 A 
ATOM     17  C   UNL d   1     -51.576  26.397  33.717  0.00  0.00     0.025 A 
BRANCH  13  18
ATOM     18  C   UNL d   1     -50.062  24.872  33.538  0.00  0.00     0.002 C 
BRANCH  18  19
ATOM     19  C   UNL d   1     -50.004  24.065  33.441  0.00  0.00     0.000 C 
ATOM     20  C   UNL d   1     -49.267  23.710  33.306  0.00  0.00     0.000 C 
ENDBRANCH  18  19
ENDBRANCH  13  18
ENDBRANCH  11  12
ENDBRANCH  10  11
ENDBRANCH   8  10
ENDBRANCH   7   8
ENDBRANCH   2   7
BRANCH   1  21
ATOM     21  C   UNL d   1     -47.165  30.109  35.909  0.00  0.00     0.080 C 
BRANCH  21  22
ATOM     22  C   UNL d   1     -47.161  30.773  35.440  0.00  0.00     0.020 A 
ATOM     23  C   UNL d   1     -47.862  31.141  35.259  0.00  0.00     0.028 A 
ATOM     24  C   UNL d   1     -47.830  31.817  34.780  0.00  0.00     0.119 A 
ATOM     25  O   UNL d   1     -48.459  32.280  34.523  0.00  0.00    -0.300 OA
ATOM     26  C   UNL d   1     -47.123  32.103  34.500  0.00  0.00     0.119 A 
ATOM     27  C   UNL d   1     -48.138  32.903  34.049  0.00  0.00     0.304 A 
ATOM     28  O   UNL d   1     -47.306  32.778  34.045  0.00  0.00    -0.300 OA
ATOM     29  C   UNL d   1     -46.409  31.729  34.684  0.00  0.00     0.026 A 
ATOM     30  C   UNL d   1     -46.435  31.056  35.161  0.00  0.00     0.004 A 
ENDBRANCH  21  22
ENDBRANCH   1  21
TORSDOF 9
ENDMDL
