MODEL 1
REMARK VINA RESULT:      -3.1      0.000      0.000
REMARK  4 active torsions:
REMARK  status: ('A' for Active; 'I' for Inactive)
REMARK    1  A    between atoms: C_3  and  C_1 
REMARK    2  A    between atoms: C_2  and  C_3 
REMARK    3  A    between atoms: C_6  and  C_2 
REMARK    4  A    between atoms: C_16  and  C_6 
ROOT
ATOM      1  C   UNL d   1      29.542  15.933 -23.602  0.00  0.00     0.119 A 
ATOM      2  C   UNL d   1      29.202  16.151 -24.317  0.00  0.00     0.119 A 
ATOM      3  O   UNL d   1      28.957  15.572 -23.148  0.00  0.00    -0.300 OA
ATOM      4  O   UNL d   1      28.410  15.927 -24.308  0.00  0.00    -0.300 OA
ATOM      5  C   UNL d   1      28.262  15.566 -23.577  0.00  0.00     0.304 A 
ATOM      6  C   UNL d   1      30.339  16.091 -23.457  0.00  0.00     0.026 A 
ATOM      7  C   UNL d   1      30.801  16.475 -24.041  0.00  0.00     0.002 A 
ATOM      8  C   UNL d   1      29.664  16.535 -24.901  0.00  0.00     0.026 A 
ATOM      9  C   UNL d   1      30.462  16.698 -24.765  0.00  0.00     0.002 A 
ENDROOT
BRANCH   7  10
ATOM     10  C   UNL d   1      31.618  16.644 -23.907  0.00  0.00     0.003 C 
BRANCH  10  11
ATOM     11  C   UNL d   1      31.837  17.416 -23.706  0.00  0.00     0.043 C 
BRANCH  11  12
ATOM     12  C   UNL d   1      32.626  17.576 -23.528  0.00  0.00     0.202 C 
ATOM     13  O   UNL d   1      33.180  16.966 -23.540  0.00  0.00    -0.286 OA
BRANCH  12  14
ATOM     14  C   UNL d   1      32.867  18.341 -23.339  0.00  0.00     0.068 A 
ATOM     15  S   UNL d   1      33.007  19.015 -23.807  0.00  0.00    -0.083 SA
ATOM     16  C   UNL d   1      33.236  19.620 -23.310  0.00  0.00     0.035 A 
ATOM     17  C   UNL d   1      33.241  19.336 -22.550  0.00  0.00     0.008 A 
ATOM     18  C   UNL d   1      33.015  18.551 -22.556  0.00  0.00     0.010 A 
ENDBRANCH  12  14
ENDBRANCH  11  12
ENDBRANCH  10  11
ENDBRANCH   7  10
TORSDOF 4
ENDMDL
MODEL 2
REMARK VINA RESULT:      -2.3      3.311      5.807
REMARK  4 active torsions:
REMARK  status: ('A' for Active; 'I' for Inactive)
REMARK    1  A    between atoms: C_3  and  C_1 
REMARK    2  A    between atoms: C_2  and  C_3 
REMARK    3  A    between atoms: C_6  and  C_2 
REMARK    4  A    between atoms: C_16  and  C_6 
ROOT
ATOM      1  C   UNL d   1      32.294  22.628 -21.215  0.00  0.00     0.119 A 
ATOM      2  C   UNL d   1      32.553  22.390 -20.473  0.00  0.00     0.119 A 
ATOM      3  O   UNL d   1      31.850  23.315 -21.115  0.00  0.00    -0.300 OA
ATOM      4  O   UNL d   1      32.272  22.926 -19.915  0.00  0.00    -0.300 OA
ATOM      5  C   UNL d   1      31.834  23.501 -20.320  0.00  0.00     0.304 A 
ATOM      6  C   UNL d   1      32.495  22.189 -21.885  0.00  0.00     0.026 A 
ATOM      7  C   UNL d   1      32.965  21.500 -21.806  0.00  0.00     0.002 A 
ATOM      8  C   UNL d   1      33.023  21.701 -20.394  0.00  0.00     0.026 A 
ATOM      9  C   UNL d   1      33.229  21.255 -21.058  0.00  0.00     0.002 A 
ENDROOT
BRANCH   7  10
ATOM     10  C   UNL d   1      33.179  21.040 -22.482  0.00  0.00     0.003 C 
BRANCH  10  11
ATOM     11  C   UNL d   1      33.063  20.221 -22.459  0.00  0.00     0.043 C 
BRANCH  11  12
ATOM     12  C   UNL d   1      33.107  19.790 -23.160  0.00  0.00     0.202 C 
ATOM     13  O   UNL d   1      33.241  20.181 -23.873  0.00  0.00    -0.286 OA
BRANCH  12  14
ATOM     14  C   UNL d   1      33.018  18.971 -23.155  0.00  0.00     0.068 A 
ATOM     15  S   UNL d   1      33.241  18.388 -22.605  0.00  0.00    -0.083 SA
ATOM     16  C   UNL d   1      33.005  17.664 -22.899  0.00  0.00     0.035 A 
ATOM     17  C   UNL d   1      32.644  17.788 -23.615  0.00  0.00     0.008 A 
ATOM     18  C   UNL d   1      32.646  18.587 -23.782  0.00  0.00     0.010 A 
ENDBRANCH  12  14
ENDBRANCH  11  12
ENDBRANCH  10  11
ENDBRANCH   7  10
TORSDOF 4
ENDMDL
MODEL 3
REMARK VINA RESULT:      -2.2      1.941      4.729
REMARK  4 active torsions:
REMARK  status: ('A' for Active; 'I' for Inactive)
REMARK    1  A    between atoms: C_3  and  C_1 
REMARK    2  A    between atoms: C_2  and  C_3 
REMARK    3  A    between atoms: C_6  and  C_2 
REMARK    4  A    between atoms: C_16  and  C_6 
ROOT
ATOM      1  C   UNL d   1      33.228  20.149 -21.579  0.00  0.00     0.119 A 
ATOM      2  C   UNL d   1      33.202  20.839 -22.024  0.00  0.00     0.119 A 
ATOM      3  O   UNL d   1      33.235  20.366 -20.784  0.00  0.00    -0.300 OA
ATOM      4  O   UNL d   1      33.193  21.481 -21.509  0.00  0.00    -0.300 OA
ATOM      5  C   UNL d   1      33.214  21.181 -20.737  0.00  0.00     0.304 A 
ATOM      6  C   UNL d   1      33.241  19.414 -21.955  0.00  0.00     0.026 A 
ATOM      7  C   UNL d   1      33.228  19.373 -22.792  0.00  0.00     0.002 A 
ATOM      8  C   UNL d   1      33.189  20.798 -22.861  0.00  0.00     0.026 A 
ATOM      9  C   UNL d   1      33.202  20.068 -23.246  0.00  0.00     0.002 A 
ENDROOT
BRANCH   7  10
ATOM     10  C   UNL d   1      33.241  18.628 -23.190  0.00  0.00     0.003 C 
BRANCH  10  11
ATOM     11  C   UNL d   1      32.524  18.297 -23.436  0.00  0.00     0.043 C 
BRANCH  11  12
ATOM     12  C   UNL d   1      32.528  17.555 -23.797  0.00  0.00     0.202 C 
ATOM     13  O   UNL d   1      33.237  17.143 -23.878  0.00  0.00    -0.286 OA
BRANCH  12  14
ATOM     14  C   UNL d   1      31.829  17.221 -24.077  0.00  0.00     0.068 A 
ATOM     15  S   UNL d   1      31.436  17.279 -24.809  0.00  0.00    -0.083 SA
ATOM     16  C   UNL d   1      30.761  16.823 -24.766  0.00  0.00     0.035 A 
ATOM     17  C   UNL d   1      30.729  16.487 -24.027  0.00  0.00     0.008 A 
ATOM     18  C   UNL d   1      31.379  16.725 -23.596  0.00  0.00     0.010 A 
ENDBRANCH  12  14
ENDBRANCH  11  12
ENDBRANCH  10  11
ENDBRANCH   7  10
TORSDOF 4
ENDMDL
MODEL 4
REMARK VINA RESULT:      -0.6      2.876      5.386
REMARK  4 active torsions:
REMARK  status: ('A' for Active; 'I' for Inactive)
REMARK    1  A    between atoms: C_3  and  C_1 
REMARK    2  A    between atoms: C_2  and  C_3 
REMARK    3  A    between atoms: C_6  and  C_2 
REMARK    4  A    between atoms: C_16  and  C_6 
ROOT
ATOM      1  C   UNL d   1      32.460  21.805 -20.946  0.00  0.00     0.119 A 
ATOM      2  C   UNL d   1      32.680  22.376 -21.494  0.00  0.00     0.119 A 
ATOM      3  O   UNL d   1      32.091  22.192 -20.320  0.00  0.00    -0.300 OA
ATOM      4  O   UNL d   1      32.450  23.113 -21.210  0.00  0.00    -0.300 OA
ATOM      5  C   UNL d   1      32.082  22.993 -20.477  0.00  0.00     0.304 A 
ATOM      6  C   UNL d   1      32.624  21.009 -21.089  0.00  0.00     0.026 A 
ATOM      7  C   UNL d   1      33.016  20.783 -21.794  0.00  0.00     0.002 A 
ATOM      8  C   UNL d   1      33.073  22.151 -22.199  0.00  0.00     0.026 A 
ATOM      9  C   UNL d   1      33.241  21.357 -22.351  0.00  0.00     0.002 A 
ENDROOT
BRANCH   7  10
ATOM     10  C   UNL d   1      33.190  19.972 -21.954  0.00  0.00     0.003 C 
BRANCH  10  11
ATOM     11  C   UNL d   1      32.860  19.620 -22.627  0.00  0.00     0.043 C 
BRANCH  11  12
ATOM     12  C   UNL d   1      32.922  18.803 -22.722  0.00  0.00     0.202 C 
ATOM     13  O   UNL d   1      33.241  18.343 -22.118  0.00  0.00    -0.286 OA
BRANCH  12  14
ATOM     14  C   UNL d   1      32.668  18.442 -23.418  0.00  0.00     0.068 A 
ATOM     15  S   UNL d   1      32.954  18.470 -24.199  0.00  0.00    -0.083 SA
ATOM     16  C   UNL d   1      32.474  17.996 -24.657  0.00  0.00     0.035 A 
ATOM     17  C   UNL d   1      31.900  17.678 -24.178  0.00  0.00     0.008 A 
ATOM     18  C   UNL d   1      32.010  17.946 -23.415  0.00  0.00     0.010 A 
ENDBRANCH  12  14
ENDBRANCH  11  12
ENDBRANCH  10  11
ENDBRANCH   7  10
TORSDOF 4
ENDMDL
MODEL 5
REMARK VINA RESULT:      -0.6      6.819      7.870
REMARK  4 active torsions:
REMARK  status: ('A' for Active; 'I' for Inactive)
REMARK    1  A    between atoms: C_3  and  C_1 
REMARK    2  A    between atoms: C_2  and  C_3 
REMARK    3  A    between atoms: C_6  and  C_2 
REMARK    4  A    between atoms: C_16  and  C_6 
ROOT
ATOM      1  C   UNL d   1      32.628  23.057 -21.700  0.00  0.00     0.119 A 
ATOM      2  C   UNL d   1      31.908  23.449 -21.644  0.00  0.00     0.119 A 
ATOM      3  O   UNL d   1      32.785  22.942 -22.500  0.00  0.00    -0.300 OA
ATOM      4  O   UNL d   1      31.620  23.578 -22.404  0.00  0.00    -0.300 OA
ATOM      5  C   UNL d   1      32.171  23.259 -22.935  0.00  0.00     0.304 A 
ATOM      6  C   UNL d   1      33.044  22.855 -21.017  0.00  0.00     0.026 A 
ATOM      7  C   UNL d   1      32.732  23.052 -20.265  0.00  0.00     0.002 A 
ATOM      8  C   UNL d   1      31.596  23.646 -20.891  0.00  0.00     0.026 A 
ATOM      9  C   UNL d   1      32.006  23.449 -20.202  0.00  0.00     0.002 A 
ENDROOT
BRANCH   7  10
ATOM     10  C   UNL d   1      33.148  22.852 -19.556  0.00  0.00     0.003 C 
BRANCH  10  11
ATOM     11  C   UNL d   1      32.768  22.960 -18.829  0.00  0.00     0.043 C 
BRANCH  11  12
ATOM     12  C   UNL d   1      33.020  22.523 -18.177  0.00  0.00     0.202 C 
ATOM     13  O   UNL d   1      33.189  21.721 -18.261  0.00  0.00    -0.286 OA
BRANCH  12  14
ATOM     14  C   UNL d   1      33.106  22.882 -17.440  0.00  0.00     0.068 A 
ATOM     15  S   UNL d   1      33.156  23.681 -17.210  0.00  0.00    -0.083 SA
ATOM     16  C   UNL d   1      33.238  23.701 -16.398  0.00  0.00     0.035 A 
ATOM     17  C   UNL d   1      33.240  22.937 -16.125  0.00  0.00     0.008 A 
ATOM     18  C   UNL d   1      33.160  22.426 -16.755  0.00  0.00     0.010 A 
ENDBRANCH  12  14
ENDBRANCH  11  12
ENDBRANCH  10  11
ENDBRANCH   7  10
TORSDOF 4
ENDMDL
MODEL 6
REMARK VINA RESULT:      -0.3      4.854      7.295
REMARK  4 active torsions:
REMARK  status: ('A' for Active; 'I' for Inactive)
REMARK    1  A    between atoms: C_3  and  C_1 
REMARK    2  A    between atoms: C_2  and  C_3 
REMARK    3  A    between atoms: C_6  and  C_2 
REMARK    4  A    between atoms: C_16  and  C_6 
ROOT
ATOM      1  C   UNL d   1      32.941  22.565 -18.231  0.00  0.00     0.119 A 
ATOM      2  C   UNL d   1      32.581  23.292 -18.101  0.00  0.00     0.119 A 
ATOM      3  O   UNL d   1      33.239  22.303 -17.510  0.00  0.00    -0.300 OA
ATOM      4  O   UNL d   1      32.656  23.481 -17.303  0.00  0.00    -0.300 OA
ATOM      5  C   UNL d   1      33.067  22.860 -16.939  0.00  0.00     0.304 A 
ATOM      6  C   UNL d   1      32.949  22.237 -18.989  0.00  0.00     0.026 A 
ATOM      7  C   UNL d   1      32.590  22.647 -19.625  0.00  0.00     0.002 A 
ATOM      8  C   UNL d   1      32.222  23.702 -18.737  0.00  0.00     0.026 A 
ATOM      9  C   UNL d   1      32.225  23.382 -19.498  0.00  0.00     0.002 A 
ENDROOT
BRANCH   7  10
ATOM     10  C   UNL d   1      32.591  22.324 -20.406  0.00  0.00     0.003 C 
BRANCH  10  11
ATOM     11  C   UNL d   1      32.758  21.519 -20.502  0.00  0.00     0.043 C 
BRANCH  11  12
ATOM     12  C   UNL d   1      32.312  21.079 -21.039  0.00  0.00     0.202 C 
ATOM     13  O   UNL d   1      31.500  21.201 -21.093  0.00  0.00    -0.286 OA
BRANCH  12  14
ATOM     14  C   UNL d   1      32.674  20.518 -21.523  0.00  0.00     0.068 A 
ATOM     15  S   UNL d   1      32.878  20.524 -22.330  0.00  0.00    -0.083 SA
ATOM     16  C   UNL d   1      33.226  19.807 -22.504  0.00  0.00     0.035 A 
ATOM     17  C   UNL d   1      33.240  19.361 -21.826  0.00  0.00     0.008 A 
ATOM     18  C   UNL d   1      32.904  19.788 -21.217  0.00  0.00     0.010 A 
ENDBRANCH  12  14
ENDBRANCH  11  12
ENDBRANCH  10  11
ENDBRANCH   7  10
TORSDOF 4
ENDMDL
