MODEL 1
REMARK VINA RESULT:     128.0      0.000      0.000
REMARK  6 active torsions:
REMARK  status: ('A' for Active; 'I' for Inactive)
REMARK    1  A    between atoms: C_11  and  C_3 
REMARK    2  A    between atoms: C_12  and  C_4 
REMARK    3  A    between atoms: C_13  and  C_7 
REMARK    4  A    between atoms: N_15  and  C_11 
REMARK    5  A    between atoms: N_14  and  C_12 
REMARK    6  A    between atoms: O_24  and  C_21 
ROOT
ATOM      1  C   UNL d   1      59.902  47.556  50.637  0.00  0.00     0.101 A 
ATOM      2  C   UNL d   1      60.402  48.199  50.771  0.00  0.00     0.111 A 
ATOM      3  C   UNL d   1      60.092  48.916  51.036  0.00  0.00     0.080 A 
ATOM      4  C   UNL d   1      58.787  48.341  51.030  0.00  0.00     0.096 A 
ATOM      5  C   UNL d   1      60.221  46.836  50.370  0.00  0.00     0.203 A 
ATOM      6  C   UNL d   1      59.092  47.632  50.768  0.00  0.00     0.205 A 
ATOM      7  C   UNL d   1      61.033  46.764  50.240  0.00  0.00     0.064 A 
ATOM      8  C   UNL d   1      59.287  48.984  51.164  0.00  0.00     0.203 A 
ATOM      9  O   UNL d   1      61.221  48.136  50.643  0.00  0.00    -0.305 OA
ATOM     10  C   UNL d   1      61.539  47.414  50.375  0.00  0.00     0.126 A 
ATOM     11  O   UNL d   1      59.726  46.199  50.237  0.00  0.00    -0.286 OA
ATOM     12  O   UNL d   1      58.592  46.988  50.633  0.00  0.00    -0.286 OA
ATOM     13  O   UNL d   1      58.970  49.707  51.431  0.00  0.00    -0.286 OA
ENDROOT
BRANCH   7  14
ATOM     14  C   UNL d   1      61.343  46.046  49.975  0.00  0.00     0.005 A 
ATOM     15  C   UNL d   1      61.541  45.461  50.527  0.00  0.00     0.002 A 
ATOM     16  C   UNL d   1      61.851  44.744  50.263  0.00  0.00     0.024 A 
ATOM     17  C   UNL d   1      61.963  44.609  49.455  0.00  0.00     0.094 A 
ATOM     18  C   UNL d   1      61.764  45.196  48.911  0.00  0.00     0.024 A 
ATOM     19  C   UNL d   1      61.454  45.916  49.167  0.00  0.00     0.002 A 
BRANCH  17  20
ATOM     20  O   UNL d   1      62.273  43.892  49.191  0.00  0.00    -0.328 OA
ATOM     21  C   UNL d   1      62.049  43.188  49.562  0.00  0.00     0.181 C 
ENDBRANCH  17  20
ENDBRANCH   7  14
BRANCH   3  22
ATOM     22  C   UNL d   1      60.600  49.555  51.168  0.00  0.00     0.085 C 
BRANCH  22  23
ATOM     23  N   UNL d   1      61.010  49.605  51.891  0.00  0.00    -0.302 N 
ATOM     24  C   UNL d   1      61.836  49.636  51.894  0.00  0.00     0.080 A 
ATOM     25  C   UNL d   1      62.238  49.685  52.608  0.00  0.00     0.019 A 
ATOM     26  C   UNL d   1      61.817  49.703  53.324  0.00  0.00     0.003 A 
ATOM     27  C   UNL d   1      60.995  49.672  53.318  0.00  0.00     0.019 A 
ATOM     28  C   UNL d   1      60.585  49.622  52.603  0.00  0.00     0.080 A 
ENDBRANCH  22  23
ENDBRANCH   3  22
BRANCH   4  29
ATOM     29  C   UNL d   1      57.975  48.414  51.160  0.00  0.00     0.087 C 
BRANCH  29  30
ATOM     30  N   UNL d   1      57.508  48.844  50.632  0.00  0.00    -0.302 N 
ATOM     31  C   UNL d   1      56.758  49.104  50.860  0.00  0.00     0.080 A 
ATOM     32  C   UNL d   1      56.291  49.535  50.332  0.00  0.00     0.019 A 
ATOM     33  C   UNL d   1      56.575  49.706  49.573  0.00  0.00     0.003 A 
ATOM     34  C   UNL d   1      57.324  49.446  49.345  0.00  0.00     0.019 A 
ATOM     35  C   UNL d   1      57.792  49.016  49.873  0.00  0.00     0.080 A 
ENDBRANCH  29  30
ENDBRANCH   4  29
TORSDOF 6
ENDMDL
