MODEL 1
REMARK VINA RESULT:      -3.3      0.000      0.000
REMARK  8 active torsions:
REMARK  status: ('A' for Active; 'I' for Inactive)
REMARK    1  A    between atoms: O_18  and  C_5 
REMARK    2  A    between atoms: C_7  and  C_15 
REMARK       I    between atoms: N_14  and  C_7 
REMARK    3  A    between atoms: O_10  and  C_8 
REMARK    4  A    between atoms: O_19  and  C_9 
REMARK    5  A    between atoms: C_15  and  O_10 
REMARK    6  A    between atoms: C_20  and  N_14 
REMARK    7  A    between atoms: C_16  and  C_26 
REMARK    8  A    between atoms: C_26  and  C_20 
ROOT
ATOM      1  C   UNL d   1      32.844  18.275 -23.099  0.00  0.00     0.304 C 
ATOM      2  O   UNL d   1      33.241  17.918 -22.467  0.00  0.00    -0.263 OA
ATOM      3  N   UNL d   1      32.714  19.085 -23.116  0.00  0.00    -0.205 NA
ENDROOT
BRANCH   1   4
ATOM      4  C   UNL d   1      32.573  17.805 -23.724  0.00  0.00     0.185 C 
BRANCH   4   5
ATOM      5  O   UNL d   1      31.766  17.671 -23.815  0.00  0.00    -0.298 OA
BRANCH   5   6
ATOM      6  C   UNL d   1      31.507  17.022 -24.240  0.00  0.00     0.122 A 
ATOM      7  C   UNL d   1      30.708  16.944 -24.432  0.00  0.00     0.117 A 
ATOM      8  O   UNL d   1      30.053  17.430 -24.269  0.00  0.00    -0.330 OA
ATOM      9  C   UNL d   1      30.447  16.289 -24.861  0.00  0.00     0.022 A 
ATOM     10  C   UNL d   1      29.384  17.069 -24.602  0.00  0.00     0.117 A 
ATOM     11  C   UNL d   1      29.029  17.736 -24.279  0.00  0.00     0.035 C 
ATOM     12  C   UNL d   1      28.786  16.650 -24.955  0.00  0.00     0.035 C 
ATOM     13  C   UNL d   1      29.629  16.367 -24.965  0.00  0.00     0.003 A 
ATOM     14  C   UNL d   1      30.986  15.713 -25.097  0.00  0.00     0.002 A 
ATOM     15  C   UNL d   1      31.772  15.791 -24.907  0.00  0.00     0.002 A 
ATOM     16  C   UNL d   1      32.033  16.447 -24.478  0.00  0.00     0.027 A 
ENDBRANCH   5   6
ENDBRANCH   4   5
ENDBRANCH   1   4
BRANCH   3  17
ATOM     17  C   UNL d   1      32.982  19.550 -22.498  0.00  0.00     0.102 C 
BRANCH  17  18
ATOM     18  C   UNL d   1      33.241  20.320 -22.641  0.00  0.00     0.021 C 
BRANCH  18  19
ATOM     19  C   UNL d   1      33.096  20.916 -22.087  0.00  0.00     0.004 A 
ATOM     20  C   UNL d   1      33.033  21.692 -22.327  0.00  0.00     0.026 A 
ATOM     21  C   UNL d   1      32.888  22.294 -21.780  0.00  0.00     0.116 A 
ATOM     22  C   UNL d   1      32.806  22.105 -20.981  0.00  0.00     0.116 A 
ATOM     23  C   UNL d   1      32.868  21.322 -20.734  0.00  0.00     0.026 A 
ATOM     24  C   UNL d   1      33.013  20.717 -21.279  0.00  0.00     0.002 A 
BRANCH  21  25
ATOM     25  O   UNL d   1      32.826  23.068 -22.023  0.00  0.00    -0.326 OA
ATOM     26  C   UNL d   1      32.810  23.254 -22.837  0.00  0.00     0.181 C 
ENDBRANCH  21  25
BRANCH  22  27
ATOM     27  O   UNL d   1      32.661  22.701 -20.426  0.00  0.00    -0.326 OA
ATOM     28  C   UNL d   1      32.876  22.592 -19.637  0.00  0.00     0.181 C 
ENDBRANCH  22  27
ENDBRANCH  18  19
ENDBRANCH  17  18
ENDBRANCH   3  17
TORSDOF 8
ENDMDL
MODEL 2
REMARK VINA RESULT:      -3.0      1.099      6.154
REMARK  8 active torsions:
REMARK  status: ('A' for Active; 'I' for Inactive)
REMARK    1  A    between atoms: O_18  and  C_5 
REMARK    2  A    between atoms: C_7  and  C_15 
REMARK       I    between atoms: N_14  and  C_7 
REMARK    3  A    between atoms: O_10  and  C_8 
REMARK    4  A    between atoms: O_19  and  C_9 
REMARK    5  A    between atoms: C_15  and  O_10 
REMARK    6  A    between atoms: C_20  and  N_14 
REMARK    7  A    between atoms: C_16  and  C_26 
REMARK    8  A    between atoms: C_26  and  C_20 
ROOT
ATOM      1  C   UNL d   1      33.005  19.358 -23.436  0.00  0.00     0.304 C 
ATOM      2  O   UNL d   1      33.212  19.702 -24.160  0.00  0.00    -0.263 OA
ATOM      3  N   UNL d   1      32.570  18.663 -23.405  0.00  0.00    -0.205 NA
ENDROOT
BRANCH   1   4
ATOM      4  C   UNL d   1      33.241  19.723 -22.732  0.00  0.00     0.185 C 
BRANCH   4   5
ATOM      5  O   UNL d   1      33.186  20.540 -22.657  0.00  0.00    -0.298 OA
BRANCH   5   6
ATOM      6  C   UNL d   1      33.137  20.878 -21.914  0.00  0.00     0.122 A 
ATOM      7  C   UNL d   1      32.983  21.685 -21.835  0.00  0.00     0.117 A 
ATOM      8  O   UNL d   1      32.857  22.279 -22.402  0.00  0.00    -0.330 OA
ATOM      9  C   UNL d   1      32.933  22.026 -21.084  0.00  0.00     0.022 A 
ATOM     10  C   UNL d   1      32.729  22.992 -21.995  0.00  0.00     0.117 A 
ATOM     11  C   UNL d   1      32.660  23.264 -22.767  0.00  0.00     0.035 C 
ATOM     12  C   UNL d   1      32.614  23.640 -21.521  0.00  0.00     0.035 C 
ATOM     13  C   UNL d   1      32.776  22.832 -21.184  0.00  0.00     0.003 A 
ATOM     14  C   UNL d   1      33.037  21.558 -20.415  0.00  0.00     0.002 A 
ATOM     15  C   UNL d   1      33.188  20.764 -20.494  0.00  0.00     0.002 A 
ATOM     16  C   UNL d   1      33.238  20.423 -21.245  0.00  0.00     0.027 A 
ENDBRANCH   5   6
ENDBRANCH   4   5
ENDBRANCH   1   4
BRANCH   3  17
ATOM     17  C   UNL d   1      32.336  18.302 -24.101  0.00  0.00     0.102 C 
BRANCH  17  18
ATOM     18  C   UNL d   1      32.204  17.487 -24.121  0.00  0.00     0.021 C 
BRANCH  18  19
ATOM     19  C   UNL d   1      31.445  17.193 -24.270  0.00  0.00     0.004 A 
ATOM     20  C   UNL d   1      31.125  16.623 -23.783  0.00  0.00     0.026 A 
ATOM     21  C   UNL d   1      30.368  16.324 -23.924  0.00  0.00     0.116 A 
ATOM     22  C   UNL d   1      29.933  16.607 -24.566  0.00  0.00     0.116 A 
ATOM     23  C   UNL d   1      30.252  17.183 -25.059  0.00  0.00     0.026 A 
ATOM     24  C   UNL d   1      31.010  17.485 -24.921  0.00  0.00     0.002 A 
BRANCH  21  25
ATOM     25  O   UNL d   1      30.051  15.755 -23.437  0.00  0.00    -0.326 OA
ATOM     26  C   UNL d   1      30.495  15.454 -22.797  0.00  0.00     0.181 C 
ENDBRANCH  21  25
BRANCH  22  27
ATOM     27  O   UNL d   1      29.174  16.313 -24.714  0.00  0.00    -0.326 OA
ATOM     28  C   UNL d   1      28.528  16.825 -24.726  0.00  0.00     0.181 C 
ENDBRANCH  22  27
ENDBRANCH  18  19
ENDBRANCH  17  18
ENDBRANCH   3  17
TORSDOF 8
ENDMDL
MODEL 3
REMARK VINA RESULT:      -0.6      1.388      5.914
REMARK  8 active torsions:
REMARK  status: ('A' for Active; 'I' for Inactive)
REMARK    1  A    between atoms: O_18  and  C_5 
REMARK    2  A    between atoms: C_7  and  C_15 
REMARK       I    between atoms: N_14  and  C_7 
REMARK    3  A    between atoms: O_10  and  C_8 
REMARK    4  A    between atoms: O_19  and  C_9 
REMARK    5  A    between atoms: C_15  and  O_10 
REMARK    6  A    between atoms: C_20  and  N_14 
REMARK    7  A    between atoms: C_16  and  C_26 
REMARK    8  A    between atoms: C_26  and  C_20 
ROOT
ATOM      1  C   UNL d   1      33.092  20.615 -24.294  0.00  0.00     0.304 C 
ATOM      2  O   UNL d   1      32.795  20.601 -25.067  0.00  0.00    -0.263 OA
ATOM      3  N   UNL d   1      33.241  19.919 -23.884  0.00  0.00    -0.205 NA
ENDROOT
BRANCH   1   4
ATOM      4  C   UNL d   1      33.241  21.342 -23.931  0.00  0.00     0.185 C 
BRANCH   4   5
ATOM      5  O   UNL d   1      33.082  21.439 -23.129  0.00  0.00    -0.298 OA
BRANCH   5   6
ATOM      6  C   UNL d   1      32.875  22.177 -22.842  0.00  0.00     0.122 A 
ATOM      7  C   UNL d   1      32.643  22.264 -22.055  0.00  0.00     0.117 A 
ATOM      8  O   UNL d   1      32.568  21.712 -21.438  0.00  0.00    -0.330 OA
ATOM      9  C   UNL d   1      32.435  23.009 -21.765  0.00  0.00     0.022 A 
ATOM     10  C   UNL d   1      32.311  22.122 -20.764  0.00  0.00     0.117 A 
ATOM     11  C   UNL d   1      32.356  21.364 -20.450  0.00  0.00     0.035 C 
ATOM     12  C   UNL d   1      32.062  22.597 -20.156  0.00  0.00     0.035 C 
ATOM     13  C   UNL d   1      32.230  22.920 -20.968  0.00  0.00     0.003 A 
ATOM     14  C   UNL d   1      32.459  23.664 -22.263  0.00  0.00     0.002 A 
ATOM     15  C   UNL d   1      32.688  23.576 -23.038  0.00  0.00     0.002 A 
ATOM     16  C   UNL d   1      32.896  22.831 -23.328  0.00  0.00     0.027 A 
ENDBRANCH   5   6
ENDBRANCH   4   5
ENDBRANCH   1   4
BRANCH   3  17
ATOM     17  C   UNL d   1      33.094  19.199 -24.244  0.00  0.00     0.102 C 
BRANCH  17  18
ATOM     18  C   UNL d   1      33.170  18.499 -23.814  0.00  0.00     0.021 C 
BRANCH  18  19
ATOM     19  C   UNL d   1      32.584  17.917 -23.862  0.00  0.00     0.004 A 
ATOM     20  C   UNL d   1      32.006  17.965 -24.434  0.00  0.00     0.026 A 
ATOM     21  C   UNL d   1      31.417  17.388 -24.489  0.00  0.00     0.116 A 
ATOM     22  C   UNL d   1      31.417  16.757 -23.957  0.00  0.00     0.116 A 
ATOM     23  C   UNL d   1      31.999  16.704 -23.379  0.00  0.00     0.026 A 
ATOM     24  C   UNL d   1      32.590  17.280 -23.321  0.00  0.00     0.002 A 
BRANCH  21  25
ATOM     25  O   UNL d   1      30.840  17.439 -25.060  0.00  0.00    -0.326 OA
ATOM     26  C   UNL d   1      30.341  18.106 -25.097  0.00  0.00     0.181 C 
ENDBRANCH  21  25
BRANCH  22  27
ATOM     27  O   UNL d   1      30.831  16.175 -24.005  0.00  0.00    -0.326 OA
ATOM     28  C   UNL d   1      30.559  15.806 -23.320  0.00  0.00     0.181 C 
ENDBRANCH  22  27
ENDBRANCH  18  19
ENDBRANCH  17  18
ENDBRANCH   3  17
TORSDOF 8
ENDMDL
