MODEL 1
REMARK VINA RESULT:      83.7      0.000      0.000
REMARK  5 active torsions:
REMARK  status: ('A' for Active; 'I' for Inactive)
REMARK    1  A    between atoms: C_2  and  C_1 
REMARK    2  A    between atoms: C_4  and  C_1 
REMARK       I    between atoms: N_3  and  C_2 
REMARK    3  A    between atoms: C_5  and  N_3 
REMARK    4  A    between atoms: C_11  and  C_5 
REMARK    5  A    between atoms: C_12  and  C_5 
ROOT
ATOM      1  C   UNL d   1      59.545  49.246  51.503  0.00  0.00     0.315 C 
ATOM      2  N   UNL d   1      58.737  49.229  51.331  0.00  0.00    -0.367 NA
ATOM      3  O   UNL d   1      59.827  49.708  52.125  0.00  0.00    -0.255 OA
ENDROOT
BRANCH   2   4
ATOM      4  C   UNL d   1      57.689  49.212  51.114  0.00  0.00     0.135 C 
BRANCH   4   5
ATOM      5  C   UNL d   1      57.457  49.239  50.407  0.00  0.00     0.030 A 
ATOM      6  C   UNL d   1      56.788  48.859  50.185  0.00  0.00     0.003 A 
ATOM      7  C   UNL d   1      56.513  48.877  49.403  0.00  0.00     0.000 A 
ATOM      8  C   UNL d   1      56.970  49.319  48.829  0.00  0.00     0.000 A 
ATOM      9  C   UNL d   1      57.640  49.700  49.051  0.00  0.00     0.000 A 
ATOM     10  C   UNL d   1      57.907  49.669  49.867  0.00  0.00     0.003 A 
ENDBRANCH   4   5
BRANCH   4  11
ATOM     11  C   UNL d   1      57.189  49.174  51.652  0.00  0.00     0.030 A 
ATOM     12  C   UNL d   1      56.607  48.633  51.617  0.00  0.00     0.003 A 
ATOM     13  C   UNL d   1      56.037  48.579  52.216  0.00  0.00     0.000 A 
ATOM     14  C   UNL d   1      56.109  49.109  52.838  0.00  0.00     0.000 A 
ATOM     15  C   UNL d   1      56.696  49.650  52.868  0.00  0.00     0.000 A 
ATOM     16  C   UNL d   1      57.262  49.702  52.270  0.00  0.00     0.003 A 
ENDBRANCH   4  11
ENDBRANCH   2   4
BRANCH   1  17
ATOM     17  C   UNL d   1      60.080  48.798  51.052  0.00  0.00     0.150 A 
ATOM     18  C   UNL d   1      60.607  48.359  50.607  0.00  0.00     0.019 A 
ATOM     19  C   UNL d   1      60.775  47.569  50.818  0.00  0.00     0.119 A 
ATOM     20  O   UNL d   1      60.415  47.230  51.469  0.00  0.00    -0.304 OA
ATOM     21  C   UNL d   1      59.881  47.674  51.921  0.00  0.00     0.119 A 
ATOM     22  C   UNL d   1      59.712  48.459  51.713  0.00  0.00     0.019 A 
BRANCH  17  23
ATOM     23  C   UNL d   1      60.446  49.142  50.390  0.00  0.00     0.024 A 
ATOM     24  S   UNL d   1      60.073  49.402  49.693  0.00  0.00    -0.090 SA
ATOM     25  C   UNL d   1      60.644  49.708  49.179  0.00  0.00     0.035 A 
ATOM     26  C   UNL d   1      61.380  49.645  49.541  0.00  0.00     0.007 A 
ATOM     27  C   UNL d   1      61.261  49.295  50.293  0.00  0.00     0.004 A 
ENDBRANCH  17  23
ENDBRANCH   1  17
TORSDOF 5
ENDMDL
MODEL 2
REMARK VINA RESULT:      83.9      1.503      3.808
REMARK  5 active torsions:
REMARK  status: ('A' for Active; 'I' for Inactive)
REMARK    1  A    between atoms: C_2  and  C_1 
REMARK    2  A    between atoms: C_4  and  C_1 
REMARK       I    between atoms: N_3  and  C_2 
REMARK    3  A    between atoms: C_5  and  N_3 
REMARK    4  A    between atoms: C_11  and  C_5 
REMARK    5  A    between atoms: C_12  and  C_5 
ROOT
ATOM      1  C   UNL d   1      57.787  48.329  50.653  0.00  0.00     0.315 C 
ATOM      2  N   UNL d   1      58.550  48.638  50.728  0.00  0.00    -0.367 NA
ATOM      3  O   UNL d   1      57.674  47.515  50.584  0.00  0.00    -0.255 OA
ENDROOT
BRANCH   2   4
ATOM      4  C   UNL d   1      59.541  49.031  50.823  0.00  0.00     0.135 C 
BRANCH   4   5
ATOM      5  C   UNL d   1      59.974  49.093  50.222  0.00  0.00     0.030 A 
ATOM      6  C   UNL d   1      59.793  49.619  49.644  0.00  0.00     0.003 A 
ATOM      7  C   UNL d   1      60.262  49.703  48.966  0.00  0.00     0.000 A 
ATOM      8  C   UNL d   1      60.957  49.207  48.896  0.00  0.00     0.000 A 
ATOM      9  C   UNL d   1      61.138  48.680  49.475  0.00  0.00     0.000 A 
ATOM     10  C   UNL d   1      60.639  48.608  50.169  0.00  0.00     0.003 A 
ENDBRANCH   4   5
BRANCH   4  11
ATOM     11  C   UNL d   1      59.805  49.242  51.476  0.00  0.00     0.030 A 
ATOM     12  C   UNL d   1      60.590  49.267  51.599  0.00  0.00     0.003 A 
ATOM     13  C   UNL d   1      60.902  49.503  52.330  0.00  0.00     0.000 A 
ATOM     14  C   UNL d   1      60.359  49.707  52.910  0.00  0.00     0.000 A 
ATOM     15  C   UNL d   1      59.571  49.680  52.781  0.00  0.00     0.000 A 
ATOM     16  C   UNL d   1      59.263  49.445  52.053  0.00  0.00     0.003 A 
ENDBRANCH   4  11
ENDBRANCH   2   4
BRANCH   1  17
ATOM     17  C   UNL d   1      57.128  48.834  50.648  0.00  0.00     0.150 A 
ATOM     18  C   UNL d   1      56.479  49.331  50.644  0.00  0.00     0.019 A 
ATOM     19  C   UNL d   1      56.110  49.531  49.922  0.00  0.00     0.119 A 
ATOM     20  O   UNL d   1      56.394  49.232  49.217  0.00  0.00    -0.304 OA
ATOM     21  C   UNL d   1      57.051  48.729  49.219  0.00  0.00     0.119 A 
ATOM     22  C   UNL d   1      57.420  48.528  49.935  0.00  0.00     0.019 A 
BRANCH  17  23
ATOM     23  C   UNL d   1      56.839  49.138  51.365  0.00  0.00     0.024 A 
ATOM     24  S   UNL d   1      57.241  49.165  52.093  0.00  0.00    -0.090 SA
ATOM     25  C   UNL d   1      56.749  49.512  52.661  0.00  0.00     0.035 A 
ATOM     26  C   UNL d   1      56.035  49.707  52.302  0.00  0.00     0.007 A 
ATOM     27  C   UNL d   1      56.087  49.476  51.498  0.00  0.00     0.004 A 
ENDBRANCH  17  23
ENDBRANCH   1  17
TORSDOF 5
ENDMDL
