MODEL 1
REMARK VINA RESULT:      -8.1      0.000      0.000
REMARK  2 active torsions:
REMARK  status: ('A' for Active; 'I' for Inactive)
REMARK    1  A    between atoms: N_2  and  S_1 
REMARK    2  A    between atoms: C_3  and  S_1 
ROOT
ATOM      1  C   UNL d   1     -47.724  14.161  22.701  0.00  0.00     0.104 A 
ATOM      2  O   UNL d   1     -49.689  15.658  22.671  0.00  0.00    -0.273 OA
ATOM      3  C   UNL d   1     -50.409  15.412  23.013  0.00  0.00     0.300 A 
ATOM      4  C   UNL d   1     -49.086  14.411  23.030  0.00  0.00     0.024 A 
ATOM      5  C   UNL d   1     -49.034  15.160  22.681  0.00  0.00     0.103 A 
ATOM      6  C   UNL d   1     -49.803  14.157  23.375  0.00  0.00     0.007 A 
ATOM      7  C   UNL d   1     -48.431  13.913  23.040  0.00  0.00     0.015 A 
ATOM      8  C   UNL d   1     -50.461  14.663  23.363  0.00  0.00     0.069 A 
ATOM      9  C   UNL d   1     -47.671  14.910  22.351  0.00  0.00     0.015 A 
ATOM     10  O   UNL d   1     -51.063  15.917  23.000  0.00  0.00    -0.259 OA
ATOM     11  C   UNL d   1     -48.326  15.408  22.342  0.00  0.00     0.025 A 
ENDROOT
BRANCH   1  12
ATOM     12  S   UNL d   1     -47.068  13.668  22.708  0.00  0.00     0.272 S 
ATOM     13  O   UNL d   1     -47.359  13.259  22.053  0.00  0.00    -0.200 OA
ATOM     14  O   UNL d   1     -46.769  14.070  23.363  0.00  0.00    -0.200 OA
BRANCH  12  15
ATOM     15  N   UNL d   1     -46.407  13.171  22.717  0.00  0.00    -0.225 N 
ATOM     16  C   UNL d   1     -45.753  13.343  22.238  0.00  0.00     0.118 A 
ATOM     17  C   UNL d   1     -45.094  12.850  22.246  0.00  0.00     0.142 A 
ATOM     18  O   UNL d   1     -45.076  12.181  22.728  0.00  0.00    -0.300 OA
ATOM     19  C   UNL d   1     -45.733  12.007  23.210  0.00  0.00     0.142 A 
ATOM     20  C   UNL d   1     -46.395  12.499  23.205  0.00  0.00     0.118 A 
ENDBRANCH  12  15
ENDBRANCH   1  12
TORSDOF 2
ENDMDL
MODEL 2
REMARK VINA RESULT:      -7.4      1.782      4.360
REMARK  2 active torsions:
REMARK  status: ('A' for Active; 'I' for Inactive)
REMARK    1  A    between atoms: N_2  and  S_1 
REMARK    2  A    between atoms: C_3  and  S_1 
ROOT
ATOM      1  C   UNL d   1     -47.797  12.553  23.166  0.00  0.00     0.104 A 
ATOM      2  O   UNL d   1     -45.356  12.298  22.884  0.00  0.00    -0.273 OA
ATOM      3  C   UNL d   1     -44.950  12.755  22.316  0.00  0.00     0.300 A 
ATOM      4  C   UNL d   1     -46.589  12.922  22.510  0.00  0.00     0.024 A 
ATOM      5  C   UNL d   1     -46.170  12.383  22.978  0.00  0.00     0.103 A 
ATOM      6  C   UNL d   1     -46.190  13.383  21.940  0.00  0.00     0.007 A 
ATOM      7  C   UNL d   1     -47.402  13.006  22.604  0.00  0.00     0.015 A 
ATOM      8  C   UNL d   1     -45.369  13.294  21.848  0.00  0.00     0.069 A 
ATOM      9  C   UNL d   1     -47.378  12.014  23.635  0.00  0.00     0.015 A 
ATOM     10  O   UNL d   1     -44.133  12.666  22.226  0.00  0.00    -0.259 OA
ATOM     11  C   UNL d   1     -46.565  11.929  23.540  0.00  0.00     0.025 A 
ENDROOT
BRANCH   1  12
ATOM     12  S   UNL d   1     -48.608  12.634  23.263  0.00  0.00     0.272 S 
ATOM     13  O   UNL d   1     -48.732  11.900  22.907  0.00  0.00    -0.200 OA
ATOM     14  O   UNL d   1     -48.494  13.368  23.621  0.00  0.00    -0.200 OA
BRANCH  12  15
ATOM     15  N   UNL d   1     -49.425  12.717  23.362  0.00  0.00    -0.225 N 
ATOM     16  C   UNL d   1     -49.892  12.053  23.533  0.00  0.00     0.118 A 
ATOM     17  C   UNL d   1     -50.704  12.135  23.631  0.00  0.00     0.142 A 
ATOM     18  O   UNL d   1     -51.064  12.874  23.562  0.00  0.00    -0.300 OA
ATOM     19  C   UNL d   1     -50.596  13.541  23.391  0.00  0.00     0.142 A 
ATOM     20  C   UNL d   1     -49.781  13.464  23.291  0.00  0.00     0.118 A 
ENDBRANCH  12  15
ENDBRANCH   1  12
TORSDOF 2
ENDMDL
MODEL 3
REMARK VINA RESULT:      -7.4      1.727      4.472
REMARK  2 active torsions:
REMARK  status: ('A' for Active; 'I' for Inactive)
REMARK    1  A    between atoms: N_2  and  S_1 
REMARK    2  A    between atoms: C_3  and  S_1 
ROOT
ATOM      1  C   UNL d   1     -47.634  12.527  22.953  0.00  0.00     0.104 A 
ATOM      2  O   UNL d   1     -45.303  11.798  23.325  0.00  0.00    -0.273 OA
ATOM      3  C   UNL d   1     -45.142  11.019  23.575  0.00  0.00     0.300 A 
ATOM      4  C   UNL d   1     -46.705  11.513  23.324  0.00  0.00     0.024 A 
ATOM      5  C   UNL d   1     -46.080  12.042  23.201  0.00  0.00     0.103 A 
ATOM      6  C   UNL d   1     -46.553  10.732  23.574  0.00  0.00     0.007 A 
ATOM      7  C   UNL d   1     -47.482  11.757  23.200  0.00  0.00     0.015 A 
ATOM      8  C   UNL d   1     -45.768  10.490  23.698  0.00  0.00     0.069 A 
ATOM      9  C   UNL d   1     -47.009  13.055  22.830  0.00  0.00     0.015 A 
ATOM     10  O   UNL d   1     -44.360  10.781  23.698  0.00  0.00    -0.259 OA
ATOM     11  C   UNL d   1     -46.232  12.812  22.954  0.00  0.00     0.025 A 
ENDROOT
BRANCH   1  12
ATOM     12  S   UNL d   1     -48.407  12.774  22.829  0.00  0.00     0.272 S 
ATOM     13  O   UNL d   1     -48.248  12.892  22.028  0.00  0.00    -0.200 OA
ATOM     14  O   UNL d   1     -48.576  12.658  23.628  0.00  0.00    -0.200 OA
BRANCH  12  15
ATOM     15  N   UNL d   1     -49.187  13.022  22.705  0.00  0.00    -0.225 N 
ATOM     16  C   UNL d   1     -49.491  13.062  21.935  0.00  0.00     0.118 A 
ATOM     17  C   UNL d   1     -50.265  13.309  21.810  0.00  0.00     0.142 A 
ATOM     18  O   UNL d   1     -50.748  13.518  22.446  0.00  0.00    -0.300 OA
ATOM     19  C   UNL d   1     -50.443  13.478  23.220  0.00  0.00     0.142 A 
ATOM     20  C   UNL d   1     -49.666  13.231  23.350  0.00  0.00     0.118 A 
ENDBRANCH  12  15
ENDBRANCH   1  12
TORSDOF 2
ENDMDL
MODEL 4
REMARK VINA RESULT:      -7.0      1.295      4.212
REMARK  2 active torsions:
REMARK  status: ('A' for Active; 'I' for Inactive)
REMARK    1  A    between atoms: N_2  and  S_1 
REMARK    2  A    between atoms: C_3  and  S_1 
ROOT
ATOM      1  C   UNL d   1     -47.905  13.524  22.950  0.00  0.00     0.104 A 
ATOM      2  O   UNL d   1     -45.815  12.261  23.324  0.00  0.00    -0.273 OA
ATOM      3  C   UNL d   1     -45.845  11.466  23.575  0.00  0.00     0.300 A 
ATOM      4  C   UNL d   1     -47.245  12.319  23.322  0.00  0.00     0.024 A 
ATOM      5  C   UNL d   1     -46.511  12.682  23.199  0.00  0.00     0.103 A 
ATOM      6  C   UNL d   1     -47.284  11.523  23.574  0.00  0.00     0.007 A 
ATOM      7  C   UNL d   1     -47.941  12.740  23.198  0.00  0.00     0.015 A 
ATOM      8  C   UNL d   1     -46.579  11.102  23.698  0.00  0.00     0.069 A 
ATOM      9  C   UNL d   1     -47.172  13.888  22.827  0.00  0.00     0.015 A 
ATOM     10  O   UNL d   1     -45.142  11.048  23.698  0.00  0.00    -0.259 OA
ATOM     11  C   UNL d   1     -46.476  13.466  22.951  0.00  0.00     0.025 A 
ENDROOT
BRANCH   1  12
ATOM     12  S   UNL d   1     -48.597  13.948  22.825  0.00  0.00     0.272 S 
ATOM     13  O   UNL d   1     -48.740  13.970  23.637  0.00  0.00    -0.200 OA
ATOM     14  O   UNL d   1     -48.463  13.931  22.011  0.00  0.00    -0.200 OA
BRANCH  12  15
ATOM     15  N   UNL d   1     -49.294  14.375  22.697  0.00  0.00    -0.225 N 
ATOM     16  C   UNL d   1     -49.375  15.138  23.011  0.00  0.00     0.118 A 
ATOM     17  C   UNL d   1     -50.068  15.564  22.884  0.00  0.00     0.142 A 
ATOM     18  O   UNL d   1     -50.687  15.239  22.445  0.00  0.00    -0.300 OA
ATOM     19  C   UNL d   1     -50.605  14.472  22.130  0.00  0.00     0.142 A 
ATOM     20  C   UNL d   1     -49.912  14.042  22.255  0.00  0.00     0.118 A 
ENDBRANCH  12  15
ENDBRANCH   1  12
TORSDOF 2
ENDMDL
MODEL 5
REMARK VINA RESULT:      -6.7      2.086      2.568
REMARK  2 active torsions:
REMARK  status: ('A' for Active; 'I' for Inactive)
REMARK    1  A    between atoms: N_2  and  S_1 
REMARK    2  A    between atoms: C_3  and  S_1 
ROOT
ATOM      1  C   UNL d   1     -47.488  12.437  22.983  0.00  0.00     0.104 A 
ATOM      2  O   UNL d   1     -49.625  11.408  23.676  0.00  0.00    -0.273 OA
ATOM      3  C   UNL d   1     -50.349  11.736  23.424  0.00  0.00     0.300 A 
ATOM      4  C   UNL d   1     -48.912  12.422  22.961  0.00  0.00     0.024 A 
ATOM      5  C   UNL d   1     -48.912  11.750  23.445  0.00  0.00     0.103 A 
ATOM      6  C   UNL d   1     -49.633  12.756  22.704  0.00  0.00     0.007 A 
ATOM      7  C   UNL d   1     -48.200  12.765  22.731  0.00  0.00     0.015 A 
ATOM      8  C   UNL d   1     -50.349  12.407  22.939  0.00  0.00     0.069 A 
ATOM      9  C   UNL d   1     -47.489  11.765  23.467  0.00  0.00     0.015 A 
ATOM     10  O   UNL d   1     -51.061  11.387  23.659  0.00  0.00    -0.259 OA
ATOM     11  C   UNL d   1     -48.201  11.423  23.698  0.00  0.00     0.025 A 
ENDROOT
BRANCH   1  12
ATOM     12  S   UNL d   1     -46.776  12.775  22.755  0.00  0.00     0.272 S 
ATOM     13  O   UNL d   1     -46.617  12.986  23.537  0.00  0.00    -0.200 OA
ATOM     14  O   UNL d   1     -46.926  12.568  21.971  0.00  0.00    -0.200 OA
BRANCH  12  15
ATOM     15  N   UNL d   1     -46.058  13.116  22.524  0.00  0.00    -0.225 N 
ATOM     16  C   UNL d   1     -45.466  12.644  22.188  0.00  0.00     0.118 A 
ATOM     17  C   UNL d   1     -44.752  12.981  21.957  0.00  0.00     0.142 A 
ATOM     18  O   UNL d   1     -44.616  13.789  22.057  0.00  0.00    -0.300 OA
ATOM     19  C   UNL d   1     -45.212  14.264  22.395  0.00  0.00     0.142 A 
ATOM     20  C   UNL d   1     -45.930  13.929  22.628  0.00  0.00     0.118 A 
ENDBRANCH  12  15
ENDBRANCH   1  12
TORSDOF 2
ENDMDL
MODEL 6
REMARK VINA RESULT:      -6.1      8.082      9.268
REMARK  2 active torsions:
REMARK  status: ('A' for Active; 'I' for Inactive)
REMARK    1  A    between atoms: N_2  and  S_1 
REMARK    2  A    between atoms: C_3  and  S_1 
ROOT
ATOM      1  C   UNL d   1     -40.126  14.571  19.701  0.00  0.00     0.104 A 
ATOM      2  O   UNL d   1     -39.699  13.863  22.029  0.00  0.00    -0.273 OA
ATOM      3  C   UNL d   1     -38.944  13.585  22.251  0.00  0.00     0.300 A 
ATOM      4  C   UNL d   1     -39.237  14.061  20.690  0.00  0.00     0.024 A 
ATOM      5  C   UNL d   1     -39.842  14.099  21.254  0.00  0.00     0.103 A 
ATOM      6  C   UNL d   1     -38.479  13.784  20.904  0.00  0.00     0.007 A 
ATOM      7  C   UNL d   1     -39.380  14.297  19.914  0.00  0.00     0.015 A 
ATOM      8  C   UNL d   1     -38.339  13.547  21.687  0.00  0.00     0.069 A 
ATOM      9  C   UNL d   1     -40.731  14.609  20.265  0.00  0.00     0.015 A 
ATOM     10  O   UNL d   1     -38.807  13.349  23.032  0.00  0.00    -0.259 OA
ATOM     11  C   UNL d   1     -40.588  14.373  21.041  0.00  0.00     0.025 A 
ENDROOT
BRANCH   1  12
ATOM     12  S   UNL d   1     -40.273  14.807  18.929  0.00  0.00     0.272 S 
ATOM     13  O   UNL d   1     -39.951  15.551  19.087  0.00  0.00    -0.200 OA
ATOM     14  O   UNL d   1     -40.597  14.068  18.762  0.00  0.00    -0.200 OA
BRANCH  12  15
ATOM     15  N   UNL d   1     -40.421  15.044  18.150  0.00  0.00    -0.225 N 
ATOM     16  C   UNL d   1     -40.072  14.635  17.520  0.00  0.00     0.118 A 
ATOM     17  C   UNL d   1     -40.218  14.869  16.745  0.00  0.00     0.142 A 
ATOM     18  O   UNL d   1     -40.713  15.510  16.586  0.00  0.00    -0.300 OA
ATOM     19  C   UNL d   1     -41.064  15.922  17.219  0.00  0.00     0.142 A 
ATOM     20  C   UNL d   1     -40.919  15.690  17.998  0.00  0.00     0.118 A 
ENDBRANCH  12  15
ENDBRANCH   1  12
TORSDOF 2
ENDMDL
MODEL 7
REMARK VINA RESULT:      -6.0      8.222      8.794
REMARK  2 active torsions:
REMARK  status: ('A' for Active; 'I' for Inactive)
REMARK    1  A    between atoms: N_2  and  S_1 
REMARK    2  A    between atoms: C_3  and  S_1 
ROOT
ATOM      1  C   UNL d   1     -40.038  15.037  20.145  0.00  0.00     0.104 A 
ATOM      2  O   UNL d   1     -41.022  15.643  17.961  0.00  0.00    -0.273 OA
ATOM      3  C   UNL d   1     -40.883  15.166  17.291  0.00  0.00     0.300 A 
ATOM      4  C   UNL d   1     -40.224  14.764  18.759  0.00  0.00     0.024 A 
ATOM      5  C   UNL d   1     -40.695  15.441  18.689  0.00  0.00     0.103 A 
ATOM      6  C   UNL d   1     -40.079  14.281  18.094  0.00  0.00     0.007 A 
ATOM      7  C   UNL d   1     -39.897  14.562  19.487  0.00  0.00     0.015 A 
ATOM      8  C   UNL d   1     -40.412  14.488  17.362  0.00  0.00     0.069 A 
ATOM      9  C   UNL d   1     -40.509  15.715  20.074  0.00  0.00     0.015 A 
ATOM     10  O   UNL d   1     -41.215  15.374  16.563  0.00  0.00    -0.259 OA
ATOM     11  C   UNL d   1     -40.836  15.916  19.346  0.00  0.00     0.025 A 
ENDROOT
BRANCH   1  12
ATOM     12  S   UNL d   1     -39.713  14.839  20.872  0.00  0.00     0.272 S 
ATOM     13  O   UNL d   1     -40.432  14.514  21.113  0.00  0.00    -0.200 OA
ATOM     14  O   UNL d   1     -38.991  15.163  20.640  0.00  0.00    -0.200 OA
BRANCH  12  15
ATOM     15  N   UNL d   1     -39.384  14.641  21.605  0.00  0.00    -0.225 N 
ATOM     16  C   UNL d   1     -39.070  15.234  22.091  0.00  0.00     0.118 A 
ATOM     17  C   UNL d   1     -38.742  15.039  22.820  0.00  0.00     0.142 A 
ATOM     18  O   UNL d   1     -38.722  14.254  23.075  0.00  0.00    -0.300 OA
ATOM     19  C   UNL d   1     -39.038  13.658  22.587  0.00  0.00     0.142 A 
ATOM     20  C   UNL d   1     -39.368  13.850  21.855  0.00  0.00     0.118 A 
ENDBRANCH  12  15
ENDBRANCH   1  12
TORSDOF 2
ENDMDL
MODEL 8
REMARK VINA RESULT:      -5.3      7.544     10.106
REMARK  2 active torsions:
REMARK  status: ('A' for Active; 'I' for Inactive)
REMARK    1  A    between atoms: N_2  and  S_1 
REMARK    2  A    between atoms: C_3  and  S_1 
ROOT
ATOM      1  C   UNL d   1     -39.844  14.708  18.147  0.00  0.00     0.104 A 
ATOM      2  O   UNL d   1     -38.844  14.291  15.926  0.00  0.00    -0.273 OA
ATOM      3  C   UNL d   1     -38.271  13.693  15.830  0.00  0.00     0.300 A 
ATOM      4  C   UNL d   1     -38.945  13.977  17.319  0.00  0.00     0.024 A 
ATOM      5  C   UNL d   1     -39.178  14.430  16.666  0.00  0.00     0.103 A 
ATOM      6  C   UNL d   1     -38.372  13.376  17.231  0.00  0.00     0.007 A 
ATOM      7  C   UNL d   1     -39.279  14.116  18.058  0.00  0.00     0.015 A 
ATOM      8  C   UNL d   1     -38.038  13.239  16.483  0.00  0.00     0.069 A 
ATOM      9  C   UNL d   1     -40.077  15.161  17.494  0.00  0.00     0.015 A 
ATOM     10  O   UNL d   1     -37.939  13.558  15.085  0.00  0.00    -0.259 OA
ATOM     11  C   UNL d   1     -39.743  15.022  16.754  0.00  0.00     0.025 A 
ENDROOT
BRANCH   1  12
ATOM     12  S   UNL d   1     -40.179  14.850  18.882  0.00  0.00     0.272 S 
ATOM     13  O   UNL d   1     -39.524  15.300  19.102  0.00  0.00    -0.200 OA
ATOM     14  O   UNL d   1     -40.838  14.401  18.671  0.00  0.00    -0.200 OA
BRANCH  12  15
ATOM     15  N   UNL d   1     -40.518  14.992  19.623  0.00  0.00    -0.225 N 
ATOM     16  C   UNL d   1     -40.718  15.766  19.845  0.00  0.00     0.118 A 
ATOM     17  C   UNL d   1     -41.055  15.909  20.582  0.00  0.00     0.142 A 
ATOM     18  O   UNL d   1     -41.198  15.288  21.107  0.00  0.00    -0.300 OA
ATOM     19  C   UNL d   1     -40.997  14.511  20.884  0.00  0.00     0.142 A 
ATOM     20  C   UNL d   1     -40.659  14.363  20.146  0.00  0.00     0.118 A 
ENDBRANCH  12  15
ENDBRANCH   1  12
TORSDOF 2
ENDMDL
