MODEL 1
REMARK VINA RESULT:       4.9      0.000      0.000
REMARK  2 active torsions:
REMARK  status: ('A' for Active; 'I' for Inactive)
REMARK    1  A    between atoms: S_6  and  C_1 
REMARK    2  A    between atoms: C_7  and  S_6 
ROOT
ATOM      1  C   UNL d   1      43.960 -15.444  36.665  0.00  0.00     0.194 A 
ATOM      2  N   UNL d   1      44.630 -15.849  36.339  0.00  0.00    -0.220 NA
ATOM      3  N   UNL d   1      44.241 -14.783  37.067  0.00  0.00    -0.220 NA
ATOM      4  C   UNL d   1      45.291 -15.432  36.548  0.00  0.00     0.101 A 
ATOM      5  C   UNL d   1      45.044 -14.759  37.008  0.00  0.00     0.101 A 
ATOM      6  C   UNL d   1      46.112 -15.526  36.410  0.00  0.00     0.021 A 
ATOM      7  C   UNL d   1      45.607 -14.231  37.299  0.00  0.00     0.021 A 
ATOM      8  C   UNL d   1      46.408 -14.353  37.144  0.00  0.00     0.002 A 
ATOM      9  C   UNL d   1      46.647 -15.006  36.697  0.00  0.00     0.002 A 
ENDROOT
BRANCH   1  10
ATOM     10  S   UNL d   1      43.398 -15.973  36.374  0.00  0.00    -0.049 SA
BRANCH  10  11
ATOM     11  C   UNL d   1      42.594 -15.826  36.491  0.00  0.00     0.032 C 
ATOM     12  C   UNL d   1      42.039 -16.415  36.330  0.00  0.00     0.007 C 
ATOM     13  C   UNL d   1      42.157 -15.177  36.754  0.00  0.00     0.007 C 
ENDBRANCH  10  11
ENDBRANCH   1  10
TORSDOF 2
ENDMDL
MODEL 2
REMARK VINA RESULT:       6.0      0.881      3.159
REMARK  2 active torsions:
REMARK  status: ('A' for Active; 'I' for Inactive)
REMARK    1  A    between atoms: S_6  and  C_1 
REMARK    2  A    between atoms: C_7  and  S_6 
ROOT
ATOM      1  C   UNL d   1      44.928 -15.280  36.722  0.00  0.00     0.194 A 
ATOM      2  N   UNL d   1      44.698 -16.074  36.531  0.00  0.00    -0.220 NA
ATOM      3  N   UNL d   1      44.241 -14.833  36.793  0.00  0.00    -0.220 NA
ATOM      4  C   UNL d   1      43.891 -16.090  36.491  0.00  0.00     0.101 A 
ATOM      5  C   UNL d   1      43.602 -15.306  36.656  0.00  0.00     0.101 A 
ATOM      6  C   UNL d   1      43.322 -16.685  36.330  0.00  0.00     0.021 A 
ATOM      7  C   UNL d   1      42.792 -15.156  36.654  0.00  0.00     0.021 A 
ATOM      8  C   UNL d   1      42.259 -15.765  36.492  0.00  0.00     0.002 A 
ATOM      9  C   UNL d   1      42.539 -16.526  36.331  0.00  0.00     0.002 A 
ENDROOT
BRANCH   1  10
ATOM     10  S   UNL d   1      45.739 -15.431  36.724  0.00  0.00    -0.049 SA
BRANCH  10  11
ATOM     11  C   UNL d   1      46.268 -14.839  36.953  0.00  0.00     0.032 C 
ATOM     12  C   UNL d   1      46.603 -14.343  36.385  0.00  0.00     0.007 C 
ATOM     13  C   UNL d   1      46.579 -14.590  37.675  0.00  0.00     0.007 C 
ENDBRANCH  10  11
ENDBRANCH   1  10
TORSDOF 2
ENDMDL
MODEL 3
REMARK VINA RESULT:       7.1      7.321      8.106
REMARK  2 active torsions:
REMARK  status: ('A' for Active; 'I' for Inactive)
REMARK    1  A    between atoms: S_6  and  C_1 
REMARK    2  A    between atoms: C_7  and  S_6 
ROOT
ATOM      1  C   UNL d   1      45.711 -13.243  44.275  0.00  0.00     0.194 A 
ATOM      2  N   UNL d   1      44.967 -13.621  44.428  0.00  0.00    -0.220 NA
ATOM      3  N   UNL d   1      46.300 -13.811  44.365  0.00  0.00    -0.220 NA
ATOM      4  C   UNL d   1      45.119 -14.395  44.605  0.00  0.00     0.101 A 
ATOM      5  C   UNL d   1      45.962 -14.515  44.565  0.00  0.00     0.101 A 
ATOM      6  C   UNL d   1      44.645 -15.056  44.806  0.00  0.00     0.021 A 
ATOM      7  C   UNL d   1      46.280 -15.259  44.722  0.00  0.00     0.021 A 
ATOM      8  C   UNL d   1      45.783 -15.888  44.916  0.00  0.00     0.002 A 
ATOM      9  C   UNL d   1      44.966 -15.772  44.955  0.00  0.00     0.002 A 
ENDROOT
BRANCH   1  10
ATOM     10  S   UNL d   1      45.392 -12.499  44.118  0.00  0.00    -0.049 SA
BRANCH  10  11
ATOM     11  C   UNL d   1      45.287 -12.251  43.338  0.00  0.00     0.032 C 
ATOM     12  C   UNL d   1      44.530 -12.080  43.058  0.00  0.00     0.007 C 
ATOM     13  C   UNL d   1      45.793 -12.117  42.701  0.00  0.00     0.007 C 
ENDBRANCH  10  11
ENDBRANCH   1  10
TORSDOF 2
ENDMDL
