MODEL 1
REMARK VINA RESULT:      -7.0      0.000      0.000
REMARK  4 active torsions:
REMARK  status: ('A' for Active; 'I' for Inactive)
REMARK    1  A    between atoms: C_6  and  N_1 
REMARK    2  A    between atoms: N_8  and  C_4 
REMARK    3  A    between atoms: N_7  and  C_10 
REMARK    4  A    between atoms: C_16  and  N_8 
ROOT
ATOM      1  N   UNL d   1     -49.235  13.175  22.262  0.00  0.00    -0.238 N 
ATOM      2  C   UNL d   1     -48.801  12.657  21.753  0.00  0.00     0.269 A 
ATOM      3  C   UNL d   1     -49.032  13.011  23.035  0.00  0.00     0.285 A 
ATOM      4  C   UNL d   1     -48.463  12.384  23.029  0.00  0.00     0.142 A 
ATOM      5  C   UNL d   1     -48.345  12.193  22.240  0.00  0.00     0.085 A 
ATOM      6  O   UNL d   1     -48.814  12.610  20.939  0.00  0.00    -0.267 OA
ATOM      7  O   UNL d   1     -49.341  13.402  23.698  0.00  0.00    -0.265 OA
ENDROOT
BRANCH   4   8
ATOM      8  N   UNL d   1     -48.099  12.032  23.668  0.00  0.00    -0.241 NA
BRANCH   8   9
ATOM      9  C   UNL d   1     -47.328  11.765  23.603  0.00  0.00     0.082 A 
ATOM     10  C   UNL d   1     -47.161  10.957  23.697  0.00  0.00     0.021 A 
ATOM     11  C   UNL d   1     -46.389  10.669  23.636  0.00  0.00     0.019 A 
ATOM     12  C   UNL d   1     -45.767  11.210  23.475  0.00  0.00     0.064 A 
ATOM     13  C   UNL d   1     -45.922  12.023  23.379  0.00  0.00     0.019 A 
ATOM     14  C   UNL d   1     -46.709  12.294  23.445  0.00  0.00     0.021 A 
BRANCH  12  15
ATOM     15  N   UNL d   1     -44.992  10.944  23.410  0.00  0.00    -0.300 N 
ATOM     16  C   UNL d   1     -44.431  11.425  23.061  0.00  0.00     0.107 A 
ATOM     17  C   UNL d   1     -43.656  11.169  22.991  0.00  0.00     0.142 A 
ATOM     18  O   UNL d   1     -43.448  10.420  23.278  0.00  0.00    -0.300 OA
ATOM     19  C   UNL d   1     -44.015   9.924  23.635  0.00  0.00     0.142 A 
ATOM     20  C   UNL d   1     -44.786  10.198  23.696  0.00  0.00     0.107 A 
ENDBRANCH  12  15
ENDBRANCH   8   9
ENDBRANCH   4   8
BRANCH   1  21
ATOM     21  C   UNL d   1     -49.770  13.746  22.035  0.00  0.00     0.097 A 
ATOM     22  C   UNL d   1     -50.520  13.530  21.792  0.00  0.00     0.156 A 
ATOM     23  F   UNL d   1     -50.748  12.741  21.773  0.00  0.00    -0.203 F 
ATOM     24  C   UNL d   1     -51.064  14.109  21.561  0.00  0.00     0.031 A 
ATOM     25  C   UNL d   1     -50.848  14.901  21.577  0.00  0.00     0.002 A 
ATOM     26  C   UNL d   1     -50.093  15.111  21.821  0.00  0.00     0.002 A 
ATOM     27  C   UNL d   1     -49.553  14.531  22.051  0.00  0.00     0.020 A 
ENDBRANCH   1  21
TORSDOF 4
ENDMDL
MODEL 2
REMARK VINA RESULT:      -6.8      1.368      1.736
REMARK  4 active torsions:
REMARK  status: ('A' for Active; 'I' for Inactive)
REMARK    1  A    between atoms: C_6  and  N_1 
REMARK    2  A    between atoms: N_8  and  C_4 
REMARK    3  A    between atoms: N_7  and  C_10 
REMARK    4  A    between atoms: C_16  and  N_8 
ROOT
ATOM      1  N   UNL d   1     -49.102  12.930  22.620  0.00  0.00    -0.238 N 
ATOM      2  C   UNL d   1     -48.934  12.102  22.667  0.00  0.00     0.269 A 
ATOM      3  C   UNL d   1     -48.498  13.339  22.986  0.00  0.00     0.285 A 
ATOM      4  C   UNL d   1     -47.935  12.774  23.272  0.00  0.00     0.142 A 
ATOM      5  C   UNL d   1     -48.227  12.036  23.063  0.00  0.00     0.085 A 
ATOM      6  O   UNL d   1     -49.371  11.474  22.382  0.00  0.00    -0.267 OA
ATOM      7  O   UNL d   1     -48.460  14.164  23.056  0.00  0.00    -0.265 OA
ENDROOT
BRANCH   4   8
ATOM      8  N   UNL d   1     -47.240  12.919  23.674  0.00  0.00    -0.241 NA
BRANCH   8   9
ATOM      9  C   UNL d   1     -46.521  12.831  23.293  0.00  0.00     0.082 A 
ATOM     10  C   UNL d   1     -46.154  12.087  23.269  0.00  0.00     0.021 A 
ATOM     11  C   UNL d   1     -45.428  11.979  22.889  0.00  0.00     0.019 A 
ATOM     12  C   UNL d   1     -45.061  12.640  22.522  0.00  0.00     0.064 A 
ATOM     13  C   UNL d   1     -45.420  13.391  22.539  0.00  0.00     0.019 A 
ATOM     14  C   UNL d   1     -46.154  13.479  22.928  0.00  0.00     0.021 A 
BRANCH  12  15
ATOM     15  N   UNL d   1     -44.340  12.554  22.139  0.00  0.00    -0.300 N 
ATOM     16  C   UNL d   1     -43.790  12.025  22.432  0.00  0.00     0.107 A 
ATOM     17  C   UNL d   1     -43.068  11.932  22.058  0.00  0.00     0.142 A 
ATOM     18  O   UNL d   1     -42.901  12.379  21.381  0.00  0.00    -0.300 OA
ATOM     19  C   UNL d   1     -43.456  12.920  21.076  0.00  0.00     0.142 A 
ATOM     20  C   UNL d   1     -44.175  13.000  21.465  0.00  0.00     0.107 A 
ENDBRANCH  12  15
ENDBRANCH   8   9
ENDBRANCH   4   8
BRANCH   1  21
ATOM     21  C   UNL d   1     -49.751  13.277  22.273  0.00  0.00     0.097 A 
ATOM     22  C   UNL d   1     -49.756  13.421  21.468  0.00  0.00     0.156 A 
ATOM     23  F   UNL d   1     -49.113  13.221  20.998  0.00  0.00    -0.203 F 
ATOM     24  C   UNL d   1     -50.416  13.773  21.113  0.00  0.00     0.031 A 
ATOM     25  C   UNL d   1     -51.064  13.978  21.572  0.00  0.00     0.002 A 
ATOM     26  C   UNL d   1     -51.053  13.830  22.380  0.00  0.00     0.002 A 
ATOM     27  C   UNL d   1     -50.394  13.479  22.730  0.00  0.00     0.020 A 
ENDBRANCH   1  21
TORSDOF 4
ENDMDL
MODEL 3
REMARK VINA RESULT:      -6.4      9.003     10.228
REMARK  4 active torsions:
REMARK  status: ('A' for Active; 'I' for Inactive)
REMARK    1  A    between atoms: C_6  and  N_1 
REMARK    2  A    between atoms: N_8  and  C_4 
REMARK    3  A    between atoms: N_7  and  C_10 
REMARK    4  A    between atoms: C_16  and  N_8 
ROOT
ATOM      1  N   UNL d   1     -39.307  14.797  17.466  0.00  0.00    -0.238 N 
ATOM      2  C   UNL d   1     -40.066  14.550  17.747  0.00  0.00     0.269 A 
ATOM      3  C   UNL d   1     -38.987  15.320  18.004  0.00  0.00     0.285 A 
ATOM      4  C   UNL d   1     -39.541  15.414  18.638  0.00  0.00     0.142 A 
ATOM      5  C   UNL d   1     -40.181  14.936  18.454  0.00  0.00     0.085 A 
ATOM      6  O   UNL d   1     -40.596  14.033  17.405  0.00  0.00    -0.267 OA
ATOM      7  O   UNL d   1     -38.248  15.686  17.925  0.00  0.00    -0.265 OA
ENDROOT
BRANCH   4   8
ATOM      8  N   UNL d   1     -39.466  15.880  19.303  0.00  0.00    -0.241 NA
BRANCH   8   9
ATOM      9  C   UNL d   1     -39.330  15.535  20.032  0.00  0.00     0.082 A 
ATOM     10  C   UNL d   1     -38.551  15.412  20.292  0.00  0.00     0.021 A 
ATOM     11  C   UNL d   1     -38.393  15.065  21.025  0.00  0.00     0.019 A 
ATOM     12  C   UNL d   1     -39.039  14.834  21.510  0.00  0.00     0.064 A 
ATOM     13  C   UNL d   1     -39.825  14.952  21.260  0.00  0.00     0.019 A 
ATOM     14  C   UNL d   1     -39.962  15.305  20.516  0.00  0.00     0.021 A 
BRANCH  12  15
ATOM     15  N   UNL d   1     -38.904  14.487  22.243  0.00  0.00    -0.300 N 
ATOM     16  C   UNL d   1     -38.863  13.673  22.299  0.00  0.00     0.107 A 
ATOM     17  C   UNL d   1     -38.729  13.317  23.024  0.00  0.00     0.142 A 
ATOM     18  O   UNL d   1     -38.636  13.790  23.698  0.00  0.00    -0.300 OA
ATOM     19  C   UNL d   1     -38.676  14.621  23.649  0.00  0.00     0.142 A 
ATOM     20  C   UNL d   1     -38.811  14.959  22.913  0.00  0.00     0.107 A 
ENDBRANCH  12  15
ENDBRANCH   8   9
ENDBRANCH   4   8
BRANCH   1  21
ATOM     21  C   UNL d   1     -38.943  14.562  16.776  0.00  0.00     0.097 A 
ATOM     22  C   UNL d   1     -38.515  13.865  16.757  0.00  0.00     0.156 A 
ATOM     23  F   UNL d   1     -38.444  13.393  17.426  0.00  0.00    -0.203 F 
ATOM     24  C   UNL d   1     -38.144  13.625  16.058  0.00  0.00     0.031 A 
ATOM     25  C   UNL d   1     -38.208  14.088  15.383  0.00  0.00     0.002 A 
ATOM     26  C   UNL d   1     -38.639  14.786  15.408  0.00  0.00     0.002 A 
ATOM     27  C   UNL d   1     -39.007  15.022  16.108  0.00  0.00     0.020 A 
ENDBRANCH   1  21
TORSDOF 4
ENDMDL
