MODEL 1
REMARK VINA RESULT:      17.6      0.000      0.000
REMARK  3 active torsions:
REMARK  status: ('A' for Active; 'I' for Inactive)
REMARK    1  A    between atoms: C_2  and  S_1 
REMARK    2  A    between atoms: N_3  and  S_1 
REMARK    3  A    between atoms: C_4  and  N_3 
ROOT
ATOM      1  C   UNL d   1      13.455  12.508  -3.327  0.00  0.00     0.094 A 
ATOM      2  C   UNL d   1      13.262  12.499  -4.132  0.00  0.00     0.021 A 
ATOM      3  C   UNL d   1      13.076  13.179  -4.491  0.00  0.00     0.040 A 
ATOM      4  C   UNL d   1      13.075  13.886  -4.068  0.00  0.00     0.196 A 
ATOM      5  C   UNL d   1      13.455  13.204  -2.908  0.00  0.00     0.023 A 
ATOM      6  C   UNL d   1      13.269  13.894  -3.262  0.00  0.00     0.044 A 
ATOM      7  O   UNL d   1      12.871  14.598  -4.482  0.00  0.00    -0.287 OA
ATOM      8  C   UNL d   1      13.262  11.792  -4.556  0.00  0.00     0.002 A 
ATOM      9  C   UNL d   1      12.872  13.182  -5.329  0.00  0.00     0.003 A 
ATOM     10  C   UNL d   1      12.872  12.486  -5.748  0.00  0.00     0.000 A 
ATOM     11  C   UNL d   1      13.067  11.786  -5.367  0.00  0.00     0.000 A 
ENDROOT
BRANCH   1  12
ATOM     12  N   UNL d   1      13.653  11.803  -2.935  0.00  0.00    -0.158 NA
BRANCH  12  13
ATOM     13  S   UNL d   1      13.879  11.816  -2.139  0.00  0.00     0.291 S 
ATOM     14  O   UNL d   1      13.078  11.786  -1.908  0.00  0.00    -0.198 OA
ATOM     15  O   UNL d   1      14.656  11.845  -2.351  0.00  0.00    -0.198 OA
BRANCH  13  16
ATOM     16  C   UNL d   1      14.130  11.829  -1.360  0.00  0.00     0.135 A 
ATOM     17  S   UNL d   1      13.648  11.826  -0.727  0.00  0.00    -0.073 SA
ATOM     18  C   UNL d   1      14.092  11.843  -0.024  0.00  0.00     0.036 A 
ATOM     19  C   UNL d   1      14.870  11.857  -0.233  0.00  0.00     0.008 A 
ATOM     20  C   UNL d   1      14.921  11.850  -1.063  0.00  0.00     0.020 A 
ENDBRANCH  13  16
ENDBRANCH  12  13
ENDBRANCH   1  12
TORSDOF 3
ENDMDL
