MODEL 1
REMARK VINA RESULT:      -8.1      0.000      0.000
REMARK  3 active torsions:
REMARK  status: ('A' for Active; 'I' for Inactive)
REMARK    1  A    between atoms: C_8  and  S_1 
REMARK    2  A    between atoms: N_10  and  S_1 
REMARK    3  A    between atoms: C_17  and  N_10 
ROOT
ATOM      1  C   UNL d   1     -47.022  12.510  22.804  0.00  0.00     0.043 A 
ATOM      2  C   UNL d   1     -46.522  12.988  22.358  0.00  0.00     0.196 A 
ATOM      3  C   UNL d   1     -45.912  11.689  23.172  0.00  0.00     0.196 A 
ATOM      4  C   UNL d   1     -46.717  11.860  23.212  0.00  0.00     0.042 A 
ATOM      5  C   UNL d   1     -45.714  12.818  22.317  0.00  0.00     0.042 A 
ATOM      6  C   UNL d   1     -45.409  12.169  22.724  0.00  0.00     0.042 A 
ATOM      7  C   UNL d   1     -48.325  12.202  23.291  0.00  0.00     0.105 A 
ATOM      8  C   UNL d   1     -47.825  12.680  22.844  0.00  0.00     0.016 A 
ATOM      9  C   UNL d   1     -47.215  11.381  23.659  0.00  0.00     0.004 A 
ATOM     10  O   UNL d   1     -46.827  13.637  21.951  0.00  0.00    -0.287 OA
ATOM     11  O   UNL d   1     -45.606  11.040  23.580  0.00  0.00    -0.287 OA
ATOM     12  C   UNL d   1     -48.020  11.553  23.698  0.00  0.00     0.013 A 
ATOM     13  C   UNL d   1     -45.214  13.296  21.870  0.00  0.00     0.003 A 
ATOM     14  C   UNL d   1     -44.604  11.998  22.685  0.00  0.00     0.003 A 
ATOM     15  C   UNL d   1     -44.097  12.478  22.235  0.00  0.00     0.000 A 
ATOM     16  C   UNL d   1     -44.402  13.128  21.828  0.00  0.00     0.000 A 
ENDROOT
BRANCH   7  17
ATOM     17  S   UNL d   1     -49.144  12.377  23.330  0.00  0.00     0.285 S 
ATOM     18  O   UNL d   1     -48.973  13.107  23.698  0.00  0.00    -0.198 OA
ATOM     19  O   UNL d   1     -49.310  11.648  22.963  0.00  0.00    -0.198 OA
BRANCH  17  20
ATOM     20  N   UNL d   1     -49.956  12.552  23.370  0.00  0.00    -0.158 NA
BRANCH  20  21
ATOM     21  C   UNL d   1     -50.320  12.976  22.761  0.00  0.00     0.094 A 
ATOM     22  C   UNL d   1     -50.459  13.787  22.855  0.00  0.00     0.020 A 
ATOM     23  C   UNL d   1     -50.825  14.220  22.245  0.00  0.00     0.002 A 
ATOM     24  C   UNL d   1     -51.049  13.839  21.543  0.00  0.00     0.000 A 
ATOM     25  C   UNL d   1     -50.904  13.018  21.454  0.00  0.00     0.002 A 
ATOM     26  C   UNL d   1     -50.542  12.597  22.063  0.00  0.00     0.020 A 
ENDBRANCH  20  21
ENDBRANCH  17  20
ENDBRANCH   7  17
TORSDOF 3
ENDMDL
MODEL 2
REMARK VINA RESULT:      -8.0      1.299      2.105
REMARK  3 active torsions:
REMARK  status: ('A' for Active; 'I' for Inactive)
REMARK    1  A    between atoms: C_8  and  S_1 
REMARK    2  A    between atoms: N_10  and  S_1 
REMARK    3  A    between atoms: C_17  and  N_10 
ROOT
ATOM      1  C   UNL d   1     -46.739  12.829  22.941  0.00  0.00     0.043 A 
ATOM      2  C   UNL d   1     -46.704  12.095  23.314  0.00  0.00     0.196 A 
ATOM      3  C   UNL d   1     -45.368  12.705  22.562  0.00  0.00     0.196 A 
ATOM      4  C   UNL d   1     -46.071  13.134  22.565  0.00  0.00     0.042 A 
ATOM      5  C   UNL d   1     -46.000  11.664  23.312  0.00  0.00     0.042 A 
ATOM      6  C   UNL d   1     -45.331  11.969  22.936  0.00  0.00     0.042 A 
ATOM      7  C   UNL d   1     -47.477  13.991  22.571  0.00  0.00     0.105 A 
ATOM      8  C   UNL d   1     -47.442  13.257  22.944  0.00  0.00     0.016 A 
ATOM      9  C   UNL d   1     -46.106  13.867  22.192  0.00  0.00     0.004 A 
ATOM     10  O   UNL d   1     -47.372  11.791  23.690  0.00  0.00    -0.287 OA
ATOM     11  O   UNL d   1     -44.700  13.010  22.186  0.00  0.00    -0.287 OA
ATOM     12  C   UNL d   1     -46.809  14.295  22.195  0.00  0.00     0.013 A 
ATOM     13  C   UNL d   1     -45.964  10.930  23.684  0.00  0.00     0.003 A 
ATOM     14  C   UNL d   1     -44.628  11.540  22.932  0.00  0.00     0.003 A 
ATOM     15  C   UNL d   1     -44.589  10.800  23.308  0.00  0.00     0.000 A 
ATOM     16  C   UNL d   1     -45.257  10.495  23.684  0.00  0.00     0.000 A 
ENDROOT
BRANCH   7  17
ATOM     17  S   UNL d   1     -48.194  14.426  22.575  0.00  0.00     0.285 S 
ATOM     18  O   UNL d   1     -47.945  14.833  23.261  0.00  0.00    -0.198 OA
ATOM     19  O   UNL d   1     -48.436  14.018  21.891  0.00  0.00    -0.198 OA
BRANCH  17  20
ATOM     20  N   UNL d   1     -48.904  14.859  22.580  0.00  0.00    -0.158 NA
BRANCH  20  21
ATOM     21  C   UNL d   1     -49.621  14.477  22.731  0.00  0.00     0.094 A 
ATOM     22  C   UNL d   1     -50.025  14.105  22.111  0.00  0.00     0.020 A 
ATOM     23  C   UNL d   1     -50.747  13.719  22.257  0.00  0.00     0.002 A 
ATOM     24  C   UNL d   1     -51.063  13.706  23.023  0.00  0.00     0.000 A 
ATOM     25  C   UNL d   1     -50.650  14.084  23.647  0.00  0.00     0.002 A 
ATOM     26  C   UNL d   1     -49.936  14.464  23.494  0.00  0.00     0.020 A 
ENDBRANCH  20  21
ENDBRANCH  17  20
ENDBRANCH   7  17
TORSDOF 3
ENDMDL
MODEL 3
REMARK VINA RESULT:      -7.7      1.480      4.658
REMARK  3 active torsions:
REMARK  status: ('A' for Active; 'I' for Inactive)
REMARK    1  A    between atoms: C_8  and  S_1 
REMARK    2  A    between atoms: N_10  and  S_1 
REMARK    3  A    between atoms: C_17  and  N_10 
ROOT
ATOM      1  C   UNL d   1     -48.174  12.942  22.817  0.00  0.00     0.043 A 
ATOM      2  C   UNL d   1     -48.872  13.335  22.627  0.00  0.00     0.196 A 
ATOM      3  C   UNL d   1     -48.931  11.849  23.341  0.00  0.00     0.196 A 
ATOM      4  C   UNL d   1     -48.203  12.198  23.174  0.00  0.00     0.042 A 
ATOM      5  C   UNL d   1     -49.602  12.986  22.793  0.00  0.00     0.042 A 
ATOM      6  C   UNL d   1     -49.631  12.243  23.150  0.00  0.00     0.042 A 
ATOM      7  C   UNL d   1     -46.750  12.897  22.842  0.00  0.00     0.105 A 
ATOM      8  C   UNL d   1     -47.448  13.291  22.651  0.00  0.00     0.016 A 
ATOM      9  C   UNL d   1     -47.506  11.804  23.365  0.00  0.00     0.004 A 
ATOM     10  O   UNL d   1     -48.842  14.078  22.270  0.00  0.00    -0.287 OA
ATOM     11  O   UNL d   1     -48.960  11.105  23.698  0.00  0.00    -0.287 OA
ATOM     12  C   UNL d   1     -46.779  12.154  23.199  0.00  0.00     0.013 A 
ATOM     13  C   UNL d   1     -50.300  13.380  22.602  0.00  0.00     0.003 A 
ATOM     14  C   UNL d   1     -50.359  11.893  23.316  0.00  0.00     0.003 A 
ATOM     15  C   UNL d   1     -51.064  12.288  23.125  0.00  0.00     0.000 A 
ATOM     16  C   UNL d   1     -51.035  13.031  22.768  0.00  0.00     0.000 A 
ENDROOT
BRANCH   7  17
ATOM     17  S   UNL d   1     -46.010  13.254  22.672  0.00  0.00     0.285 S 
ATOM     18  O   UNL d   1     -45.857  13.330  23.490  0.00  0.00    -0.198 OA
ATOM     19  O   UNL d   1     -46.168  13.176  21.859  0.00  0.00    -0.198 OA
BRANCH  17  20
ATOM     20  N   UNL d   1     -45.277  13.608  22.506  0.00  0.00    -0.158 NA
BRANCH  20  21
ATOM     21  C   UNL d   1     -44.657  13.153  22.201  0.00  0.00     0.094 A 
ATOM     22  C   UNL d   1     -44.311  13.365  21.479  0.00  0.00     0.020 A 
ATOM     23  C   UNL d   1     -43.687  12.912  21.167  0.00  0.00     0.002 A 
ATOM     24  C   UNL d   1     -43.411  12.248  21.580  0.00  0.00     0.000 A 
ATOM     25  C   UNL d   1     -43.764  12.038  22.310  0.00  0.00     0.002 A 
ATOM     26  C   UNL d   1     -44.382  12.493  22.612  0.00  0.00     0.020 A 
ENDBRANCH  20  21
ENDBRANCH  17  20
ENDBRANCH   7  17
TORSDOF 3
ENDMDL
MODEL 4
REMARK VINA RESULT:      -7.3      8.347      9.878
REMARK  3 active torsions:
REMARK  status: ('A' for Active; 'I' for Inactive)
REMARK    1  A    between atoms: C_8  and  S_1 
REMARK    2  A    between atoms: N_10  and  S_1 
REMARK    3  A    between atoms: C_17  and  N_10 
ROOT
ATOM      1  C   UNL d   1     -39.442  14.421  18.180  0.00  0.00     0.043 A 
ATOM      2  C   UNL d   1     -38.895  13.871  17.904  0.00  0.00     0.196 A 
ATOM      3  C   UNL d   1     -39.589  14.941  16.857  0.00  0.00     0.196 A 
ATOM      4  C   UNL d   1     -39.789  14.955  17.656  0.00  0.00     0.042 A 
ATOM      5  C   UNL d   1     -38.692  13.854  17.103  0.00  0.00     0.042 A 
ATOM      6  C   UNL d   1     -39.039  14.389  16.580  0.00  0.00     0.042 A 
ATOM      7  C   UNL d   1     -40.190  14.985  19.253  0.00  0.00     0.105 A 
ATOM      8  C   UNL d   1     -39.643  14.436  18.977  0.00  0.00     0.016 A 
ATOM      9  C   UNL d   1     -40.337  15.506  17.931  0.00  0.00     0.004 A 
ATOM     10  O   UNL d   1     -38.548  13.336  18.428  0.00  0.00    -0.287 OA
ATOM     11  O   UNL d   1     -39.936  15.476  16.334  0.00  0.00    -0.287 OA
ATOM     12  C   UNL d   1     -40.537  15.520  18.730  0.00  0.00     0.013 A 
ATOM     13  C   UNL d   1     -38.145  13.304  16.828  0.00  0.00     0.003 A 
ATOM     14  C   UNL d   1     -38.839  14.374  15.781  0.00  0.00     0.003 A 
ATOM     15  C   UNL d   1     -38.287  13.821  15.500  0.00  0.00     0.000 A 
ATOM     16  C   UNL d   1     -37.940  13.286  16.023  0.00  0.00     0.000 A 
ENDROOT
BRANCH   7  17
ATOM     17  S   UNL d   1     -40.394  15.000  20.066  0.00  0.00     0.285 S 
ATOM     18  O   UNL d   1     -40.777  14.262  19.986  0.00  0.00    -0.198 OA
ATOM     19  O   UNL d   1     -40.011  15.735  20.141  0.00  0.00    -0.198 OA
BRANCH  17  20
ATOM     20  N   UNL d   1     -40.596  15.012  20.873  0.00  0.00    -0.158 NA
BRANCH  20  21
ATOM     21  C   UNL d   1     -40.023  14.853  21.447  0.00  0.00     0.094 A 
ATOM     22  C   UNL d   1     -39.620  15.480  21.806  0.00  0.00     0.020 A 
ATOM     23  C   UNL d   1     -39.041  15.326  22.385  0.00  0.00     0.002 A 
ATOM     24  C   UNL d   1     -38.870  14.545  22.601  0.00  0.00     0.000 A 
ATOM     25  C   UNL d   1     -39.281  13.914  22.234  0.00  0.00     0.002 A 
ATOM     26  C   UNL d   1     -39.852  14.075  21.662  0.00  0.00     0.020 A 
ENDBRANCH  20  21
ENDBRANCH  17  20
ENDBRANCH   7  17
TORSDOF 3
ENDMDL
MODEL 5
REMARK VINA RESULT:      -6.3      8.202      9.824
REMARK  3 active torsions:
REMARK  status: ('A' for Active; 'I' for Inactive)
REMARK    1  A    between atoms: C_8  and  S_1 
REMARK    2  A    between atoms: N_10  and  S_1 
REMARK    3  A    between atoms: C_17  and  N_10 
ROOT
ATOM      1  C   UNL d   1     -39.340  14.806  18.992  0.00  0.00     0.043 A 
ATOM      2  C   UNL d   1     -38.666  15.043  18.582  0.00  0.00     0.196 A 
ATOM      3  C   UNL d   1     -40.015  14.576  17.755  0.00  0.00     0.196 A 
ATOM      4  C   UNL d   1     -40.014  14.572  18.579  0.00  0.00     0.042 A 
ATOM      5  C   UNL d   1     -38.665  15.047  17.756  0.00  0.00     0.042 A 
ATOM      6  C   UNL d   1     -39.339  14.813  17.342  0.00  0.00     0.042 A 
ATOM      7  C   UNL d   1     -40.012  14.565  20.225  0.00  0.00     0.105 A 
ATOM      8  C   UNL d   1     -39.339  14.802  19.815  0.00  0.00     0.016 A 
ATOM      9  C   UNL d   1     -40.688  14.335  18.987  0.00  0.00     0.004 A 
ATOM     10  O   UNL d   1     -37.992  15.276  18.996  0.00  0.00    -0.287 OA
ATOM     11  O   UNL d   1     -40.689  14.342  17.341  0.00  0.00    -0.287 OA
ATOM     12  C   UNL d   1     -40.687  14.331  19.811  0.00  0.00     0.013 A 
ATOM     13  C   UNL d   1     -37.991  15.284  17.346  0.00  0.00     0.003 A 
ATOM     14  C   UNL d   1     -39.340  14.817  16.518  0.00  0.00     0.003 A 
ATOM     15  C   UNL d   1     -38.662  15.056  16.102  0.00  0.00     0.000 A 
ATOM     16  C   UNL d   1     -37.987  15.289  16.515  0.00  0.00     0.000 A 
ENDROOT
BRANCH   7  17
ATOM     17  S   UNL d   1     -40.011  14.562  21.063  0.00  0.00     0.285 S 
ATOM     18  O   UNL d   1     -40.086  13.730  21.062  0.00  0.00    -0.198 OA
ATOM     19  O   UNL d   1     -39.935  15.391  21.059  0.00  0.00    -0.198 OA
BRANCH  17  20
ATOM     20  N   UNL d   1     -40.009  14.557  21.895  0.00  0.00    -0.158 NA
BRANCH  20  21
ATOM     21  C   UNL d   1     -39.324  14.345  22.307  0.00  0.00     0.094 A 
ATOM     22  C   UNL d   1     -38.797  14.935  22.554  0.00  0.00     0.020 A 
ATOM     23  C   UNL d   1     -38.106  14.728  22.969  0.00  0.00     0.002 A 
ATOM     24  C   UNL d   1     -37.945  13.932  23.136  0.00  0.00     0.000 A 
ATOM     25  C   UNL d   1     -38.482  13.340  22.884  0.00  0.00     0.002 A 
ATOM     26  C   UNL d   1     -39.164  13.553  22.473  0.00  0.00     0.020 A 
ENDBRANCH  20  21
ENDBRANCH  17  20
ENDBRANCH   7  17
TORSDOF 3
ENDMDL
