MODEL 1
REMARK VINA RESULT:     -10.1      0.000      0.000
REMARK  3 active torsions:
REMARK  status: ('A' for Active; 'I' for Inactive)
REMARK    1  A    between atoms: C_10  and  C_4 
REMARK    2  A    between atoms: C_11  and  C_7 
REMARK    3  A    between atoms: C_12  and  C_10 
ROOT
ATOM      1  N   UNL d   1      53.106  32.698  53.538  0.00  0.00    -0.186 N 
ATOM      2  N   UNL d   1      52.435  32.965  53.115  0.00  0.00    -0.162 NA
ATOM      3  C   UNL d   1      53.434  33.186  54.129  0.00  0.00     0.217 A 
ATOM      4  C   UNL d   1      53.547  32.013  53.500  0.00  0.00     0.187 A 
ATOM      5  N   UNL d   1      54.149  32.061  54.058  0.00  0.00    -0.127 NA
ATOM      6  N   UNL d   1      54.076  32.778  54.439  0.00  0.00    -0.120 NA
ATOM      7  C   UNL d   1      52.104  33.698  53.281  0.00  0.00     0.108 A 
ATOM      8  S   UNL d   1      53.089  33.916  54.280  0.00  0.00    -0.045 SA
ATOM      9  C   UNL d   1      52.432  34.187  53.872  0.00  0.00     0.059 A 
ENDROOT
BRANCH   4  10
ATOM     10  C   UNL d   1      53.432  31.377  53.004  0.00  0.00     0.041 C 
BRANCH  10  11
ATOM     11  C   UNL d   1      53.275  30.646  53.318  0.00  0.00     0.003 A 
ATOM     12  C   UNL d   1      53.858  30.227  53.718  0.00  0.00     0.000 A 
ATOM     13  C   UNL d   1      53.708  29.483  54.041  0.00  0.00     0.000 A 
ATOM     14  C   UNL d   1      52.964  29.160  53.959  0.00  0.00     0.000 A 
ATOM     15  C   UNL d   1      52.379  29.575  53.560  0.00  0.00     0.000 A 
ATOM     16  C   UNL d   1      52.525  30.309  53.241  0.00  0.00     0.000 A 
ENDBRANCH  10  11
ENDBRANCH   4  10
BRANCH   7  17
ATOM     17  C   UNL d   1      51.439  33.955  52.857  0.00  0.00     0.020 A 
ATOM     18  C   UNL d   1      51.510  34.159  52.055  0.00  0.00     0.002 A 
ATOM     19  C   UNL d   1      50.850  34.417  51.620  0.00  0.00     0.000 A 
ATOM     20  C   UNL d   1      50.107  34.470  52.000  0.00  0.00     0.000 A 
ATOM     21  C   UNL d   1      50.031  34.270  52.789  0.00  0.00     0.000 A 
ATOM     22  C   UNL d   1      50.697  34.010  53.226  0.00  0.00     0.002 A 
ENDBRANCH   7  17
TORSDOF 3
ENDMDL
MODEL 2
REMARK VINA RESULT:     -10.1      1.440      4.222
REMARK  3 active torsions:
REMARK  status: ('A' for Active; 'I' for Inactive)
REMARK    1  A    between atoms: C_10  and  C_4 
REMARK    2  A    between atoms: C_11  and  C_7 
REMARK    3  A    between atoms: C_12  and  C_10 
ROOT
ATOM      1  N   UNL d   1      52.743  32.883  53.100  0.00  0.00    -0.186 N 
ATOM      2  N   UNL d   1      53.304  33.246  53.604  0.00  0.00    -0.162 NA
ATOM      3  C   UNL d   1      52.748  32.054  53.018  0.00  0.00     0.217 A 
ATOM      4  C   UNL d   1      52.144  33.180  52.633  0.00  0.00     0.187 A 
ATOM      5  N   UNL d   1      51.771  32.552  52.257  0.00  0.00    -0.127 NA
ATOM      6  N   UNL d   1      52.142  31.866  52.495  0.00  0.00    -0.120 NA
ATOM      7  C   UNL d   1      53.851  32.790  54.012  0.00  0.00     0.108 A 
ATOM      8  S   UNL d   1      53.303  31.615  53.435  0.00  0.00    -0.045 SA
ATOM      9  C   UNL d   1      53.857  31.960  53.931  0.00  0.00     0.059 A 
ENDROOT
BRANCH   4  10
ATOM     10  C   UNL d   1      51.933  33.962  52.537  0.00  0.00     0.041 C 
BRANCH  10  11
ATOM     11  C   UNL d   1      51.150  34.160  52.462  0.00  0.00     0.003 A 
ATOM     12  C   UNL d   1      50.788  34.164  51.724  0.00  0.00     0.000 A 
ATOM     13  C   UNL d   1      49.993  34.365  51.637  0.00  0.00     0.000 A 
ATOM     14  C   UNL d   1      49.560  34.561  52.300  0.00  0.00     0.000 A 
ATOM     15  C   UNL d   1      49.919  34.558  53.038  0.00  0.00     0.000 A 
ATOM     16  C   UNL d   1      50.703  34.361  53.126  0.00  0.00     0.000 A 
ENDBRANCH  10  11
ENDBRANCH   4  10
BRANCH   7  17
ATOM     17  C   UNL d   1      54.404  33.159  54.510  0.00  0.00     0.020 A 
ATOM     18  C   UNL d   1      55.102  33.476  54.192  0.00  0.00     0.002 A 
ATOM     19  C   UNL d   1      55.663  33.849  54.682  0.00  0.00     0.000 A 
ATOM     20  C   UNL d   1      55.516  33.900  55.504  0.00  0.00     0.000 A 
ATOM     21  C   UNL d   1      54.830  33.590  55.821  0.00  0.00     0.000 A 
ATOM     22  C   UNL d   1      54.266  33.215  55.327  0.00  0.00     0.002 A 
ENDBRANCH   7  17
TORSDOF 3
ENDMDL
MODEL 3
REMARK VINA RESULT:      -9.5      0.928      4.250
REMARK  3 active torsions:
REMARK  status: ('A' for Active; 'I' for Inactive)
REMARK    1  A    between atoms: C_10  and  C_4 
REMARK    2  A    between atoms: C_11  and  C_7 
REMARK    3  A    between atoms: C_12  and  C_10 
ROOT
ATOM      1  N   UNL d   1      52.280  33.348  53.322  0.00  0.00    -0.186 N 
ATOM      2  N   UNL d   1      52.347  32.514  53.355  0.00  0.00    -0.162 NA
ATOM      3  C   UNL d   1      52.972  33.811  53.325  0.00  0.00     0.217 A 
ATOM      4  C   UNL d   1      51.638  33.851  53.286  0.00  0.00     0.187 A 
ATOM      5  N   UNL d   1      51.914  34.624  53.265  0.00  0.00    -0.127 NA
ATOM      6  N   UNL d   1      52.729  34.596  53.289  0.00  0.00    -0.120 NA
ATOM      7  C   UNL d   1      53.086  32.159  53.389  0.00  0.00     0.108 A 
ATOM      8  S   UNL d   1      53.702  33.437  53.359  0.00  0.00    -0.045 SA
ATOM      9  C   UNL d   1      53.780  32.622  53.391  0.00  0.00     0.059 A 
ENDROOT
BRANCH   4  10
ATOM     10  C   UNL d   1      50.849  33.645  53.272  0.00  0.00     0.041 C 
BRANCH  10  11
ATOM     11  C   UNL d   1      50.327  34.088  52.837  0.00  0.00     0.003 A 
ATOM     12  C   UNL d   1      49.868  34.667  53.196  0.00  0.00     0.000 A 
ATOM     13  C   UNL d   1      49.334  35.122  52.762  0.00  0.00     0.000 A 
ATOM     14  C   UNL d   1      49.263  34.991  51.960  0.00  0.00     0.000 A 
ATOM     15  C   UNL d   1      49.720  34.413  51.599  0.00  0.00     0.000 A 
ATOM     16  C   UNL d   1      50.247  33.963  52.024  0.00  0.00     0.000 A 
ENDBRANCH  10  11
ENDBRANCH   4  10
BRANCH   7  17
ATOM     17  C   UNL d   1      53.143  31.332  53.421  0.00  0.00     0.020 A 
ATOM     18  C   UNL d   1      52.817  30.869  52.815  0.00  0.00     0.002 A 
ATOM     19  C   UNL d   1      52.868  30.038  52.836  0.00  0.00     0.000 A 
ATOM     20  C   UNL d   1      53.255  29.671  53.481  0.00  0.00     0.000 A 
ATOM     21  C   UNL d   1      53.578  30.122  54.081  0.00  0.00     0.000 A 
ATOM     22  C   UNL d   1      53.526  30.958  54.057  0.00  0.00     0.002 A 
ENDBRANCH   7  17
TORSDOF 3
ENDMDL
MODEL 4
REMARK VINA RESULT:      -8.9      1.545      2.947
REMARK  3 active torsions:
REMARK  status: ('A' for Active; 'I' for Inactive)
REMARK    1  A    between atoms: C_10  and  C_4 
REMARK    2  A    between atoms: C_11  and  C_7 
REMARK    3  A    between atoms: C_12  and  C_10 
ROOT
ATOM      1  N   UNL d   1      53.185  32.024  53.253  0.00  0.00    -0.186 N 
ATOM      2  N   UNL d   1      53.781  32.336  53.750  0.00  0.00    -0.162 NA
ATOM      3  C   UNL d   1      52.551  32.513  53.023  0.00  0.00     0.217 A 
ATOM      4  C   UNL d   1      53.075  31.290  52.914  0.00  0.00     0.187 A 
ATOM      5  N   UNL d   1      52.381  31.307  52.474  0.00  0.00    -0.127 NA
ATOM      6  N   UNL d   1      52.064  32.056  52.543  0.00  0.00    -0.120 NA
ATOM      7  C   UNL d   1      53.740  33.115  54.008  0.00  0.00     0.108 A 
ATOM      8  S   UNL d   1      52.528  33.289  53.291  0.00  0.00    -0.045 SA
ATOM      9  C   UNL d   1      53.106  33.605  53.778  0.00  0.00     0.059 A 
ENDROOT
BRANCH   4  10
ATOM     10  C   UNL d   1      53.556  30.635  52.985  0.00  0.00     0.041 C 
BRANCH  10  11
ATOM     11  C   UNL d   1      53.308  30.000  53.423  0.00  0.00     0.003 A 
ATOM     12  C   UNL d   1      53.675  29.812  54.134  0.00  0.00     0.000 A 
ATOM     13  C   UNL d   1      53.430  29.168  54.587  0.00  0.00     0.000 A 
ATOM     14  C   UNL d   1      52.810  28.711  54.321  0.00  0.00     0.000 A 
ATOM     15  C   UNL d   1      52.441  28.895  53.611  0.00  0.00     0.000 A 
ATOM     16  C   UNL d   1      52.681  29.530  53.163  0.00  0.00     0.000 A 
ENDBRANCH  10  11
ENDBRANCH   4  10
BRANCH   7  17
ATOM     17  C   UNL d   1      54.336  33.416  54.501  0.00  0.00     0.020 A 
ATOM     18  C   UNL d   1      54.248  33.384  55.325  0.00  0.00     0.002 A 
ATOM     19  C   UNL d   1      54.839  33.683  55.830  0.00  0.00     0.000 A 
ATOM     20  C   UNL d   1      55.528  34.019  55.495  0.00  0.00     0.000 A 
ATOM     21  C   UNL d   1      55.619  34.053  54.684  0.00  0.00     0.000 A 
ATOM     22  C   UNL d   1      55.024  33.752  54.178  0.00  0.00     0.002 A 
ENDBRANCH   7  17
TORSDOF 3
ENDMDL
MODEL 5
REMARK VINA RESULT:      -8.1      2.107      4.449
REMARK  3 active torsions:
REMARK  status: ('A' for Active; 'I' for Inactive)
REMARK    1  A    between atoms: C_10  and  C_4 
REMARK    2  A    between atoms: C_11  and  C_7 
REMARK    3  A    between atoms: C_12  and  C_10 
ROOT
ATOM      1  N   UNL d   1      53.363  31.594  53.370  0.00  0.00    -0.186 N 
ATOM      2  N   UNL d   1      53.545  30.916  53.824  0.00  0.00    -0.162 NA
ATOM      3  C   UNL d   1      52.702  31.578  52.863  0.00  0.00     0.217 A 
ATOM      4  C   UNL d   1      53.715  32.328  53.305  0.00  0.00     0.187 A 
ATOM      5  N   UNL d   1      53.286  32.775  52.765  0.00  0.00    -0.127 NA
ATOM      6  N   UNL d   1      52.669  32.314  52.497  0.00  0.00    -0.120 NA
ATOM      7  C   UNL d   1      53.077  30.243  53.770  0.00  0.00     0.108 A 
ATOM      8  S   UNL d   1      52.247  30.896  52.823  0.00  0.00    -0.045 SA
ATOM      9  C   UNL d   1      52.415  30.226  53.263  0.00  0.00     0.059 A 
ENDROOT
BRANCH   4  10
ATOM     10  C   UNL d   1      54.378  32.595  53.697  0.00  0.00     0.041 C 
BRANCH  10  11
ATOM     11  C   UNL d   1      54.306  33.177  54.257  0.00  0.00     0.003 A 
ATOM     12  C   UNL d   1      54.524  33.038  55.037  0.00  0.00     0.000 A 
ATOM     13  C   UNL d   1      54.455  33.623  55.614  0.00  0.00     0.000 A 
ATOM     14  C   UNL d   1      54.162  34.354  55.402  0.00  0.00     0.000 A 
ATOM     15  C   UNL d   1      53.943  34.496  54.624  0.00  0.00     0.000 A 
ATOM     16  C   UNL d   1      54.011  33.921  54.054  0.00  0.00     0.000 A 
ENDBRANCH  10  11
ENDBRANCH   4  10
BRANCH   7  17
ATOM     17  C   UNL d   1      53.265  29.574  54.225  0.00  0.00     0.020 A 
ATOM     18  C   UNL d   1      53.028  29.532  55.019  0.00  0.00     0.002 A 
ATOM     19  C   UNL d   1      53.211  28.867  55.485  0.00  0.00     0.000 A 
ATOM     20  C   UNL d   1      53.639  28.235  55.142  0.00  0.00     0.000 A 
ATOM     21  C   UNL d   1      53.874  28.272  54.360  0.00  0.00     0.000 A 
ATOM     22  C   UNL d   1      53.690  28.942  53.893  0.00  0.00     0.002 A 
ENDBRANCH   7  17
TORSDOF 3
ENDMDL
MODEL 6
REMARK VINA RESULT:      -7.8      1.445      2.755
REMARK  3 active torsions:
REMARK  status: ('A' for Active; 'I' for Inactive)
REMARK    1  A    between atoms: C_10  and  C_4 
REMARK    2  A    between atoms: C_11  and  C_7 
REMARK    3  A    between atoms: C_12  and  C_10 
ROOT
ATOM      1  N   UNL d   1      53.046  32.695  53.236  0.00  0.00    -0.186 N 
ATOM      2  N   UNL d   1      52.443  33.250  53.068  0.00  0.00    -0.162 NA
ATOM      3  C   UNL d   1      52.877  31.881  53.174  0.00  0.00     0.217 A 
ATOM      4  C   UNL d   1      53.825  32.776  53.465  0.00  0.00     0.187 A 
ATOM      5  N   UNL d   1      54.151  32.026  53.549  0.00  0.00    -0.127 NA
ATOM      6  N   UNL d   1      53.569  31.483  53.370  0.00  0.00    -0.120 NA
ATOM      7  C   UNL d   1      51.695  32.996  52.845  0.00  0.00     0.108 A 
ATOM      8  S   UNL d   1      52.123  31.647  52.950  0.00  0.00    -0.045 SA
ATOM      9  C   UNL d   1      51.525  32.182  52.783  0.00  0.00     0.059 A 
ENDROOT
BRANCH   4  10
ATOM     10  C   UNL d   1      54.233  33.469  53.596  0.00  0.00     0.041 C 
BRANCH  10  11
ATOM     11  C   UNL d   1      54.570  33.607  54.320  0.00  0.00     0.003 A 
ATOM     12  C   UNL d   1      54.102  33.779  54.974  0.00  0.00     0.000 A 
ATOM     13  C   UNL d   1      54.436  33.921  55.715  0.00  0.00     0.000 A 
ATOM     14  C   UNL d   1      55.246  33.888  55.796  0.00  0.00     0.000 A 
ATOM     15  C   UNL d   1      55.716  33.717  55.146  0.00  0.00     0.000 A 
ATOM     16  C   UNL d   1      55.390  33.577  54.414  0.00  0.00     0.000 A 
ENDBRANCH  10  11
ENDBRANCH   4  10
BRANCH   7  17
ATOM     17  C   UNL d   1      51.103  33.554  52.681  0.00  0.00     0.020 A 
ATOM     18  C   UNL d   1      50.627  33.847  53.294  0.00  0.00     0.002 A 
ATOM     19  C   UNL d   1      50.030  34.407  53.141  0.00  0.00     0.000 A 
ATOM     20  C   UNL d   1      49.914  34.674  52.357  0.00  0.00     0.000 A 
ATOM     21  C   UNL d   1      50.381  34.389  51.750  0.00  0.00     0.000 A 
ATOM     22  C   UNL d   1      50.981  33.826  51.906  0.00  0.00     0.002 A 
ENDBRANCH   7  17
TORSDOF 3
ENDMDL
