MODEL 1
REMARK VINA RESULT:      -3.7      0.000      0.000
REMARK  3 active torsions:
REMARK  status: ('A' for Active; 'I' for Inactive)
REMARK    1  A    between atoms: C_2  and  S_1 
REMARK    2  A    between atoms: N_3  and  S_1 
REMARK    3  A    between atoms: O_17  and  C_7 
ROOT
ATOM      1  S   UNL d   1     -41.870-122.980 -50.325  0.00  0.00     0.273 S 
ATOM      2  O   UNL d   1     -41.673-123.793 -50.403  0.00  0.00    -0.200 OA
ATOM      3  O   UNL d   1     -42.066-122.176 -50.242  0.00  0.00    -0.200 OA
ENDROOT
BRANCH   1   4
ATOM      4  C   UNL d   1     -42.077-123.108 -49.512  0.00  0.00     0.127 A 
ATOM      5  C   UNL d   1     -41.516-122.962 -48.937  0.00  0.00     0.026 A 
ATOM      6  C   UNL d   1     -41.697-123.079 -48.139  0.00  0.00     0.059 A 
ATOM      7 CL   UNL d   1     -41.123-122.929 -47.557  0.00  0.00    -0.082 Cl
ATOM      8  C   UNL d   1     -42.457-123.350 -47.915  0.00  0.00     0.013 A 
ATOM      9  C   UNL d   1     -43.023-123.496 -48.520  0.00  0.00     0.026 A 
ATOM     10  C   UNL d   1     -42.828-123.374 -49.312  0.00  0.00     0.106 A 
BRANCH  10  11
ATOM     11  O   UNL d   1     -43.403-123.525 -49.894  0.00  0.00    -0.327 OA
ATOM     12  C   UNL d   1     -44.145-123.816 -49.674  0.00  0.00     0.181 C 
ENDBRANCH  10  11
ENDBRANCH   1   4
BRANCH   1  13
ATOM     13  N   UNL d   1     -41.670-122.845 -51.114  0.00  0.00    -0.226 N 
ATOM     14  C   UNL d   1     -41.757-122.105 -51.457  0.00  0.00     0.111 A 
ATOM     15  C   UNL d   1     -41.558-121.970 -52.246  0.00  0.00     0.100 A 
ATOM     16  N   UNL d   1     -41.264-122.587 -52.707  0.00  0.00    -0.299 N 
ATOM     17  C   UNL d   1     -41.175-123.331 -52.367  0.00  0.00     0.100 A 
ATOM     18  C   UNL d   1     -41.123-122.460 -53.294  0.00  0.00     0.100 C 
ATOM     19  C   UNL d   1     -41.375-123.462 -51.578  0.00  0.00     0.111 A 
ENDBRANCH   1  13
TORSDOF 3
ENDMDL
MODEL 2
REMARK VINA RESULT:      -3.6      0.803      1.136
REMARK  3 active torsions:
REMARK  status: ('A' for Active; 'I' for Inactive)
REMARK    1  A    between atoms: C_2  and  S_1 
REMARK    2  A    between atoms: N_3  and  S_1 
REMARK    3  A    between atoms: O_17  and  C_7 
ROOT
ATOM      1  S   UNL d   1     -41.827-123.059 -50.843  0.00  0.00     0.273 S 
ATOM      2  O   UNL d   1     -41.423-122.329 -50.742  0.00  0.00    -0.200 OA
ATOM      3  O   UNL d   1     -42.229-123.782 -50.937  0.00  0.00    -0.200 OA
ENDROOT
BRANCH   1   4
ATOM      4  C   UNL d   1     -42.026-123.063 -50.018  0.00  0.00     0.127 A 
ATOM      5  C   UNL d   1     -41.495-123.388 -49.488  0.00  0.00     0.026 A 
ATOM      6  C   UNL d   1     -41.668-123.402 -48.680  0.00  0.00     0.059 A 
ATOM      7 CL   UNL d   1     -41.124-123.734 -48.145  0.00  0.00    -0.082 Cl
ATOM      8  C   UNL d   1     -42.389-123.085 -48.399  0.00  0.00     0.013 A 
ATOM      9  C   UNL d   1     -42.926-122.754 -48.957  0.00  0.00     0.026 A 
ATOM     10  C   UNL d   1     -42.739-122.747 -49.760  0.00  0.00     0.106 A 
BRANCH  10  11
ATOM     11  O   UNL d   1     -43.283-122.415 -50.295  0.00  0.00    -0.327 OA
ATOM     12  C   UNL d   1     -44.030-122.181 -50.030  0.00  0.00     0.181 C 
ENDBRANCH  10  11
ENDBRANCH   1   4
BRANCH   1  13
ATOM     13  N   UNL d   1     -41.639-123.064 -51.646  0.00  0.00    -0.226 N 
ATOM     14  C   UNL d   1     -41.701-123.747 -52.096  0.00  0.00     0.111 A 
ATOM     15  C   UNL d   1     -41.514-123.752 -52.899  0.00  0.00     0.100 A 
ATOM     16  N   UNL d   1     -41.257-123.060 -53.266  0.00  0.00    -0.299 N 
ATOM     17  C   UNL d   1     -41.193-122.373 -52.818  0.00  0.00     0.100 A 
ATOM     18  C   UNL d   1     -41.123-123.091 -53.866  0.00  0.00     0.100 C 
ATOM     19  C   UNL d   1     -41.381-122.371 -52.015  0.00  0.00     0.111 A 
ENDBRANCH   1  13
TORSDOF 3
ENDMDL
MODEL 3
REMARK VINA RESULT:      -3.6      1.699      3.759
REMARK  3 active torsions:
REMARK  status: ('A' for Active; 'I' for Inactive)
REMARK    1  A    between atoms: C_2  and  S_1 
REMARK    2  A    between atoms: N_3  and  S_1 
REMARK    3  A    between atoms: O_17  and  C_7 
ROOT
ATOM      1  S   UNL d   1     -41.824-122.843 -50.789  0.00  0.00     0.273 S 
ATOM      2  O   UNL d   1     -42.530-122.407 -50.916  0.00  0.00    -0.200 OA
ATOM      3  O   UNL d   1     -41.123-123.275 -50.669  0.00  0.00    -0.200 OA
ENDROOT
BRANCH   1   4
ATOM      4  C   UNL d   1     -41.586-122.690 -51.589  0.00  0.00     0.127 A 
ATOM      5  C   UNL d   1     -41.592-123.308 -52.124  0.00  0.00     0.026 A 
ATOM      6  C   UNL d   1     -41.364-123.181 -52.909  0.00  0.00     0.059 A 
ATOM      7 CL   UNL d   1     -41.372-123.813 -53.450  0.00  0.00    -0.082 Cl
ATOM      8  C   UNL d   1     -41.124-122.420 -53.160  0.00  0.00     0.013 A 
ATOM      9  C   UNL d   1     -41.123-121.795 -52.596  0.00  0.00     0.026 A 
ATOM     10  C   UNL d   1     -41.354-121.936 -51.817  0.00  0.00     0.106 A 
BRANCH  10  11
ATOM     11  O   UNL d   1     -41.346-121.304 -51.276  0.00  0.00    -0.327 OA
ATOM     12  C   UNL d   1     -41.186-120.538 -51.541  0.00  0.00     0.181 C 
ENDBRANCH  10  11
ENDBRANCH   1   4
BRANCH   1  13
ATOM     13  N   UNL d   1     -42.047-122.997 -50.010  0.00  0.00    -0.226 N 
ATOM     14  C   UNL d   1     -42.823-122.911 -49.761  0.00  0.00     0.111 A 
ATOM     15  C   UNL d   1     -43.046-123.065 -48.981  0.00  0.00     0.100 A 
ATOM     16  N   UNL d   1     -42.481-123.312 -48.434  0.00  0.00    -0.299 N 
ATOM     17  C   UNL d   1     -41.701-123.400 -48.680  0.00  0.00     0.100 A 
ATOM     18  C   UNL d   1     -42.672-123.421 -47.858  0.00  0.00     0.100 C 
ATOM     19  C   UNL d   1     -41.482-123.245 -49.459  0.00  0.00     0.111 A 
ENDBRANCH   1  13
TORSDOF 3
ENDMDL
MODEL 4
REMARK VINA RESULT:      -2.9      2.159      3.083
REMARK  3 active torsions:
REMARK  status: ('A' for Active; 'I' for Inactive)
REMARK    1  A    between atoms: C_2  and  S_1 
REMARK    2  A    between atoms: N_3  and  S_1 
REMARK    3  A    between atoms: O_17  and  C_7 
ROOT
ATOM      1  S   UNL d   1     -41.797-122.244 -52.855  0.00  0.00     0.273 S 
ATOM      2  O   UNL d   1     -42.476-121.769 -52.723  0.00  0.00    -0.200 OA
ATOM      3  O   UNL d   1     -41.123-122.716 -52.980  0.00  0.00    -0.200 OA
ENDROOT
BRANCH   1   4
ATOM      4  C   UNL d   1     -41.685-122.318 -52.017  0.00  0.00     0.127 A 
ATOM      5  C   UNL d   1     -41.909-123.014 -51.652  0.00  0.00     0.026 A 
ATOM      6  C   UNL d   1     -41.809-123.107 -50.836  0.00  0.00     0.059 A 
ATOM      7 CL   UNL d   1     -42.038-123.817 -50.469  0.00  0.00    -0.082 Cl
ATOM      8  C   UNL d   1     -41.478-122.489 -50.380  0.00  0.00     0.013 A 
ATOM      9  C   UNL d   1     -41.253-121.778 -50.772  0.00  0.00     0.026 A 
ATOM     10  C   UNL d   1     -41.359-121.700 -51.586  0.00  0.00     0.106 A 
BRANCH  10  11
ATOM     11  O   UNL d   1     -41.130-120.990 -51.953  0.00  0.00    -0.327 OA
ATOM     12  C   UNL d   1     -41.123-120.286 -51.519  0.00  0.00     0.181 C 
ENDBRANCH  10  11
ENDBRANCH   1   4
BRANCH   1  13
ATOM     13  N   UNL d   1     -41.896-122.179 -53.672  0.00  0.00    -0.226 N 
ATOM     14  C   UNL d   1     -42.449-121.668 -53.996  0.00  0.00     0.111 A 
ATOM     15  C   UNL d   1     -42.549-121.603 -54.813  0.00  0.00     0.100 A 
ATOM     16  N   UNL d   1     -42.086-122.058 -55.321  0.00  0.00    -0.299 N 
ATOM     17  C   UNL d   1     -41.530-122.572 -54.999  0.00  0.00     0.100 A 
ATOM     18  C   UNL d   1     -42.180-121.991 -55.926  0.00  0.00     0.100 C 
ATOM     19  C   UNL d   1     -41.434-122.635 -54.183  0.00  0.00     0.111 A 
ENDBRANCH   1  13
TORSDOF 3
ENDMDL
