MODEL 1
REMARK VINA RESULT:       5.4      0.000      0.000
REMARK  5 active torsions:
REMARK  status: ('A' for Active; 'I' for Inactive)
REMARK    1  A    between atoms: S_2  and  N_1 
REMARK    2  A    between atoms: C_10  and  S_2 
REMARK    3  A    between atoms: N_7  and  C_3 
REMARK    4  A    between atoms: C_12  and  C_6 
REMARK    5  A    between atoms: C_13  and  N_7 
ROOT
ATOM      1  N   UNL d   1     -41.723-122.446 -51.482  0.00  0.00    -0.176 N 
ATOM      2  C   UNL d   1     -41.368-121.746 -51.725  0.00  0.00     0.191 A 
ATOM      3  C   UNL d   1     -41.875-122.913 -52.133  0.00  0.00     0.281 A 
ATOM      4  S   UNL d   1     -41.302-121.790 -52.547  0.00  0.00    -0.044 SA
ATOM      5  C   UNL d   1     -41.625-122.529 -52.780  0.00  0.00     0.089 A 
ATOM      6  O   UNL d   1     -42.233-123.678 -52.155  0.00  0.00    -0.265 OA
ENDROOT
BRANCH   1   7
ATOM      7  S   UNL d   1     -41.904-122.654 -50.708  0.00  0.00     0.275 S 
ATOM      8  O   UNL d   1     -42.568-122.151 -50.686  0.00  0.00    -0.199 OA
ATOM      9  O   UNL d   1     -41.249-123.170 -50.686  0.00  0.00    -0.199 OA
BRANCH   7  10
ATOM     10  C   UNL d   1     -42.077-122.867 -49.938  0.00  0.00     0.104 A 
ATOM     11  C   UNL d   1     -41.487-123.206 -49.461  0.00  0.00     0.013 A 
ATOM     12  C   UNL d   1     -41.638-123.431 -48.674  0.00  0.00     0.001 A 
ATOM     13  C   UNL d   1     -42.418-123.311 -48.346  0.00  0.00     0.000 A 
ATOM     14  C   UNL d   1     -42.964-122.980 -48.838  0.00  0.00     0.001 A 
ATOM     15  C   UNL d   1     -42.816-122.762 -49.602  0.00  0.00     0.013 A 
ENDBRANCH   7  10
ENDBRANCH   1   7
BRANCH   2  16
ATOM     16  N   UNL d   1     -41.158-121.180 -51.185  0.00  0.00    -0.222 NA
BRANCH  16  17
ATOM     17  C   UNL d   1     -41.146-120.380 -51.413  0.00  0.00     0.084 A 
ATOM     18  C   UNL d   1     -41.134-119.794 -50.837  0.00  0.00     0.019 A 
ATOM     19  C   UNL d   1     -41.123-118.996 -51.049  0.00  0.00     0.002 A 
ATOM     20  C   UNL d   1     -41.123-118.793 -51.868  0.00  0.00     0.000 A 
ATOM     21  C   UNL d   1     -41.135-119.380 -52.443  0.00  0.00     0.002 A 
ATOM     22  C   UNL d   1     -41.147-120.175 -52.209  0.00  0.00     0.019 A 
ENDBRANCH  16  17
ENDBRANCH   2  16
BRANCH   5  23
ATOM     23  C   UNL d   1     -41.692-122.840 -53.535  0.00  0.00     0.011 A 
ATOM     24  C   UNL d   1     -42.309-122.620 -54.011  0.00  0.00     0.001 A 
ATOM     25  C   UNL d   1     -42.381-122.931 -54.774  0.00  0.00     0.000 A 
ATOM     26  C   UNL d   1     -41.834-123.466 -55.063  0.00  0.00     0.000 A 
ATOM     27  C   UNL d   1     -41.200-123.691 -54.571  0.00  0.00     0.000 A 
ATOM     28  C   UNL d   1     -41.123-123.381 -53.805  0.00  0.00     0.001 A 
ENDBRANCH   5  23
TORSDOF 5
ENDMDL
MODEL 2
REMARK VINA RESULT:       5.8      0.679      3.720
REMARK  5 active torsions:
REMARK  status: ('A' for Active; 'I' for Inactive)
REMARK    1  A    between atoms: S_2  and  N_1 
REMARK    2  A    between atoms: C_10  and  S_2 
REMARK    3  A    between atoms: N_7  and  C_3 
REMARK    4  A    between atoms: C_12  and  C_6 
REMARK    5  A    between atoms: C_13  and  N_7 
ROOT
ATOM      1  N   UNL d   1     -41.704-122.381 -52.042  0.00  0.00    -0.176 N 
ATOM      2  C   UNL d   1     -41.441-121.690 -51.685  0.00  0.00     0.191 A 
ATOM      3  C   UNL d   1     -41.995-122.886 -51.471  0.00  0.00     0.281 A 
ATOM      4  S   UNL d   1     -41.576-121.777 -50.875  0.00  0.00    -0.044 SA
ATOM      5  C   UNL d   1     -41.924-122.533 -50.765  0.00  0.00     0.089 A 
ATOM      6  O   UNL d   1     -42.324-123.658 -51.576  0.00  0.00    -0.265 OA
ENDROOT
BRANCH   1   7
ATOM      7  S   UNL d   1     -41.683-122.550 -52.845  0.00  0.00     0.275 S 
ATOM      8  O   UNL d   1     -41.194-123.215 -52.732  0.00  0.00    -0.199 OA
ATOM      9  O   UNL d   1     -42.172-121.893 -53.005  0.00  0.00    -0.199 OA
BRANCH   7  10
ATOM     10  C   UNL d   1     -41.667-122.711 -53.646  0.00  0.00     0.104 A 
ATOM     11  C   UNL d   1     -42.068-122.213 -54.176  0.00  0.00     0.013 A 
ATOM     12  C   UNL d   1     -42.067-122.356 -54.996  0.00  0.00     0.001 A 
ATOM     13  C   UNL d   1     -41.643-123.032 -55.303  0.00  0.00     0.000 A 
ATOM     14  C   UNL d   1     -41.265-123.492 -54.760  0.00  0.00     0.001 A 
ATOM     15  C   UNL d   1     -41.267-123.352 -53.964  0.00  0.00     0.013 A 
ENDBRANCH   7  10
ENDBRANCH   1   7
BRANCH   2  16
ATOM     16  N   UNL d   1     -41.123-121.091 -52.128  0.00  0.00    -0.222 NA
BRANCH  16  17
ATOM     17  C   UNL d   1     -41.123-120.314 -51.829  0.00  0.00     0.084 A 
ATOM     18  C   UNL d   1     -41.123-119.679 -52.349  0.00  0.00     0.019 A 
ATOM     19  C   UNL d   1     -41.123-118.903 -52.067  0.00  0.00     0.002 A 
ATOM     20  C   UNL d   1     -41.123-118.774 -51.233  0.00  0.00     0.000 A 
ATOM     21  C   UNL d   1     -41.123-119.411 -50.713  0.00  0.00     0.002 A 
ATOM     22  C   UNL d   1     -41.123-120.182 -51.018  0.00  0.00     0.019 A 
ENDBRANCH  16  17
ENDBRANCH   2  16
BRANCH   5  23
ATOM     23  C   UNL d   1     -42.163-122.887 -50.065  0.00  0.00     0.011 A 
ATOM     24  C   UNL d   1     -41.613-123.116 -49.517  0.00  0.00     0.001 A 
ATOM     25  C   UNL d   1     -41.849-123.473 -48.810  0.00  0.00     0.000 A 
ATOM     26  C   UNL d   1     -42.641-123.603 -48.649  0.00  0.00     0.000 A 
ATOM     27  C   UNL d   1     -43.205-123.367 -49.215  0.00  0.00     0.000 A 
ATOM     28  C   UNL d   1     -42.973-123.008 -49.926  0.00  0.00     0.001 A 
ENDBRANCH   5  23
TORSDOF 5
ENDMDL
