MODEL 1
REMARK VINA RESULT:      -6.4      0.000      0.000
REMARK  3 active torsions:
REMARK  status: ('A' for Active; 'I' for Inactive)
REMARK       I    between atoms: N_3  and  C_1 
REMARK       I    between atoms: N_5  and  C_1 
REMARK    1  A    between atoms: C_2  and  O_6 
REMARK       I    between atoms: N_4  and  C_2 
REMARK    2  A    between atoms: C_10  and  N_5 
REMARK    3  A    between atoms: O_6  and  C_11 
ROOT
ATOM      1  C   UNL d   1     -41.139-122.991 -50.566  0.00  0.00     0.086 A 
ATOM      2  C   UNL d   1     -41.128-122.602 -52.169  0.00  0.00     0.105 A 
ATOM      3  C   UNL d   1     -41.144-122.187 -50.808  0.00  0.00     0.021 A 
ATOM      4  C   UNL d   1     -41.128-123.595 -51.150  0.00  0.00     0.021 A 
ATOM      5  C   UNL d   1     -41.138-121.994 -51.598  0.00  0.00     0.026 A 
ATOM      6  C   UNL d   1     -41.123-123.403 -51.940  0.00  0.00     0.026 A 
ENDROOT
BRANCH   1   7
ATOM      7  N   UNL d   1     -41.144-123.183 -49.777  0.00  0.00    -0.192 NA
ATOM      8  C   UNL d   1     -41.845-123.230 -49.356  0.00  0.00     0.354 C 
ATOM      9  N   UNL d   1     -41.851-123.425 -48.554  0.00  0.00    -0.252 N 
ATOM     10  O   UNL d   1     -42.565-123.073 -49.760  0.00  0.00    -0.244 OA
ATOM     11  C   UNL d   1     -42.576-123.466 -48.144  0.00  0.00     0.111 A 
ATOM     12  C   UNL d   1     -41.143-123.580 -48.149  0.00  0.00     0.111 A 
ATOM     13  C   UNL d   1     -42.582-123.664 -47.331  0.00  0.00     0.142 A 
ATOM     14  O   UNL d   1     -41.862-123.818 -46.938  0.00  0.00    -0.300 OA
ATOM     15  C   UNL d   1     -41.148-123.775 -47.348  0.00  0.00     0.142 A 
ENDBRANCH   1   7
BRANCH   2  16
ATOM     16  O   UNL d   1     -41.123-122.407 -52.971  0.00  0.00    -0.259 OA
BRANCH  16  17
ATOM     17  C   UNL d   1     -41.819-122.176 -53.344  0.00  0.00     0.377 C 
ATOM     18  N   UNL d   1     -41.854-122.138 -54.168  0.00  0.00    -0.252 N 
ATOM     19  C   UNL d   1     -42.551-121.907 -54.540  0.00  0.00     0.085 A 
ATOM     20  C   UNL d   1     -41.192-122.331 -54.618  0.00  0.00     0.085 A 
ATOM     21  C   UNL d   1     -42.589-121.868 -55.364  0.00  0.00     0.019 A 
ATOM     22  C   UNL d   1     -41.928-122.061 -55.814  0.00  0.00     0.003 A 
ATOM     23  C   UNL d   1     -41.227-122.293 -55.445  0.00  0.00     0.019 A 
ATOM     24  O   UNL d   1     -42.481-121.983 -52.899  0.00  0.00    -0.237 OA
ENDBRANCH  16  17
ENDBRANCH   2  16
TORSDOF 3
ENDMDL
MODEL 2
REMARK VINA RESULT:      -6.2      0.812      5.673
REMARK  3 active torsions:
REMARK  status: ('A' for Active; 'I' for Inactive)
REMARK       I    between atoms: N_3  and  C_1 
REMARK       I    between atoms: N_5  and  C_1 
REMARK    1  A    between atoms: C_2  and  O_6 
REMARK       I    between atoms: N_4  and  C_2 
REMARK    2  A    between atoms: C_10  and  N_5 
REMARK    3  A    between atoms: O_6  and  C_11 
ROOT
ATOM      1  C   UNL d   1     -41.175-122.679 -52.391  0.00  0.00     0.086 A 
ATOM      2  C   UNL d   1     -41.163-122.932 -50.760  0.00  0.00     0.105 A 
ATOM      3  C   UNL d   1     -41.214-123.460 -52.081  0.00  0.00     0.021 A 
ATOM      4  C   UNL d   1     -41.129-122.029 -51.860  0.00  0.00     0.021 A 
ATOM      5  C   UNL d   1     -41.208-123.584 -51.278  0.00  0.00     0.026 A 
ATOM      6  C   UNL d   1     -41.123-122.154 -51.057  0.00  0.00     0.026 A 
ENDROOT
BRANCH   1   7
ATOM      7  N   UNL d   1     -41.181-122.555 -53.193  0.00  0.00    -0.192 NA
ATOM      8  C   UNL d   1     -41.862-122.319 -53.581  0.00  0.00     0.354 C 
ATOM      9  N   UNL d   1     -41.868-122.192 -54.397  0.00  0.00    -0.252 N 
ATOM     10  O   UNL d   1     -42.561-122.207 -53.129  0.00  0.00    -0.244 OA
ATOM     11  C   UNL d   1     -42.573-121.952 -54.772  0.00  0.00     0.111 A 
ATOM     12  C   UNL d   1     -41.180-122.301 -54.849  0.00  0.00     0.111 A 
ATOM     13  C   UNL d   1     -42.579-121.823 -55.599  0.00  0.00     0.142 A 
ATOM     14  O   UNL d   1     -41.880-121.937 -56.040  0.00  0.00    -0.300 OA
ATOM     15  C   UNL d   1     -41.186-122.174 -55.664  0.00  0.00     0.142 A 
ENDBRANCH   1   7
BRANCH   2  16
ATOM     16  O   UNL d   1     -41.157-123.059 -49.945  0.00  0.00    -0.259 OA
BRANCH  16  17
ATOM     17  C   UNL d   1     -41.864-123.076 -49.524  0.00  0.00     0.377 C 
ATOM     18  N   UNL d   1     -41.858-123.200 -48.709  0.00  0.00    -0.252 N 
ATOM     19  C   UNL d   1     -42.566-123.217 -48.289  0.00  0.00     0.085 A 
ATOM     20  C   UNL d   1     -41.145-123.308 -48.314  0.00  0.00     0.085 A 
ATOM     21  C   UNL d   1     -42.564-123.342 -47.474  0.00  0.00     0.019 A 
ATOM     22  C   UNL d   1     -41.851-123.450 -47.078  0.00  0.00     0.003 A 
ATOM     23  C   UNL d   1     -41.138-123.434 -47.495  0.00  0.00     0.019 A 
ATOM     24  O   UNL d   1     -42.579-122.969 -49.915  0.00  0.00    -0.237 OA
ENDBRANCH  16  17
ENDBRANCH   2  16
TORSDOF 3
ENDMDL
