MODEL 1
REMARK VINA RESULT:      72.3      0.000      0.000
REMARK  4 active torsions:
REMARK  status: ('A' for Active; 'I' for Inactive)
REMARK    1  A    between atoms: C_30  and  N_11 
REMARK    2  A    between atoms: C_29  and  N_12 
REMARK    3  A    between atoms: C_16  and  C_13 
REMARK    4  A    between atoms: C_15  and  C_14 
ROOT
ATOM      1  N   UNL d   1      14.082  13.653  -2.768  0.00  0.00    -0.240 N 
ATOM      2  N   UNL d   1      14.298  14.480  -2.648  0.00  0.00    -0.240 N 
ATOM      3  C   UNL d   1      14.266  13.233  -2.058  0.00  0.00     0.144 A 
ATOM      4  C   UNL d   1      14.114  14.900  -3.357  0.00  0.00     0.144 A 
ATOM      5  C   UNL d   1      13.781  14.342  -3.929  0.00  0.00     0.097 A 
ATOM      6  C   UNL d   1      14.595  13.792  -1.497  0.00  0.00     0.097 A 
ATOM      7  C   UNL d   1      14.252  12.470  -1.684  0.00  0.00     0.285 A 
ATOM      8  C   UNL d   1      14.136  15.674  -3.717  0.00  0.00     0.285 A 
ATOM      9  C   UNL d   1      14.780  13.369  -0.784  0.00  0.00     0.270 A 
ATOM     10  C   UNL d   1      13.600  14.779  -4.641  0.00  0.00     0.270 A 
ATOM     11  N   UNL d   1      13.818  15.601  -4.513  0.00  0.00    -0.239 N 
ATOM     12  N   UNL d   1      14.565  12.549  -0.905  0.00  0.00    -0.239 N 
ATOM     13  C   UNL d   1      13.766  13.581  -3.558  0.00  0.00     0.094 A 
ATOM     14  C   UNL d   1      14.611  14.551  -1.864  0.00  0.00     0.094 A 
ATOM     15  O   UNL d   1      14.407  16.359  -3.376  0.00  0.00    -0.265 OA
ATOM     16  O   UNL d   1      13.277  14.474  -5.321  0.00  0.00    -0.266 OA
ATOM     17  O   UNL d   1      15.103  13.680  -0.105  0.00  0.00    -0.266 OA
ATOM     18  O   UNL d   1      13.980  11.779  -2.023  0.00  0.00    -0.265 OA
ENDROOT
BRANCH  13  19
ATOM     19  C   UNL d   1      13.492  12.895  -3.905  0.00  0.00     0.047 A 
ATOM     20  S   UNL d   1      12.839  12.477  -3.665  0.00  0.00    -0.085 SA
ATOM     21  C   UNL d   1      12.769  11.838  -4.159  0.00  0.00     0.035 A 
ATOM     22  C   UNL d   1      13.378  11.864  -4.701  0.00  0.00     0.007 A 
ATOM     23  C   UNL d   1      13.820  12.525  -4.533  0.00  0.00     0.009 A 
ENDBRANCH  13  19
BRANCH  11  24
ATOM     24  C   UNL d   1      13.736  16.202  -5.051  0.00  0.00     0.086 C 
ATOM     25  C   UNL d   1      14.398  16.639  -5.283  0.00  0.00     0.021 C 
ENDBRANCH  11  24
BRANCH  14  26
ATOM     26  C   UNL d   1      14.879  15.233  -1.529  0.00  0.00     0.047 A 
ATOM     27  S   UNL d   1      14.545  15.612  -0.889  0.00  0.00    -0.085 SA
ATOM     28  C   UNL d   1      14.985  16.267  -0.738  0.00  0.00     0.035 A 
ATOM     29  C   UNL d   1      15.584  16.296  -1.277  0.00  0.00     0.007 A 
ATOM     30  C   UNL d   1      15.519  15.659  -1.764  0.00  0.00     0.009 A 
ENDBRANCH  14  26
BRANCH  12  31
ATOM     31  C   UNL d   1      14.651  11.951  -0.356  0.00  0.00     0.086 C 
ATOM     32  C   UNL d   1      15.388  11.809  -0.014  0.00  0.00     0.021 C 
ENDBRANCH  12  31
TORSDOF 4
ENDMDL
MODEL 2
REMARK VINA RESULT:      73.4      1.200      3.423
REMARK  4 active torsions:
REMARK  status: ('A' for Active; 'I' for Inactive)
REMARK    1  A    between atoms: C_30  and  N_11 
REMARK    2  A    between atoms: C_29  and  N_12 
REMARK    3  A    between atoms: C_16  and  C_13 
REMARK    4  A    between atoms: C_15  and  C_14 
ROOT
ATOM      1  N   UNL d   1      14.400  14.407  -2.178  0.00  0.00    -0.240 N 
ATOM      2  N   UNL d   1      14.142  14.533  -2.991  0.00  0.00    -0.240 N 
ATOM      3  C   UNL d   1      14.715  15.136  -1.891  0.00  0.00     0.144 A 
ATOM      4  C   UNL d   1      13.827  13.804  -3.279  0.00  0.00     0.144 A 
ATOM      5  C   UNL d   1      13.883  13.213  -2.648  0.00  0.00     0.097 A 
ATOM      6  C   UNL d   1      14.656  15.716  -2.520  0.00  0.00     0.097 A 
ATOM      7  C   UNL d   1      15.069  15.519  -1.220  0.00  0.00     0.285 A 
ATOM      8  C   UNL d   1      13.473  13.436  -3.963  0.00  0.00     0.285 A 
ATOM      9  C   UNL d   1      14.973  16.450  -2.231  0.00  0.00     0.270 A 
ATOM     10  C   UNL d   1      13.561  12.481  -2.951  0.00  0.00     0.270 A 
ATOM     11  N   UNL d   1      13.308  12.616  -3.761  0.00  0.00    -0.239 N 
ATOM     12  N   UNL d   1      15.228  16.321  -1.424  0.00  0.00    -0.239 N 
ATOM     13  C   UNL d   1      14.235  13.592  -1.979  0.00  0.00     0.094 A 
ATOM     14  C   UNL d   1      14.305  15.341  -3.188  0.00  0.00     0.094 A 
ATOM     15  O   UNL d   1      13.317  13.789  -4.677  0.00  0.00    -0.265 OA
ATOM     16  O   UNL d   1      13.504  11.779  -2.547  0.00  0.00    -0.266 OA
ATOM     17  O   UNL d   1      15.028  17.150  -2.642  0.00  0.00    -0.266 OA
ATOM     18  O   UNL d   1      15.227  15.168  -0.500  0.00  0.00    -0.265 OA
ENDROOT
BRANCH  13  19
ATOM     19  C   UNL d   1      14.390  13.233  -1.263  0.00  0.00     0.047 A 
ATOM     20  S   UNL d   1      15.026  12.753  -1.107  0.00  0.00    -0.085 SA
ATOM     21  C   UNL d   1      14.964  12.517  -0.333  0.00  0.00     0.035 A 
ATOM     22  C   UNL d   1      14.292  12.852  -0.016  0.00  0.00     0.007 A 
ATOM     23  C   UNL d   1      13.944  13.294  -0.602  0.00  0.00     0.009 A 
ENDBRANCH  13  19
BRANCH  11  24
ATOM     24  C   UNL d   1      12.970  12.064  -4.251  0.00  0.00     0.086 C 
ATOM     25  C   UNL d   1      13.362  11.830  -4.940  0.00  0.00     0.021 C 
ENDBRANCH  11  24
BRANCH  14  26
ATOM     26  C   UNL d   1      14.149  15.688  -3.899  0.00  0.00     0.047 A 
ATOM     27  S   UNL d   1      14.707  15.955  -4.431  0.00  0.00    -0.085 SA
ATOM     28  C   UNL d   1      14.315  16.260  -5.061  0.00  0.00     0.035 A 
ATOM     29  C   UNL d   1      13.523  16.185  -4.924  0.00  0.00     0.007 A 
ATOM     30  C   UNL d   1      13.421  15.833  -4.208  0.00  0.00     0.009 A 
ENDBRANCH  14  26
BRANCH  12  31
ATOM     31  C   UNL d   1      15.566  16.885  -0.939  0.00  0.00     0.086 C 
ATOM     32  C   UNL d   1      15.970  16.653  -0.257  0.00  0.00     0.021 C 
ENDBRANCH  12  31
TORSDOF 4
ENDMDL
MODEL 3
REMARK VINA RESULT:      74.2      1.138      3.213
REMARK  4 active torsions:
REMARK  status: ('A' for Active; 'I' for Inactive)
REMARK    1  A    between atoms: C_30  and  N_11 
REMARK    2  A    between atoms: C_29  and  N_12 
REMARK    3  A    between atoms: C_16  and  C_13 
REMARK    4  A    between atoms: C_15  and  C_14 
ROOT
ATOM      1  N   UNL d   1      14.259  14.467  -2.629  0.00  0.00    -0.240 N 
ATOM      2  N   UNL d   1      14.158  13.670  -2.315  0.00  0.00    -0.240 N 
ATOM      3  C   UNL d   1      14.637  14.933  -2.034  0.00  0.00     0.144 A 
ATOM      4  C   UNL d   1      13.780  13.204  -2.910  0.00  0.00     0.144 A 
ATOM      5  C   UNL d   1      13.640  13.705  -3.602  0.00  0.00     0.097 A 
ATOM      6  C   UNL d   1      14.773  14.431  -1.352  0.00  0.00     0.097 A 
ATOM      7  C   UNL d   1      14.936  15.707  -1.848  0.00  0.00     0.285 A 
ATOM      8  C   UNL d   1      13.485  12.421  -3.079  0.00  0.00     0.285 A 
ATOM      9  C   UNL d   1      15.153  14.900  -0.753  0.00  0.00     0.270 A 
ATOM     10  C   UNL d   1      13.257  13.222  -4.196  0.00  0.00     0.270 A 
ATOM     11  N   UNL d   1      13.161  12.431  -3.875  0.00  0.00    -0.239 N 
ATOM     12  N   UNL d   1      15.252  15.690  -1.067  0.00  0.00    -0.239 N 
ATOM     13  C   UNL d   1      13.936  14.476  -3.420  0.00  0.00     0.094 A 
ATOM     14  C   UNL d   1      14.478  13.662  -1.531  0.00  0.00     0.094 A 
ATOM     15  O   UNL d   1      13.504  11.779  -2.582  0.00  0.00    -0.265 OA
ATOM     16  O   UNL d   1      13.024  13.467  -4.935  0.00  0.00    -0.266 OA
ATOM     17  O   UNL d   1      15.384  14.649  -0.015  0.00  0.00    -0.266 OA
ATOM     18  O   UNL d   1      14.919  16.354  -2.344  0.00  0.00    -0.265 OA
ENDROOT
BRANCH  13  19
ATOM     19  C   UNL d   1      13.915  15.119  -3.923  0.00  0.00     0.047 A 
ATOM     20  S   UNL d   1      13.247  15.532  -4.127  0.00  0.00    -0.085 SA
ATOM     21  C   UNL d   1      13.475  16.122  -4.633  0.00  0.00     0.035 A 
ATOM     22  C   UNL d   1      14.283  16.071  -4.740  0.00  0.00     0.007 A 
ATOM     23  C   UNL d   1      14.544  15.444  -4.294  0.00  0.00     0.009 A 
ENDBRANCH  13  19
BRANCH  11  24
ATOM     24  C   UNL d   1      12.822  11.801  -4.259  0.00  0.00     0.086 C 
ATOM     25  C   UNL d   1      12.812  11.779  -5.085  0.00  0.00     0.021 C 
ENDBRANCH  11  24
BRANCH  14  26
ATOM     26  C   UNL d   1      14.495  13.022  -1.041  0.00  0.00     0.047 A 
ATOM     27  S   UNL d   1      15.059  12.433  -1.047  0.00  0.00    -0.085 SA
ATOM     28  C   UNL d   1      14.866  11.907  -0.472  0.00  0.00     0.035 A 
ATOM     29  C   UNL d   1      14.192  12.165  -0.112  0.00  0.00     0.007 A 
ATOM     30  C   UNL d   1      13.963  12.852  -0.462  0.00  0.00     0.009 A 
ENDBRANCH  14  26
BRANCH  12  31
ATOM     31  C   UNL d   1      15.595  16.317  -0.671  0.00  0.00     0.086 C 
ATOM     32  C   UNL d   1      15.426  17.091  -0.902  0.00  0.00     0.021 C 
ENDBRANCH  12  31
TORSDOF 4
ENDMDL
