MODEL 1
REMARK VINA RESULT:      -8.3      0.000      0.000
REMARK  9 active torsions:
REMARK  status: ('A' for Active; 'I' for Inactive)
REMARK    1  A    between atoms: C_12  and  N_1 
REMARK    2  A    between atoms: C_13  and  N_2 
REMARK    3  A    between atoms: O_9  and  C_23 
REMARK    4  A    between atoms: C_10  and  O_9 
REMARK    5  A    between atoms: C_11  and  C_12 
REMARK    6  A    between atoms: C_18  and  C_13 
REMARK    7  A    between atoms: C_26  and  C_15 
REMARK    8  A    between atoms: C_16  and  C_26 
REMARK    9  A    between atoms: C_23  and  C_18 
ROOT
ATOM      1  N   UNL d   1      48.447  35.629  52.215  0.00  0.00    -0.300 N 
ATOM      2  N   UNL d   1      49.635  34.521  52.576  0.00  0.00    -0.297 N 
ATOM      3  C   UNL d   1      48.812  35.635  52.931  0.00  0.00     0.100 A 
ATOM      4  C   UNL d   1      49.274  34.501  51.839  0.00  0.00     0.100 A 
ATOM      5  C   UNL d   1      49.405  35.094  53.133  0.00  0.00     0.100 A 
ATOM      6  C   UNL d   1      48.680  35.055  51.660  0.00  0.00     0.100 A 
ENDROOT
BRANCH   2   7
ATOM      7  C   UNL d   1      50.214  33.988  52.762  0.00  0.00     0.125 C 
BRANCH   7   8
ATOM      8  C   UNL d   1      50.993  34.122  52.594  0.00  0.00     0.238 C 
ATOM      9  O   UNL d   1      51.189  34.337  51.814  0.00  0.00    -0.283 OA
BRANCH   8  10
ATOM     10  C   UNL d   1      51.556  34.051  53.156  0.00  0.00     0.166 C 
BRANCH  10  11
ATOM     11  O   UNL d   1      52.114  33.439  53.116  0.00  0.00    -0.302 OA
BRANCH  11  12
ATOM     12  C   UNL d   1      52.721  33.399  53.653  0.00  0.00     0.100 A 
ATOM     13  C   UNL d   1      53.159  32.714  53.743  0.00  0.00     0.023 A 
ATOM     14  C   UNL d   1      53.778  32.662  54.285  0.00  0.00     0.002 A 
ATOM     15  C   UNL d   1      53.968  33.319  54.754  0.00  0.00     0.000 A 
ATOM     16  C   UNL d   1      53.529  34.027  54.673  0.00  0.00     0.002 A 
ATOM     17  C   UNL d   1      52.902  34.057  54.114  0.00  0.00     0.025 A 
BRANCH  13  18
ATOM     18  C   UNL d   1      52.976  32.068  53.285  0.00  0.00     0.002 C 
BRANCH  18  19
ATOM     19  C   UNL d   1      53.371  31.364  53.394  0.00  0.00     0.000 C 
ATOM     20  C   UNL d   1      53.116  30.675  53.008  0.00  0.00     0.000 C 
ENDBRANCH  18  19
ENDBRANCH  13  18
ENDBRANCH  11  12
ENDBRANCH  10  11
ENDBRANCH   8  10
ENDBRANCH   7   8
ENDBRANCH   2   7
BRANCH   1  21
ATOM     21  C   UNL d   1      47.870  36.168  52.041  0.00  0.00     0.080 C 
BRANCH  21  22
ATOM     22  C   UNL d   1      47.102  35.992  52.240  0.00  0.00     0.020 A 
ATOM     23  C   UNL d   1      46.621  35.625  51.699  0.00  0.00     0.028 A 
ATOM     24  C   UNL d   1      45.842  35.457  51.929  0.00  0.00     0.119 A 
ATOM     25  O   UNL d   1      45.256  35.091  51.482  0.00  0.00    -0.300 OA
ATOM     26  C   UNL d   1      45.567  35.653  52.667  0.00  0.00     0.119 A 
ATOM     27  C   UNL d   1      44.560  35.049  51.963  0.00  0.00     0.304 A 
ATOM     28  O   UNL d   1      44.772  35.403  52.697  0.00  0.00    -0.300 OA
ATOM     29  C   UNL d   1      46.057  36.028  53.218  0.00  0.00     0.026 A 
ATOM     30  C   UNL d   1      46.833  36.197  52.996  0.00  0.00     0.004 A 
ENDBRANCH  21  22
ENDBRANCH   1  21
TORSDOF 9
ENDMDL
MODEL 2
REMARK VINA RESULT:      -8.0      1.867      6.795
REMARK  9 active torsions:
REMARK  status: ('A' for Active; 'I' for Inactive)
REMARK    1  A    between atoms: C_12  and  N_1 
REMARK    2  A    between atoms: C_13  and  N_2 
REMARK    3  A    between atoms: O_9  and  C_23 
REMARK    4  A    between atoms: C_10  and  O_9 
REMARK    5  A    between atoms: C_11  and  C_12 
REMARK    6  A    between atoms: C_18  and  C_13 
REMARK    7  A    between atoms: C_26  and  C_15 
REMARK    8  A    between atoms: C_16  and  C_26 
REMARK    9  A    between atoms: C_23  and  C_18 
ROOT
ATOM      1  N   UNL d   1      53.152  32.633  53.279  0.00  0.00    -0.300 N 
ATOM      2  N   UNL d   1      51.940  33.770  53.193  0.00  0.00    -0.297 N 
ATOM      3  C   UNL d   1      52.978  33.099  53.911  0.00  0.00     0.100 A 
ATOM      4  C   UNL d   1      52.103  33.304  52.538  0.00  0.00     0.100 A 
ATOM      5  C   UNL d   1      52.380  33.671  53.891  0.00  0.00     0.100 A 
ATOM      6  C   UNL d   1      52.710  32.736  52.581  0.00  0.00     0.100 A 
ENDROOT
BRANCH   2   7
ATOM      7  C   UNL d   1      51.354  34.326  53.162  0.00  0.00     0.125 C 
BRANCH   7   8
ATOM      8  C   UNL d   1      50.571  34.125  53.148  0.00  0.00     0.238 C 
ATOM      9  O   UNL d   1      50.312  33.545  53.687  0.00  0.00    -0.283 OA
BRANCH   8  10
ATOM     10  C   UNL d   1      50.063  34.471  52.637  0.00  0.00     0.166 C 
BRANCH  10  11
ATOM     11  O   UNL d   1      49.421  34.913  52.918  0.00  0.00    -0.302 OA
BRANCH  11  12
ATOM     12  C   UNL d   1      48.819  35.128  52.418  0.00  0.00     0.100 A 
ATOM     13  C   UNL d   1      48.241  35.655  52.659  0.00  0.00     0.023 A 
ATOM     14  C   UNL d   1      47.625  35.881  52.160  0.00  0.00     0.002 A 
ATOM     15  C   UNL d   1      47.585  35.570  51.392  0.00  0.00     0.000 A 
ATOM     16  C   UNL d   1      48.169  35.029  51.132  0.00  0.00     0.002 A 
ATOM     17  C   UNL d   1      48.787  34.813  51.658  0.00  0.00     0.025 A 
BRANCH  13  18
ATOM     18  C   UNL d   1      48.278  35.963  53.409  0.00  0.00     0.002 C 
BRANCH  18  19
ATOM     19  C   UNL d   1      47.690  36.460  53.678  0.00  0.00     0.000 C 
ATOM     20  C   UNL d   1      47.679  36.708  54.469  0.00  0.00     0.000 C 
ENDBRANCH  18  19
ENDBRANCH  13  18
ENDBRANCH  11  12
ENDBRANCH  10  11
ENDBRANCH   8  10
ENDBRANCH   7   8
ENDBRANCH   2   7
BRANCH   1  21
ATOM     21  C   UNL d   1      53.741  32.081  53.322  0.00  0.00     0.080 C 
BRANCH  21  22
ATOM     22  C   UNL d   1      53.536  31.303  53.434  0.00  0.00     0.020 A 
ATOM     23  C   UNL d   1      53.581  30.978  54.177  0.00  0.00     0.028 A 
ATOM     24  C   UNL d   1      53.366  30.182  54.263  0.00  0.00     0.119 A 
ATOM     25  O   UNL d   1      53.365  29.735  54.953  0.00  0.00    -0.300 OA
ATOM     26  C   UNL d   1      53.119  29.739  53.628  0.00  0.00     0.119 A 
ATOM     27  C   UNL d   1      53.102  28.956  54.750  0.00  0.00     0.304 A 
ATOM     28  O   UNL d   1      52.953  28.977  53.922  0.00  0.00    -0.300 OA
ATOM     29  C   UNL d   1      53.074  30.070  52.871  0.00  0.00     0.026 A 
ATOM     30  C   UNL d   1      53.286  30.862  52.779  0.00  0.00     0.004 A 
ENDBRANCH  21  22
ENDBRANCH   1  21
TORSDOF 9
ENDMDL
MODEL 3
REMARK VINA RESULT:      -7.7      1.592      6.819
REMARK  9 active torsions:
REMARK  status: ('A' for Active; 'I' for Inactive)
REMARK    1  A    between atoms: C_12  and  N_1 
REMARK    2  A    between atoms: C_13  and  N_2 
REMARK    3  A    between atoms: O_9  and  C_23 
REMARK    4  A    between atoms: C_10  and  O_9 
REMARK    5  A    between atoms: C_11  and  C_12 
REMARK    6  A    between atoms: C_18  and  C_13 
REMARK    7  A    between atoms: C_26  and  C_15 
REMARK    8  A    between atoms: C_16  and  C_26 
REMARK    9  A    between atoms: C_23  and  C_18 
ROOT
ATOM      1  N   UNL d   1      52.309  33.169  52.864  0.00  0.00    -0.300 N 
ATOM      2  N   UNL d   1      50.755  33.767  52.880  0.00  0.00    -0.297 N 
ATOM      3  C   UNL d   1      51.730  32.801  53.283  0.00  0.00     0.100 A 
ATOM      4  C   UNL d   1      51.333  34.156  52.446  0.00  0.00     0.100 A 
ATOM      5  C   UNL d   1      50.951  33.080  53.306  0.00  0.00     0.100 A 
ATOM      6  C   UNL d   1      52.109  33.856  52.438  0.00  0.00     0.100 A 
ENDROOT
BRANCH   2   7
ATOM      7  C   UNL d   1      49.998  34.048  52.895  0.00  0.00     0.125 C 
BRANCH   7   8
ATOM      8  C   UNL d   1      49.829  34.823  53.051  0.00  0.00     0.238 C 
ATOM      9  O   UNL d   1      50.314  35.220  53.600  0.00  0.00    -0.283 OA
BRANCH   8  10
ATOM     10  C   UNL d   1      49.220  35.195  52.693  0.00  0.00     0.166 C 
BRANCH  10  11
ATOM     11  O   UNL d   1      48.643  35.584  53.143  0.00  0.00    -0.302 OA
BRANCH  11  12
ATOM     12  C   UNL d   1      47.959  35.848  52.796  0.00  0.00     0.100 A 
ATOM     13  C   UNL d   1      47.392  36.246  53.233  0.00  0.00     0.023 A 
ATOM     14  C   UNL d   1      46.693  36.519  52.891  0.00  0.00     0.002 A 
ATOM     15  C   UNL d   1      46.555  36.390  52.084  0.00  0.00     0.000 A 
ATOM     16  C   UNL d   1      47.125  35.985  51.624  0.00  0.00     0.002 A 
ATOM     17  C   UNL d   1      47.830  35.716  51.994  0.00  0.00     0.025 A 
BRANCH  13  18
ATOM     18  C   UNL d   1      47.524  36.374  54.024  0.00  0.00     0.002 C 
BRANCH  18  19
ATOM     19  C   UNL d   1      46.923  36.649  54.501  0.00  0.00     0.000 C 
ATOM     20  C   UNL d   1      47.030  36.707  55.321  0.00  0.00     0.000 C 
ENDBRANCH  18  19
ENDBRANCH  13  18
ENDBRANCH  11  12
ENDBRANCH  10  11
ENDBRANCH   8  10
ENDBRANCH   7   8
ENDBRANCH   2   7
BRANCH   1  21
ATOM     21  C   UNL d   1      53.062  32.878  52.856  0.00  0.00     0.080 C 
BRANCH  21  22
ATOM     22  C   UNL d   1      53.503  32.923  53.538  0.00  0.00     0.020 A 
ATOM     23  C   UNL d   1      53.798  33.640  53.778  0.00  0.00     0.028 A 
ATOM     24  C   UNL d   1      54.244  33.657  54.477  0.00  0.00     0.119 A 
ATOM     25  O   UNL d   1      54.598  34.311  54.830  0.00  0.00    -0.300 OA
ATOM     26  C   UNL d   1      54.382  32.982  54.908  0.00  0.00     0.119 A 
ATOM     27  C   UNL d   1      54.988  34.040  55.531  0.00  0.00     0.304 A 
ATOM     28  O   UNL d   1      54.843  33.212  55.564  0.00  0.00    -0.300 OA
ATOM     29  C   UNL d   1      54.081  32.252  54.663  0.00  0.00     0.026 A 
ATOM     30  C   UNL d   1      53.637  32.228  53.969  0.00  0.00     0.004 A 
ENDBRANCH  21  22
ENDBRANCH   1  21
TORSDOF 9
ENDMDL
MODEL 4
REMARK VINA RESULT:      -7.3      1.472      6.721
REMARK  9 active torsions:
REMARK  status: ('A' for Active; 'I' for Inactive)
REMARK    1  A    between atoms: C_12  and  N_1 
REMARK    2  A    between atoms: C_13  and  N_2 
REMARK    3  A    between atoms: O_9  and  C_23 
REMARK    4  A    between atoms: C_10  and  O_9 
REMARK    5  A    between atoms: C_11  and  C_12 
REMARK    6  A    between atoms: C_18  and  C_13 
REMARK    7  A    between atoms: C_26  and  C_15 
REMARK    8  A    between atoms: C_16  and  C_26 
REMARK    9  A    between atoms: C_23  and  C_18 
ROOT
ATOM      1  N   UNL d   1      52.125  33.628  52.963  0.00  0.00    -0.300 N 
ATOM      2  N   UNL d   1      50.523  34.061  52.836  0.00  0.00    -0.297 N 
ATOM      3  C   UNL d   1      51.822  33.886  52.265  0.00  0.00     0.100 A 
ATOM      4  C   UNL d   1      50.814  33.800  53.557  0.00  0.00     0.100 A 
ATOM      5  C   UNL d   1      51.029  34.107  52.178  0.00  0.00     0.100 A 
ATOM      6  C   UNL d   1      51.615  33.583  53.620  0.00  0.00     0.100 A 
ENDROOT
BRANCH   2   7
ATOM      7  C   UNL d   1      49.747  34.274  52.762  0.00  0.00     0.125 C 
BRANCH   7   8
ATOM      8  C   UNL d   1      49.493  35.030  52.899  0.00  0.00     0.238 C 
ATOM      9  O   UNL d   1      49.936  35.496  53.427  0.00  0.00    -0.283 OA
BRANCH   8  10
ATOM     10  C   UNL d   1      48.839  35.318  52.541  0.00  0.00     0.166 C 
BRANCH  10  11
ATOM     11  O   UNL d   1      48.250  35.697  52.985  0.00  0.00    -0.302 OA
BRANCH  11  12
ATOM     12  C   UNL d   1      47.548  35.910  52.640  0.00  0.00     0.100 A 
ATOM     13  C   UNL d   1      46.961  36.280  53.074  0.00  0.00     0.023 A 
ATOM     14  C   UNL d   1      46.244  36.501  52.734  0.00  0.00     0.002 A 
ATOM     15  C   UNL d   1      46.106  36.347  51.931  0.00  0.00     0.000 A 
ATOM     16  C   UNL d   1      46.696  35.968  51.474  0.00  0.00     0.002 A 
ATOM     17  C   UNL d   1      47.420  35.752  51.841  0.00  0.00     0.025 A 
BRANCH  13  18
ATOM     18  C   UNL d   1      47.093  36.433  53.861  0.00  0.00     0.002 C 
BRANCH  18  19
ATOM     19  C   UNL d   1      46.465  36.570  54.362  0.00  0.00     0.000 C 
ATOM     20  C   UNL d   1      46.593  36.703  55.171  0.00  0.00     0.000 C 
ENDBRANCH  18  19
ENDBRANCH  13  18
ENDBRANCH  11  12
ENDBRANCH  10  11
ENDBRANCH   8  10
ENDBRANCH   7   8
ENDBRANCH   2   7
BRANCH   1  21
ATOM     21  C   UNL d   1      52.902  33.417  53.024  0.00  0.00     0.080 C 
BRANCH  21  22
ATOM     22  C   UNL d   1      53.083  32.651  53.226  0.00  0.00     0.020 A 
ATOM     23  C   UNL d   1      52.819  32.041  52.760  0.00  0.00     0.028 A 
ATOM     24  C   UNL d   1      53.018  31.269  52.988  0.00  0.00     0.119 A 
ATOM     25  O   UNL d   1      52.817  30.567  52.609  0.00  0.00    -0.300 OA
ATOM     26  C   UNL d   1      53.461  31.125  53.654  0.00  0.00     0.119 A 
ATOM     27  C   UNL d   1      53.151  29.932  53.059  0.00  0.00     0.304 A 
ATOM     28  O   UNL d   1      53.547  30.297  53.705  0.00  0.00    -0.300 OA
ATOM     29  C   UNL d   1      53.729  31.747  54.129  0.00  0.00     0.026 A 
ATOM     30  C   UNL d   1      53.535  32.517  53.907  0.00  0.00     0.004 A 
ENDBRANCH  21  22
ENDBRANCH   1  21
TORSDOF 9
ENDMDL
