MODEL 1
REMARK VINA RESULT:      91.3      0.000      0.000
REMARK  5 active torsions:
REMARK  status: ('A' for Active; 'I' for Inactive)
REMARK       I    between atoms: C_8  and  N_1 
REMARK    1  A    between atoms: C_10  and  C_3 
REMARK    2  A    between atoms: C_4  and  S_14 
REMARK    3  A    between atoms: C_15  and  C_6 
REMARK    4  A    between atoms: C_16  and  C_8 
REMARK    5  A    between atoms: S_14  and  C_16 
ROOT
ATOM      1  N   UNL d   1     -50.180  27.391  35.551  0.00  0.00    -0.195 N 
ATOM      2  N   UNL d   1     -50.691  27.063  36.079  0.00  0.00    -0.162 NA
ATOM      3  C   UNL d   1     -50.394  27.189  36.844  0.00  0.00     0.109 A 
ATOM      4  C   UNL d   1     -49.551  27.729  35.977  0.00  0.00     0.088 A 
ATOM      5  C   UNL d   1     -49.701  27.594  36.762  0.00  0.00     0.041 A 
ATOM      6  C   UNL d   1     -50.177  27.442  34.743  0.00  0.00     0.275 C 
ATOM      7  O   UNL d   1     -49.557  27.825  34.338  0.00  0.00    -0.266 OA
ENDROOT
BRANCH   4   8
ATOM      8  C   UNL d   1     -48.899  28.123  35.696  0.00  0.00     0.018 A 
ATOM      9  C   UNL d   1     -48.762  28.904  35.916  0.00  0.00     0.004 A 
ATOM     10  C   UNL d   1     -48.090  29.302  35.622  0.00  0.00     0.030 A 
ATOM     11  C   UNL d   1     -47.569  28.919  35.118  0.00  0.00     0.140 A 
ATOM     12  C   UNL d   1     -47.710  28.137  34.900  0.00  0.00     0.030 A 
ATOM     13  F   UNL d   1     -46.895  29.302  34.817  0.00  0.00    -0.204 F 
ATOM     14  C   UNL d   1     -48.376  27.732  35.187  0.00  0.00     0.004 A 
ENDBRANCH   4   8
BRANCH   6  15
ATOM     15  C   UNL d   1     -50.802  27.107  34.302  0.00  0.00     0.128 C 
BRANCH  15  16
ATOM     16  S   UNL d   1     -50.643  26.675  33.610  0.00  0.00    -0.069 SA
BRANCH  16  17
ATOM     17  C   UNL d   1     -50.892  25.884  33.539  0.00  0.00     0.140 A 
ATOM     18  N   UNL d   1     -50.387  25.238  33.505  0.00  0.00    -0.232 NA
ATOM     19  C   UNL d   1     -50.855  24.563  33.436  0.00  0.00     0.088 A 
ATOM     20  C   UNL d   1     -50.653  23.760  33.379  0.00  0.00     0.020 A 
ATOM     21  C   UNL d   1     -51.640  24.790  33.427  0.00  0.00     0.049 A 
ATOM     22  C   UNL d   1     -51.246  23.188  33.314  0.00  0.00     0.002 A 
ATOM     23  C   UNL d   1     -52.045  23.430  33.306  0.00  0.00     0.001 A 
ATOM     24  C   UNL d   1     -52.233  24.229  33.363  0.00  0.00     0.008 A 
ATOM     25  S   UNL d   1     -51.670  25.617  33.491  0.00  0.00    -0.060 SA
ENDBRANCH  16  17
ENDBRANCH  15  16
ENDBRANCH   6  15
BRANCH   3  26
ATOM     26  C   UNL d   1     -50.761  26.934  37.539  0.00  0.00     0.049 A 
ATOM     27  S   UNL d   1     -50.573  26.945  38.331  0.00  0.00    -0.085 SA
ATOM     28  C   UNL d   1     -51.196  26.593  38.739  0.00  0.00     0.035 A 
ATOM     29  C   UNL d   1     -51.764  26.365  38.211  0.00  0.00     0.007 A 
ATOM     30  C   UNL d   1     -51.502  26.575  37.451  0.00  0.00     0.009 A 
ENDBRANCH   3  26
TORSDOF 5
ENDMDL
