MODEL 1
REMARK VINA RESULT:      24.9      0.000      0.000
REMARK  5 active torsions:
REMARK  status: ('A' for Active; 'I' for Inactive)
REMARK    1  A    between atoms: S_10  and  C_6 
REMARK    2  A    between atoms: C_15  and  S_10 
REMARK    3  A    between atoms: C_12  and  C_15 
REMARK       I    between atoms: N_16  and  C_12 
REMARK    4  A    between atoms: C_14  and  C_20 
REMARK    5  A    between atoms: C_20  and  N_16 
ROOT
ATOM      1  C   UNL d   1     -57.583 -98.768 -45.121  0.00  0.00     0.117 A 
ATOM      2  C   UNL d   1     -57.941 -98.774 -44.389  0.00  0.00     0.082 A 
ATOM      3  N   UNL d   1     -56.747 -98.762 -45.173  0.00  0.00    -0.214 NA
ATOM      4  C   UNL d   1     -57.495 -98.775 -43.703  0.00  0.00     0.283 A 
ATOM      5  N   UNL d   1     -56.659 -98.769 -43.755  0.00  0.00    -0.183 NA
ATOM      6  C   UNL d   1     -56.301 -98.762 -44.490  0.00  0.00     0.198 A 
ATOM      7  S   UNL d   1     -58.175 -98.769 -45.697  0.00  0.00    -0.068 SA
ATOM      8  C   UNL d   1     -58.751 -98.779 -44.515  0.00  0.00     0.013 A 
ATOM      9  C   UNL d   1     -58.913 -98.776 -45.330  0.00  0.00     0.031 A 
ATOM     10  O   UNL d   1     -57.874 -98.781 -42.946  0.00  0.00    -0.265 OA
ATOM     11  C   UNL d   1     -59.340 -98.786 -43.922  0.00  0.00     0.001 C 
ATOM     12  C   UNL d   1     -59.673 -98.779 -45.696  0.00  0.00     0.007 C 
ENDROOT
BRANCH   6  13
ATOM     13  S   UNL d   1     -55.469 -98.756 -44.542  0.00  0.00    -0.043 SA
BRANCH  13  14
ATOM     14  C   UNL d   1     -55.047 -99.414 -44.312  0.00  0.00     0.101 C 
BRANCH  14  15
ATOM     15  C   UNL d   1     -54.890-100.036 -44.879  0.00  0.00     0.286 C 
ATOM     16  O   UNL d   1     -54.870 -99.854 -45.687  0.00  0.00    -0.265 OA
ATOM     17  N   UNL d   1     -54.764-100.801 -44.620  0.00  0.00    -0.206 NA
BRANCH  17  18
ATOM     18  C   UNL d   1     -54.785-100.976 -43.819  0.00  0.00     0.102 C 
BRANCH  18  19
ATOM     19  C   UNL d   1     -55.130-101.669 -43.557  0.00  0.00     0.021 C 
ATOM     20  C   UNL d   1     -54.712-102.188 -43.071  0.00  0.00     0.002 C 
ENDBRANCH  18  19
ENDBRANCH  17  18
ENDBRANCH  14  15
ENDBRANCH  13  14
ENDBRANCH   6  13
TORSDOF 5
ENDMDL
