MODEL 1
REMARK VINA RESULT:      -8.7      0.000      0.000
REMARK  6 active torsions:
REMARK  status: ('A' for Active; 'I' for Inactive)
REMARK    1  A    between atoms: C_15  and  C_2 
REMARK    2  A    between atoms: C_19  and  C_3 
REMARK    3  A    between atoms: C_4  and  C_16 
REMARK       I    between atoms: N_7  and  C_4 
REMARK    4  A    between atoms: C_14  and  N_7 
REMARK    5  A    between atoms: C_8  and  C_9 
REMARK    6  A    between atoms: C_16  and  C_15 
ROOT
ATOM      1  C   UNL d   1      53.839  34.050  54.487  0.00  0.00     0.279 C 
ATOM      2  N   UNL d   1      54.290  33.394  54.697  0.00  0.00    -0.208 NA
ATOM      3  O   UNL d   1      54.030  34.797  54.787  0.00  0.00    -0.265 OA
ENDROOT
BRANCH   1   4
ATOM      4  C   UNL d   1      53.194  33.963  53.977  0.00  0.00     0.065 C 
BRANCH   4   5
ATOM      5  C   UNL d   1      52.781  34.633  53.713  0.00  0.00     0.030 C 
BRANCH   5   6
ATOM      6  C   UNL d   1      52.120  34.549  53.226  0.00  0.00     0.100 A 
ATOM      7  O   UNL d   1      51.342  34.495  53.482  0.00  0.00    -0.307 OA
ATOM      8  C   UNL d   1      50.866  34.418  52.816  0.00  0.00     0.100 A 
ATOM      9  C   UNL d   1      51.363  34.425  52.141  0.00  0.00     0.027 A 
ATOM     10  C   UNL d   1      52.135  34.506  52.406  0.00  0.00     0.027 A 
BRANCH   8  11
ATOM     11  C   UNL d   1      50.048  34.346  52.804  0.00  0.00     0.025 C 
ATOM     12  C   UNL d   1      49.626  34.451  52.104  0.00  0.00     0.002 C 
ENDBRANCH   8  11
ENDBRANCH   5   6
ENDBRANCH   4   5
ENDBRANCH   1   4
BRANCH   2  13
ATOM     13  C   UNL d   1      54.092  32.644  54.392  0.00  0.00     0.085 A 
ATOM     14  C   UNL d   1      54.385  32.414  53.657  0.00  0.00     0.019 A 
ATOM     15  C   UNL d   1      54.186  31.668  53.357  0.00  0.00     0.005 A 
ATOM     16  C   UNL d   1      53.699  31.159  53.788  0.00  0.00     0.039 A 
ATOM     17  C   UNL d   1      53.409  31.408  54.533  0.00  0.00     0.005 A 
ATOM     18  C   UNL d   1      53.607  32.146  54.829  0.00  0.00     0.019 A 
BRANCH  16  19
ATOM     19  C   UNL d   1      53.499  30.417  53.491  0.00  0.00     0.196 C 
ATOM     20  O   UNL d   1      53.830  29.735  53.820  0.00  0.00    -0.287 OA
ATOM     21  C   UNL d   1      52.965  30.354  52.863  0.00  0.00     0.045 C 
ENDBRANCH  16  19
ENDBRANCH   2  13
TORSDOF 6
ENDMDL
MODEL 2
REMARK VINA RESULT:      -8.5      1.277      2.605
REMARK  6 active torsions:
REMARK  status: ('A' for Active; 'I' for Inactive)
REMARK    1  A    between atoms: C_15  and  C_2 
REMARK    2  A    between atoms: C_19  and  C_3 
REMARK    3  A    between atoms: C_4  and  C_16 
REMARK       I    between atoms: N_7  and  C_4 
REMARK    4  A    between atoms: C_14  and  N_7 
REMARK    5  A    between atoms: C_8  and  C_9 
REMARK    6  A    between atoms: C_16  and  C_15 
ROOT
ATOM      1  C   UNL d   1      52.943  31.546  53.040  0.00  0.00     0.279 C 
ATOM      2  N   UNL d   1      53.629  31.416  53.475  0.00  0.00    -0.208 NA
ATOM      3  O   UNL d   1      52.605  30.929  52.604  0.00  0.00    -0.265 OA
ENDROOT
BRANCH   1   4
ATOM      4  C   UNL d   1      52.589  32.294  53.036  0.00  0.00     0.065 C 
BRANCH   4   5
ATOM      5  C   UNL d   1      51.889  32.420  52.609  0.00  0.00     0.030 C 
BRANCH   5   6
ATOM      6  C   UNL d   1      51.523  33.160  52.618  0.00  0.00     0.100 A 
ATOM      7  O   UNL d   1      50.906  33.381  53.113  0.00  0.00    -0.307 OA
ATOM      8  C   UNL d   1      50.714  34.161  52.935  0.00  0.00     0.100 A 
ATOM      9  C   UNL d   1      51.223  34.420  52.321  0.00  0.00     0.027 A 
ATOM     10  C   UNL d   1      51.718  33.793  52.133  0.00  0.00     0.027 A 
BRANCH   8  11
ATOM     11  C   UNL d   1      50.129  34.614  53.291  0.00  0.00     0.025 C 
ATOM     12  C   UNL d   1      49.498  34.909  52.850  0.00  0.00     0.002 C 
ENDBRANCH   8  11
ENDBRANCH   5   6
ENDBRANCH   4   5
ENDBRANCH   1   4
BRANCH   2  13
ATOM     13  C   UNL d   1      53.964  32.043  53.912  0.00  0.00     0.085 A 
ATOM     14  C   UNL d   1      53.727  32.168  54.690  0.00  0.00     0.019 A 
ATOM     15  C   UNL d   1      54.062  32.792  55.120  0.00  0.00     0.005 A 
ATOM     16  C   UNL d   1      54.627  33.284  54.774  0.00  0.00     0.039 A 
ATOM     17  C   UNL d   1      54.858  33.143  53.981  0.00  0.00     0.005 A 
ATOM     18  C   UNL d   1      54.526  32.526  53.557  0.00  0.00     0.019 A 
BRANCH  16  19
ATOM     19  C   UNL d   1      54.962  33.905  55.200  0.00  0.00     0.196 C 
ATOM     20  O   UNL d   1      55.782  34.006  55.213  0.00  0.00    -0.287 OA
ATOM     21  C   UNL d   1      54.476  34.429  55.615  0.00  0.00     0.045 C 
ENDBRANCH  16  19
ENDBRANCH   2  13
TORSDOF 6
ENDMDL
MODEL 3
REMARK VINA RESULT:      -8.4      0.992      4.037
REMARK  6 active torsions:
REMARK  status: ('A' for Active; 'I' for Inactive)
REMARK    1  A    between atoms: C_15  and  C_2 
REMARK    2  A    between atoms: C_19  and  C_3 
REMARK    3  A    between atoms: C_4  and  C_16 
REMARK       I    between atoms: N_7  and  C_4 
REMARK    4  A    between atoms: C_14  and  N_7 
REMARK    5  A    between atoms: C_8  and  C_9 
REMARK    6  A    between atoms: C_16  and  C_15 
ROOT
ATOM      1  C   UNL d   1      53.847  33.288  54.440  0.00  0.00     0.279 C 
ATOM      2  N   UNL d   1      53.443  34.005  54.395  0.00  0.00    -0.208 NA
ATOM      3  O   UNL d   1      54.497  33.209  54.947  0.00  0.00    -0.265 OA
ENDROOT
BRANCH   1   4
ATOM      4  C   UNL d   1      53.603  32.646  53.981  0.00  0.00     0.065 C 
BRANCH   4   5
ATOM      5  C   UNL d   1      54.080  31.969  53.928  0.00  0.00     0.030 C 
BRANCH   5   6
ATOM      6  C   UNL d   1      53.750  31.244  53.709  0.00  0.00     0.100 A 
ATOM      7  O   UNL d   1      53.545  30.638  54.225  0.00  0.00    -0.307 OA
ATOM      8  C   UNL d   1      53.239  30.022  53.774  0.00  0.00     0.100 A 
ATOM      9  C   UNL d   1      53.258  30.256  52.969  0.00  0.00     0.027 A 
ATOM     10  C   UNL d   1      53.576  31.013  52.942  0.00  0.00     0.027 A 
BRANCH   8  11
ATOM     11  C   UNL d   1      52.961  29.303  54.054  0.00  0.00     0.025 C 
ATOM     12  C   UNL d   1      53.345  28.914  54.671  0.00  0.00     0.002 C 
ENDBRANCH   8  11
ENDBRANCH   5   6
ENDBRANCH   4   5
ENDBRANCH   1   4
BRANCH   2  13
ATOM     13  C   UNL d   1      52.790  34.077  53.884  0.00  0.00     0.085 A 
ATOM     14  C   UNL d   1      52.054  33.794  54.122  0.00  0.00     0.019 A 
ATOM     15  C   UNL d   1      51.407  33.868  53.610  0.00  0.00     0.005 A 
ATOM     16  C   UNL d   1      51.496  34.221  52.869  0.00  0.00     0.039 A 
ATOM     17  C   UNL d   1      52.251  34.504  52.642  0.00  0.00     0.005 A 
ATOM     18  C   UNL d   1      52.890  34.430  53.149  0.00  0.00     0.019 A 
BRANCH  16  19
ATOM     19  C   UNL d   1      50.854  34.295  52.358  0.00  0.00     0.196 C 
ATOM     20  O   UNL d   1      50.958  34.212  51.543  0.00  0.00    -0.287 OA
ATOM     21  C   UNL d   1      50.102  34.454  52.663  0.00  0.00     0.045 C 
ENDBRANCH  16  19
ENDBRANCH   2  13
TORSDOF 6
ENDMDL
MODEL 4
REMARK VINA RESULT:      -7.9      1.775      4.087
REMARK  6 active torsions:
REMARK  status: ('A' for Active; 'I' for Inactive)
REMARK    1  A    between atoms: C_15  and  C_2 
REMARK    2  A    between atoms: C_19  and  C_3 
REMARK    3  A    between atoms: C_4  and  C_16 
REMARK       I    between atoms: N_7  and  C_4 
REMARK    4  A    between atoms: C_14  and  N_7 
REMARK    5  A    between atoms: C_8  and  C_9 
REMARK    6  A    between atoms: C_16  and  C_15 
ROOT
ATOM      1  C   UNL d   1      52.413  32.662  52.746  0.00  0.00     0.279 C 
ATOM      2  N   UNL d   1      52.671  33.413  52.965  0.00  0.00    -0.208 NA
ATOM      3  O   UNL d   1      51.840  32.577  52.155  0.00  0.00    -0.265 OA
ENDROOT
BRANCH   1   4
ATOM      4  C   UNL d   1      52.725  31.992  53.115  0.00  0.00     0.065 C 
BRANCH   4   5
ATOM      5  C   UNL d   1      52.459  31.237  52.899  0.00  0.00     0.030 C 
BRANCH   5   6
ATOM      6  C   UNL d   1      52.787  30.564  53.248  0.00  0.00     0.100 A 
ATOM      7  O   UNL d   1      52.694  30.339  54.033  0.00  0.00    -0.307 OA
ATOM      8  C   UNL d   1      53.113  29.639  54.141  0.00  0.00     0.100 A 
ATOM      9  C   UNL d   1      53.467  29.434  53.410  0.00  0.00     0.027 A 
ATOM     10  C   UNL d   1      53.259  30.012  52.866  0.00  0.00     0.027 A 
BRANCH   8  11
ATOM     11  C   UNL d   1      53.177  29.212  54.838  0.00  0.00     0.025 C 
ATOM     12  C   UNL d   1      53.561  28.482  54.852  0.00  0.00     0.002 C 
ENDBRANCH   8  11
ENDBRANCH   5   6
ENDBRANCH   4   5
ENDBRANCH   1   4
BRANCH   2  13
ATOM     13  C   UNL d   1      53.249  33.491  53.561  0.00  0.00     0.085 A 
ATOM     14  C   UNL d   1      54.042  33.375  53.375  0.00  0.00     0.019 A 
ATOM     15  C   UNL d   1      54.613  33.454  53.970  0.00  0.00     0.005 A 
ATOM     16  C   UNL d   1      54.391  33.646  54.742  0.00  0.00     0.039 A 
ATOM     17  C   UNL d   1      53.579  33.761  54.914  0.00  0.00     0.005 A 
ATOM     18  C   UNL d   1      53.016  33.683  54.325  0.00  0.00     0.019 A 
BRANCH  16  19
ATOM     19  C   UNL d   1      54.956  33.725  55.336  0.00  0.00     0.196 C 
ATOM     20  O   UNL d   1      55.635  34.177  55.206  0.00  0.00    -0.287 OA
ATOM     21  C   UNL d   1      54.844  33.351  56.064  0.00  0.00     0.045 C 
ENDBRANCH  16  19
ENDBRANCH   2  13
TORSDOF 6
ENDMDL
MODEL 5
REMARK VINA RESULT:      -7.3      1.993      3.245
REMARK  6 active torsions:
REMARK  status: ('A' for Active; 'I' for Inactive)
REMARK    1  A    between atoms: C_15  and  C_2 
REMARK    2  A    between atoms: C_19  and  C_3 
REMARK    3  A    between atoms: C_4  and  C_16 
REMARK       I    between atoms: N_7  and  C_4 
REMARK    4  A    between atoms: C_14  and  N_7 
REMARK    5  A    between atoms: C_8  and  C_9 
REMARK    6  A    between atoms: C_16  and  C_15 
ROOT
ATOM      1  C   UNL d   1      52.580  32.082  52.620  0.00  0.00     0.279 C 
ATOM      2  N   UNL d   1      52.506  31.286  52.424  0.00  0.00    -0.208 NA
ATOM      3  O   UNL d   1      52.366  32.666  52.074  0.00  0.00    -0.265 OA
ENDROOT
BRANCH   1   4
ATOM      4  C   UNL d   1      52.869  32.300  53.363  0.00  0.00     0.065 C 
BRANCH   4   5
ATOM      5  C   UNL d   1      52.885  33.100  53.583  0.00  0.00     0.030 C 
BRANCH   5   6
ATOM      6  C   UNL d   1      53.360  33.349  54.211  0.00  0.00     0.100 A 
ATOM      7  O   UNL d   1      54.174  33.253  54.261  0.00  0.00    -0.307 OA
ATOM      8  C   UNL d   1      54.419  33.580  54.975  0.00  0.00     0.100 A 
ATOM      9  C   UNL d   1      53.742  33.882  55.367  0.00  0.00     0.027 A 
ATOM     10  C   UNL d   1      53.094  33.733  54.886  0.00  0.00     0.027 A 
BRANCH   8  11
ATOM     11  C   UNL d   1      55.188  33.611  55.261  0.00  0.00     0.025 C 
ATOM     12  C   UNL d   1      55.771  34.031  54.858  0.00  0.00     0.002 C 
ENDBRANCH   8  11
ENDBRANCH   5   6
ENDBRANCH   4   5
ENDBRANCH   1   4
BRANCH   2  13
ATOM     13  C   UNL d   1      52.723  30.703  52.979  0.00  0.00     0.085 A 
ATOM     14  C   UNL d   1      53.511  30.471  53.036  0.00  0.00     0.019 A 
ATOM     15  C   UNL d   1      53.723  29.891  53.589  0.00  0.00     0.005 A 
ATOM     16  C   UNL d   1      53.153  29.550  54.079  0.00  0.00     0.039 A 
ATOM     17  C   UNL d   1      52.356  29.798  54.008  0.00  0.00     0.005 A 
ATOM     18  C   UNL d   1      52.147  30.371  53.461  0.00  0.00     0.019 A 
BRANCH  16  19
ATOM     19  C   UNL d   1      53.361  28.974  54.629  0.00  0.00     0.196 C 
ATOM     20  O   UNL d   1      53.480  28.193  54.389  0.00  0.00    -0.287 OA
ATOM     21  C   UNL d   1      53.452  29.179  55.425  0.00  0.00     0.045 C 
ENDBRANCH  16  19
ENDBRANCH   2  13
TORSDOF 6
ENDMDL
MODEL 6
REMARK VINA RESULT:      -7.0      1.455      4.213
REMARK  6 active torsions:
REMARK  status: ('A' for Active; 'I' for Inactive)
REMARK    1  A    between atoms: C_15  and  C_2 
REMARK    2  A    between atoms: C_19  and  C_3 
REMARK    3  A    between atoms: C_4  and  C_16 
REMARK       I    between atoms: N_7  and  C_4 
REMARK    4  A    between atoms: C_14  and  N_7 
REMARK    5  A    between atoms: C_8  and  C_9 
REMARK    6  A    between atoms: C_16  and  C_15 
ROOT
ATOM      1  C   UNL d   1      52.802  31.555  52.953  0.00  0.00     0.279 C 
ATOM      2  N   UNL d   1      52.124  31.759  52.534  0.00  0.00    -0.208 NA
ATOM      3  O   UNL d   1      53.172  30.827  52.817  0.00  0.00    -0.265 OA
ENDROOT
BRANCH   1   4
ATOM      4  C   UNL d   1      53.116  32.077  53.513  0.00  0.00     0.065 C 
BRANCH   4   5
ATOM      5  C   UNL d   1      53.778  31.855  53.962  0.00  0.00     0.030 C 
BRANCH   5   6
ATOM      6  C   UNL d   1      54.130  32.395  54.478  0.00  0.00     0.100 A 
ATOM      7  O   UNL d   1      54.682  32.966  54.268  0.00  0.00    -0.307 OA
ATOM      8  C   UNL d   1      54.884  33.378  54.950  0.00  0.00     0.100 A 
ATOM      9  C   UNL d   1      54.448  33.053  55.588  0.00  0.00     0.027 A 
ATOM     10  C   UNL d   1      53.986  32.446  55.284  0.00  0.00     0.027 A 
BRANCH   8  11
ATOM     11  C   UNL d   1      55.416  34.000  55.006  0.00  0.00     0.025 C 
ATOM     12  C   UNL d   1      55.159  34.761  55.190  0.00  0.00     0.002 C 
ENDBRANCH   8  11
ENDBRANCH   5   6
ENDBRANCH   4   5
ENDBRANCH   1   4
BRANCH   2  13
ATOM     13  C   UNL d   1      51.757  32.493  52.677  0.00  0.00     0.085 A 
ATOM     14  C   UNL d   1      52.019  33.163  52.276  0.00  0.00     0.019 A 
ATOM     15  C   UNL d   1      51.652  33.891  52.421  0.00  0.00     0.005 A 
ATOM     16  C   UNL d   1      51.030  33.948  52.961  0.00  0.00     0.039 A 
ATOM     17  C   UNL d   1      50.776  33.256  53.361  0.00  0.00     0.005 A 
ATOM     18  C   UNL d   1      51.140  32.537  53.217  0.00  0.00     0.019 A 
BRANCH  16  19
ATOM     19  C   UNL d   1      50.664  34.671  53.107  0.00  0.00     0.196 C 
ATOM     20  O   UNL d   1      51.053  35.253  53.545  0.00  0.00    -0.287 OA
ATOM     21  C   UNL d   1      49.904  34.813  52.815  0.00  0.00     0.045 C 
ENDBRANCH  16  19
ENDBRANCH   2  13
TORSDOF 6
ENDMDL
