MODEL 1
REMARK VINA RESULT:      -3.0      0.000      0.000
REMARK  4 active torsions:
REMARK  status: ('A' for Active; 'I' for Inactive)
REMARK       I    between atoms: C_2  and  N_1 
REMARK    1  A    between atoms: C_4  and  C_2 
REMARK    2  A    between atoms: S_8  and  C_3 
REMARK    3  A    between atoms: O_12  and  C_7 
REMARK    4  A    between atoms: C_15  and  O_12 
ROOT
ATOM      1  C   UNL d   1      60.022  -9.211  35.111  0.00  0.00     0.079 A 
ATOM      2  C   UNL d   1      59.965  -8.501  35.539  0.00  0.00     0.105 A 
ATOM      3  C   UNL d   1      60.600  -9.767  35.294  0.00  0.00     0.007 A 
ATOM      4  C   UNL d   1      60.501  -8.363  36.152  0.00  0.00     0.025 A 
ATOM      5  C   UNL d   1      61.129  -9.624  35.905  0.00  0.00     0.000 A 
ATOM      6  C   UNL d   1      61.079  -8.927  36.330  0.00  0.00     0.002 A 
ENDROOT
BRANCH   1   7
ATOM      7  C   UNL d   1      59.490  -9.359  34.494  0.00  0.00     0.268 C 
ATOM      8  N   UNL d   1      59.769  -9.475  33.728  0.00  0.00    -0.251 N 
ATOM      9  C   UNL d   1      59.309  -9.627  33.058  0.00  0.00     0.178 A 
ATOM     10  C   UNL d   1      60.566  -9.458  33.497  0.00  0.00     0.106 A 
ATOM     11  N   UNL d   1      59.817  -9.704  32.421  0.00  0.00    -0.219 NA
ATOM     12  C   UNL d   1      60.590  -9.601  32.682  0.00  0.00     0.120 A 
ATOM     13  O   UNL d   1      58.680  -9.390  34.651  0.00  0.00    -0.267 OA
BRANCH   9  14
ATOM     14  S   UNL d   1      58.491  -9.689  33.048  0.00  0.00    -0.076 SA
ATOM     15  C   UNL d   1      58.067  -9.531  32.354  0.00  0.00     0.077 C 
ENDBRANCH   9  14
ENDBRANCH   1   7
BRANCH   2  16
ATOM     16  O   UNL d   1      59.386  -7.948  35.353  0.00  0.00    -0.305 OA
BRANCH  16  17
ATOM     17  C   UNL d   1      59.273  -7.295  35.844  0.00  0.00     0.123 C 
ATOM     18  C   UNL d   1      58.863  -6.649  35.568  0.00  0.00     0.029 C 
ENDBRANCH  16  17
ENDBRANCH   2  16
TORSDOF 4
ENDMDL
MODEL 2
REMARK VINA RESULT:      -2.7      8.510      9.431
REMARK  4 active torsions:
REMARK  status: ('A' for Active; 'I' for Inactive)
REMARK       I    between atoms: C_2  and  N_1 
REMARK    1  A    between atoms: C_4  and  C_2 
REMARK    2  A    between atoms: S_8  and  C_3 
REMARK    3  A    between atoms: O_12  and  C_7 
REMARK    4  A    between atoms: C_15  and  O_12 
ROOT
ATOM      1  C   UNL d   1      59.641  -0.801  28.941  0.00  0.00     0.079 A 
ATOM      2  C   UNL d   1      59.263  -0.294  29.481  0.00  0.00     0.105 A 
ATOM      3  C   UNL d   1      60.327  -0.565  28.553  0.00  0.00     0.007 A 
ATOM      4  C   UNL d   1      59.589   0.452  29.620  0.00  0.00     0.025 A 
ATOM      5  C   UNL d   1      60.645   0.179  28.697  0.00  0.00     0.000 A 
ATOM      6  C   UNL d   1      60.278   0.681  29.226  0.00  0.00     0.002 A 
ENDROOT
BRANCH   1   7
ATOM      7  C   UNL d   1      59.323  -1.551  28.794  0.00  0.00     0.268 C 
ATOM      8  N   UNL d   1      59.753  -2.226  28.985  0.00  0.00    -0.251 N 
ATOM      9  C   UNL d   1      59.512  -3.008  28.872  0.00  0.00     0.178 A 
ATOM     10  C   UNL d   1      60.510  -2.236  29.327  0.00  0.00     0.106 A 
ATOM     11  N   UNL d   1      60.113  -3.495  29.141  0.00  0.00    -0.219 NA
ATOM     12  C   UNL d   1      60.728  -3.028  29.421  0.00  0.00     0.120 A 
ATOM     13  O   UNL d   1      58.574  -1.618  28.455  0.00  0.00    -0.267 OA
BRANCH   9  14
ATOM     14  S   UNL d   1      58.796  -3.242  28.548  0.00  0.00    -0.076 SA
ATOM     15  C   UNL d   1      58.618  -4.045  28.456  0.00  0.00     0.077 C 
ENDBRANCH   9  14
ENDBRANCH   1   7
BRANCH   2  16
ATOM     16  O   UNL d   1      58.578  -0.534  29.866  0.00  0.00    -0.305 OA
BRANCH  16  17
ATOM     17  C   UNL d   1      58.161   0.006  30.330  0.00  0.00     0.123 C 
ATOM     18  C   UNL d   1      57.594  -0.261  30.848  0.00  0.00     0.029 C 
ENDBRANCH  16  17
ENDBRANCH   2  16
TORSDOF 4
ENDMDL
MODEL 3
REMARK VINA RESULT:      -2.1      9.186     10.420
REMARK  4 active torsions:
REMARK  status: ('A' for Active; 'I' for Inactive)
REMARK       I    between atoms: C_2  and  N_1 
REMARK    1  A    between atoms: C_4  and  C_2 
REMARK    2  A    between atoms: S_8  and  C_3 
REMARK    3  A    between atoms: O_12  and  C_7 
REMARK    4  A    between atoms: C_15  and  O_12 
ROOT
ATOM      1  C   UNL d   1      59.477  -0.025  29.339  0.00  0.00     0.079 A 
ATOM      2  C   UNL d   1      59.655  -0.785  29.052  0.00  0.00     0.105 A 
ATOM      3  C   UNL d   1      59.978   0.610  29.185  0.00  0.00     0.007 A 
ATOM      4  C   UNL d   1      60.344  -0.891  28.609  0.00  0.00     0.025 A 
ATOM      5  C   UNL d   1      60.662   0.496  28.744  0.00  0.00     0.000 A 
ATOM      6  C   UNL d   1      60.842  -0.248  28.459  0.00  0.00     0.002 A 
ENDROOT
BRANCH   1   7
ATOM      7  C   UNL d   1      58.790   0.093  29.784  0.00  0.00     0.268 C 
ATOM      8  N   UNL d   1      58.843   0.325  30.571  0.00  0.00    -0.251 N 
ATOM      9  C   UNL d   1      58.209   0.463  31.084  0.00  0.00     0.178 A 
ATOM     10  C   UNL d   1      59.548   0.460  30.988  0.00  0.00     0.106 A 
ATOM     11  N   UNL d   1      58.520   0.682  31.809  0.00  0.00    -0.219 NA
ATOM     12  C   UNL d   1      59.341   0.682  31.758  0.00  0.00     0.120 A 
ATOM     13  O   UNL d   1      58.051  -0.024  29.433  0.00  0.00    -0.267 OA
BRANCH   9  14
ATOM     14  S   UNL d   1      57.416   0.392  30.889  0.00  0.00    -0.076 SA
ATOM     15  C   UNL d   1      56.832   0.472  31.470  0.00  0.00     0.077 C 
ENDBRANCH   9  14
ENDBRANCH   1   7
BRANCH   2  16
ATOM     16  O   UNL d   1      59.152  -1.416  29.208  0.00  0.00    -0.305 OA
BRANCH  16  17
ATOM     17  C   UNL d   1      59.359  -2.174  28.956  0.00  0.00     0.123 C 
ATOM     18  C   UNL d   1      58.863  -2.800  29.110  0.00  0.00     0.029 C 
ENDBRANCH  16  17
ENDBRANCH   2  16
TORSDOF 4
ENDMDL
MODEL 4
REMARK VINA RESULT:      -1.9      8.409      9.893
REMARK  4 active torsions:
REMARK  status: ('A' for Active; 'I' for Inactive)
REMARK       I    between atoms: C_2  and  N_1 
REMARK    1  A    between atoms: C_4  and  C_2 
REMARK    2  A    between atoms: S_8  and  C_3 
REMARK    3  A    between atoms: O_12  and  C_7 
REMARK    4  A    between atoms: C_15  and  O_12 
ROOT
ATOM      1  C   UNL d   1      57.869  -0.429  30.263  0.00  0.00     0.079 A 
ATOM      2  C   UNL d   1      58.310  -0.956  29.795  0.00  0.00     0.105 A 
ATOM      3  C   UNL d   1      57.890   0.380  30.117  0.00  0.00     0.007 A 
ATOM      4  C   UNL d   1      58.770  -0.652  29.181  0.00  0.00     0.025 A 
ATOM      5  C   UNL d   1      58.349   0.676  29.504  0.00  0.00     0.000 A 
ATOM      6  C   UNL d   1      58.785   0.163  29.041  0.00  0.00     0.002 A 
ENDROOT
BRANCH   1   7
ATOM      7  C   UNL d   1      57.404  -0.723  30.881  0.00  0.00     0.268 C 
ATOM      8  N   UNL d   1      57.319  -0.290  31.575  0.00  0.00    -0.251 N 
ATOM      9  C   UNL d   1      56.876  -0.509  32.238  0.00  0.00     0.178 A 
ATOM     10  C   UNL d   1      57.667   0.448  31.729  0.00  0.00     0.106 A 
ATOM     11  N   UNL d   1      56.950   0.087  32.794  0.00  0.00    -0.219 NA
ATOM     12  C   UNL d   1      57.434   0.678  32.489  0.00  0.00     0.120 A 
ATOM     13  O   UNL d   1      57.028  -1.453  30.798  0.00  0.00    -0.267 OA
BRANCH   9  14
ATOM     14  S   UNL d   1      56.445  -1.202  32.312  0.00  0.00    -0.076 SA
ATOM     15  C   UNL d   1      55.862  -1.274  32.896  0.00  0.00     0.077 C 
ENDBRANCH   9  14
ENDBRANCH   1   7
BRANCH   2  16
ATOM     16  O   UNL d   1      58.287  -1.764  29.944  0.00  0.00    -0.305 OA
BRANCH  16  17
ATOM     17  C   UNL d   1      58.772  -2.272  29.513  0.00  0.00     0.123 C 
ATOM     18  C   UNL d   1      58.686  -3.077  29.592  0.00  0.00     0.029 C 
ENDBRANCH  16  17
ENDBRANCH   2  16
TORSDOF 4
ENDMDL
MODEL 5
REMARK VINA RESULT:      -1.2      8.733      9.766
REMARK  4 active torsions:
REMARK  status: ('A' for Active; 'I' for Inactive)
REMARK       I    between atoms: C_2  and  N_1 
REMARK    1  A    between atoms: C_4  and  C_2 
REMARK    2  A    between atoms: S_8  and  C_3 
REMARK    3  A    between atoms: O_12  and  C_7 
REMARK    4  A    between atoms: C_15  and  O_12 
ROOT
ATOM      1  C   UNL d   1      59.641  -1.624  29.224  0.00  0.00     0.079 A 
ATOM      2  C   UNL d   1      59.519  -2.361  28.860  0.00  0.00     0.105 A 
ATOM      3  C   UNL d   1      60.379  -1.261  29.202  0.00  0.00     0.007 A 
ATOM      4  C   UNL d   1      60.154  -2.724  28.475  0.00  0.00     0.025 A 
ATOM      5  C   UNL d   1      61.006  -1.628  28.818  0.00  0.00     0.000 A 
ATOM      6  C   UNL d   1      60.893  -2.352  28.458  0.00  0.00     0.002 A 
ENDROOT
BRANCH   1   7
ATOM      7  C   UNL d   1      59.011  -1.252  29.612  0.00  0.00     0.268 C 
ATOM      8  N   UNL d   1      58.757  -0.509  29.366  0.00  0.00    -0.251 N 
ATOM      9  C   UNL d   1      58.139  -0.070  29.696  0.00  0.00     0.178 A 
ATOM     10  C   UNL d   1      59.080  -0.071  28.739  0.00  0.00     0.106 A 
ATOM     11  N   UNL d   1      58.082   0.631  29.278  0.00  0.00    -0.219 NA
ATOM     12  C   UNL d   1      58.656   0.638  28.689  0.00  0.00     0.120 A 
ATOM     13  O   UNL d   1      58.641  -1.630  30.245  0.00  0.00    -0.267 OA
BRANCH   9  14
ATOM     14  S   UNL d   1      57.674  -0.306  30.329  0.00  0.00    -0.076 SA
ATOM     15  C   UNL d   1      57.420   0.245  30.892  0.00  0.00     0.077 C 
ENDBRANCH   9  14
ENDBRANCH   1   7
BRANCH   2  16
ATOM     16  O   UNL d   1      58.780  -2.721  28.884  0.00  0.00    -0.305 OA
BRANCH  16  17
ATOM     17  C   UNL d   1      58.664  -3.440  28.497  0.00  0.00     0.123 C 
ATOM     18  C   UNL d   1      57.944  -3.814  28.548  0.00  0.00     0.029 C 
ENDBRANCH  16  17
ENDBRANCH   2  16
TORSDOF 4
ENDMDL
