MODEL 1
REMARK VINA RESULT:      -5.2      0.000      0.000
REMARK  5 active torsions:
REMARK  status: ('A' for Active; 'I' for Inactive)
REMARK    1  A    between atoms: N_4  and  C_1 
REMARK    2  A    between atoms: C_8  and  C_3 
REMARK       I    between atoms: C_7  and  N_4 
REMARK    3  A    between atoms: C_11  and  C_7 
REMARK    4  A    between atoms: C_12  and  C_11 
REMARK    5  A    between atoms: O_18  and  C_13 
ROOT
ATOM      1  N   UNL d   1      57.850  -0.147  29.882  0.00  0.00    -0.183 NA
ATOM      2  C   UNL d   1      58.631  -0.387  29.773  0.00  0.00     0.281 C 
ATOM      3  O   UNL d   1      59.146  -0.420  30.424  0.00  0.00    -0.265 OA
ENDROOT
BRANCH   1   4
ATOM      4  C   UNL d   1      57.584   0.059  30.639  0.00  0.00     0.197 A 
ATOM      5  N   UNL d   1      56.987  -0.308  31.054  0.00  0.00    -0.221 NA
ATOM      6  C   UNL d   1      56.904   0.072  31.780  0.00  0.00     0.090 A 
ATOM      7  C   UNL d   1      57.461   0.682  31.806  0.00  0.00     0.058 A 
ATOM      8  S   UNL d   1      57.882   0.666  31.087  0.00  0.00    -0.046 SA
BRANCH   6   9
ATOM      9  C   UNL d   1      56.374  -0.115  32.363  0.00  0.00     0.021 A 
ATOM     10  C   UNL d   1      56.234  -0.911  32.542  0.00  0.00     0.022 A 
ATOM     11  C   UNL d   1      55.691  -1.104  33.138  0.00  0.00     0.099 A 
ATOM     12  N   UNL d   1      55.298  -0.500  33.545  0.00  0.00    -0.242 NA
ATOM     13  C   UNL d   1      55.437   0.284  33.368  0.00  0.00     0.099 A 
ATOM     14  C   UNL d   1      55.980   0.485  32.770  0.00  0.00     0.022 A 
ENDBRANCH   6   9
ENDBRANCH   1   4
BRANCH   2  15
ATOM     15  C   UNL d   1      58.901  -0.593  29.022  0.00  0.00     0.063 C 
BRANCH  15  16
ATOM     16  C   UNL d   1      59.329  -1.288  28.921  0.00  0.00     0.005 A 
ATOM     17  C   UNL d   1      58.929  -2.007  28.777  0.00  0.00     0.002 A 
ATOM     18  C   UNL d   1      59.363  -2.697  28.677  0.00  0.00     0.024 A 
ATOM     19  C   UNL d   1      60.180  -2.690  28.717  0.00  0.00     0.094 A 
ATOM     20  C   UNL d   1      60.579  -1.970  28.861  0.00  0.00     0.024 A 
ATOM     21  C   UNL d   1      60.152  -1.276  28.962  0.00  0.00     0.002 A 
BRANCH  19  22
ATOM     22  O   UNL d   1      60.618  -3.381  28.617  0.00  0.00    -0.328 OA
ATOM     23  C   UNL d   1      60.928  -3.782  29.258  0.00  0.00     0.181 C 
ENDBRANCH  19  22
ENDBRANCH  15  16
ENDBRANCH   2  15
TORSDOF 5
ENDMDL
MODEL 2
REMARK VINA RESULT:      -4.6      1.609      5.130
REMARK  5 active torsions:
REMARK  status: ('A' for Active; 'I' for Inactive)
REMARK    1  A    between atoms: N_4  and  C_1 
REMARK    2  A    between atoms: C_8  and  C_3 
REMARK       I    between atoms: C_7  and  N_4 
REMARK    3  A    between atoms: C_11  and  C_7 
REMARK    4  A    between atoms: C_12  and  C_11 
REMARK    5  A    between atoms: O_18  and  C_13 
ROOT
ATOM      1  N   UNL d   1      58.064  -0.332  29.689  0.00  0.00    -0.183 NA
ATOM      2  C   UNL d   1      58.101   0.012  30.437  0.00  0.00     0.281 C 
ATOM      3  O   UNL d   1      58.798  -0.053  30.885  0.00  0.00    -0.265 OA
ENDROOT
BRANCH   1   4
ATOM      4  C   UNL d   1      58.720  -0.738  29.389  0.00  0.00     0.197 A 
ATOM      5  N   UNL d   1      58.828  -1.546  29.395  0.00  0.00    -0.221 NA
ATOM      6  C   UNL d   1      59.553  -1.713  29.043  0.00  0.00     0.090 A 
ATOM      7  C   UNL d   1      59.891  -0.995  28.818  0.00  0.00     0.058 A 
ATOM      8  S   UNL d   1      59.363  -0.390  29.038  0.00  0.00    -0.046 SA
BRANCH   6   9
ATOM      9  C   UNL d   1      59.876  -2.448  28.935  0.00  0.00     0.021 A 
ATOM     10  C   UNL d   1      60.645  -2.595  29.203  0.00  0.00     0.022 A 
ATOM     11  C   UNL d   1      60.977  -3.347  29.093  0.00  0.00     0.099 A 
ATOM     12  N   UNL d   1      60.536  -3.939  28.719  0.00  0.00    -0.242 NA
ATOM     13  C   UNL d   1      59.778  -3.792  28.455  0.00  0.00     0.099 A 
ATOM     14  C   UNL d   1      59.438  -3.040  28.562  0.00  0.00     0.022 A 
ENDBRANCH   6   9
ENDBRANCH   1   4
BRANCH   2  15
ATOM     15  C   UNL d   1      57.451   0.418  30.741  0.00  0.00     0.063 C 
BRANCH  15  16
ATOM     16  C   UNL d   1      57.150   0.209  31.476  0.00  0.00     0.005 A 
ATOM     17  C   UNL d   1      56.688  -0.482  31.558  0.00  0.00     0.002 A 
ATOM     18  C   UNL d   1      56.391  -0.683  32.297  0.00  0.00     0.024 A 
ATOM     19  C   UNL d   1      56.540  -0.218  32.952  0.00  0.00     0.094 A 
ATOM     20  C   UNL d   1      57.002   0.474  32.870  0.00  0.00     0.024 A 
ATOM     21  C   UNL d   1      57.303   0.682  32.135  0.00  0.00     0.002 A 
BRANCH  19  22
ATOM     22  O   UNL d   1      56.242  -0.418  33.694  0.00  0.00    -0.328 OA
ATOM     23  C   UNL d   1      55.544  -0.096  33.971  0.00  0.00     0.181 C 
ENDBRANCH  19  22
ENDBRANCH  15  16
ENDBRANCH   2  15
TORSDOF 5
ENDMDL
MODEL 3
REMARK VINA RESULT:      -3.8      1.823      5.534
REMARK  5 active torsions:
REMARK  status: ('A' for Active; 'I' for Inactive)
REMARK    1  A    between atoms: N_4  and  C_1 
REMARK    2  A    between atoms: C_8  and  C_3 
REMARK       I    between atoms: C_7  and  N_4 
REMARK    3  A    between atoms: C_11  and  C_7 
REMARK    4  A    between atoms: C_12  and  C_11 
REMARK    5  A    between atoms: O_18  and  C_13 
ROOT
ATOM      1  N   UNL d   1      57.275  -0.740  30.916  0.00  0.00    -0.183 NA
ATOM      2  C   UNL d   1      57.057  -0.458  31.660  0.00  0.00     0.281 C 
ATOM      3  O   UNL d   1      57.418   0.228  31.960  0.00  0.00    -0.265 OA
ENDROOT
BRANCH   1   4
ATOM      4  C   UNL d   1      57.850  -0.339  30.475  0.00  0.00     0.197 A 
ATOM      5  N   UNL d   1      58.524  -0.666  30.156  0.00  0.00    -0.221 NA
ATOM      6  C   UNL d   1      58.939  -0.074  29.763  0.00  0.00     0.090 A 
ATOM      7  C   UNL d   1      58.509   0.626  29.844  0.00  0.00     0.058 A 
ATOM      8  S   UNL d   1      57.829   0.450  30.291  0.00  0.00    -0.046 SA
BRANCH   6   9
ATOM      9  C   UNL d   1      59.641  -0.161  29.368  0.00  0.00     0.021 A 
ATOM     10  C   UNL d   1      60.169   0.476  29.336  0.00  0.00     0.022 A 
ATOM     11  C   UNL d   1      60.887   0.388  28.932  0.00  0.00     0.099 A 
ATOM     12  N   UNL d   1      61.067  -0.332  28.567  0.00  0.00    -0.242 NA
ATOM     13  C   UNL d   1      60.546  -0.959  28.599  0.00  0.00     0.099 A 
ATOM     14  C   UNL d   1      59.823  -0.879  29.003  0.00  0.00     0.022 A 
ENDBRANCH   6   9
ENDBRANCH   1   4
BRANCH   2  15
ATOM     15  C   UNL d   1      56.486  -0.852  32.103  0.00  0.00     0.063 C 
BRANCH  15  16
ATOM     16  C   UNL d   1      56.131  -0.470  32.738  0.00  0.00     0.005 A 
ATOM     17  C   UNL d   1      55.719   0.247  32.618  0.00  0.00     0.002 A 
ATOM     18  C   UNL d   1      55.367   0.622  33.258  0.00  0.00     0.024 A 
ATOM     19  C   UNL d   1      55.412   0.304  34.009  0.00  0.00     0.094 A 
ATOM     20  C   UNL d   1      55.823  -0.414  34.130  0.00  0.00     0.024 A 
ATOM     21  C   UNL d   1      56.179  -0.795  33.495  0.00  0.00     0.002 A 
BRANCH  19  22
ATOM     22  O   UNL d   1      55.059   0.679  34.653  0.00  0.00    -0.328 OA
ATOM     23  C   UNL d   1      55.396   0.650  35.397  0.00  0.00     0.181 C 
ENDBRANCH  19  22
ENDBRANCH  15  16
ENDBRANCH   2  15
TORSDOF 5
ENDMDL
MODEL 4
REMARK VINA RESULT:      -3.8      1.097      1.523
REMARK  5 active torsions:
REMARK  status: ('A' for Active; 'I' for Inactive)
REMARK    1  A    between atoms: N_4  and  C_1 
REMARK    2  A    between atoms: C_8  and  C_3 
REMARK       I    between atoms: C_7  and  N_4 
REMARK    3  A    between atoms: C_11  and  C_7 
REMARK    4  A    between atoms: C_12  and  C_11 
REMARK    5  A    between atoms: O_18  and  C_13 
ROOT
ATOM      1  N   UNL d   1      57.500   0.673  31.021  0.00  0.00    -0.183 NA
ATOM      2  C   UNL d   1      57.661  -0.035  30.630  0.00  0.00     0.281 C 
ATOM      3  O   UNL d   1      57.638  -0.751  31.052  0.00  0.00    -0.265 OA
ENDROOT
BRANCH   1   4
ATOM      4  C   UNL d   1      57.317   0.666  31.828  0.00  0.00     0.197 A 
ATOM      5  N   UNL d   1      56.569   0.642  32.150  0.00  0.00    -0.221 NA
ATOM      6  C   UNL d   1      56.639   0.643  32.971  0.00  0.00     0.090 A 
ATOM      7  C   UNL d   1      57.445   0.668  33.151  0.00  0.00     0.058 A 
ATOM      8  S   UNL d   1      57.861   0.682  32.429  0.00  0.00    -0.046 SA
BRANCH   6   9
ATOM      9  C   UNL d   1      56.031   0.623  33.505  0.00  0.00     0.021 A 
ATOM     10  C   UNL d   1      55.254   0.546  33.232  0.00  0.00     0.022 A 
ATOM     11  C   UNL d   1      54.631   0.525  33.778  0.00  0.00     0.099 A 
ATOM     12  N   UNL d   1      54.794   0.583  34.588  0.00  0.00    -0.242 NA
ATOM     13  C   UNL d   1      55.560   0.659  34.856  0.00  0.00     0.099 A 
ATOM     14  C   UNL d   1      56.191   0.680  34.314  0.00  0.00     0.022 A 
ENDBRANCH   6   9
ENDBRANCH   1   4
BRANCH   2  15
ATOM     15  C   UNL d   1      57.844  -0.035  29.827  0.00  0.00     0.063 C 
BRANCH  15  16
ATOM     16  C   UNL d   1      58.515  -0.428  29.564  0.00  0.00     0.005 A 
ATOM     17  C   UNL d   1      58.460  -1.219  29.298  0.00  0.00     0.002 A 
ATOM     18  C   UNL d   1      59.135  -1.605  29.036  0.00  0.00     0.024 A 
ATOM     19  C   UNL d   1      59.861  -1.228  29.031  0.00  0.00     0.094 A 
ATOM     20  C   UNL d   1      59.916  -0.437  29.296  0.00  0.00     0.024 A 
ATOM     21  C   UNL d   1      59.245  -0.044  29.560  0.00  0.00     0.002 A 
BRANCH  19  22
ATOM     22  O   UNL d   1      60.540  -1.613  28.768  0.00  0.00    -0.328 OA
ATOM     23  C   UNL d   1      60.898  -2.193  29.219  0.00  0.00     0.181 C 
ENDBRANCH  19  22
ENDBRANCH  15  16
ENDBRANCH   2  15
TORSDOF 5
ENDMDL
