MODEL 1
REMARK VINA RESULT:      -7.8      0.000      0.000
REMARK  1 active torsions:
REMARK  status: ('A' for Active; 'I' for Inactive)
REMARK       I    between atoms: N_2  and  C_1 
REMARK    1  A    between atoms: C_5  and  N_2 
ROOT
ATOM      1  C   UNL d   1      53.960  32.133  53.991  0.00  0.00     0.100 A 
ATOM      2  C   UNL d   1      54.730  33.354  54.790  0.00  0.00     0.000 A 
ATOM      3  C   UNL d   1      54.526  32.593  53.600  0.00  0.00     0.020 A 
ATOM      4  C   UNL d   1      53.780  32.284  54.781  0.00  0.00     0.020 A 
ATOM      5  C   UNL d   1      54.910  33.203  54.000  0.00  0.00     0.002 A 
ATOM      6  C   UNL d   1      54.165  32.894  55.181  0.00  0.00     0.002 A 
ATOM      7  C   UNL d   1      55.115  33.967  55.194  0.00  0.00     0.000 C 
ENDROOT
BRANCH   1   8
ATOM      8  N   UNL d   1      53.573  31.521  53.592  0.00  0.00    -0.056 NA
ATOM      9  C   UNL d   1      52.920  31.682  53.123  0.00  0.00     0.787 C 
ATOM     10  N   UNL d   1      52.525  31.071  52.720  0.00  0.00     0.064 N 
ATOM     11  N   UNL d   1      52.651  32.461  53.051  0.00  0.00     0.064 N 
ENDBRANCH   1   8
TORSDOF 1
ENDMDL
MODEL 2
REMARK VINA RESULT:      -7.1      1.441      2.823
REMARK  1 active torsions:
REMARK  status: ('A' for Active; 'I' for Inactive)
REMARK       I    between atoms: N_2  and  C_1 
REMARK    1  A    between atoms: C_5  and  N_2 
ROOT
ATOM      1  C   UNL d   1      54.085  32.485  53.746  0.00  0.00     0.100 A 
ATOM      2  C   UNL d   1      53.004  31.390  53.149  0.00  0.00     0.000 A 
ATOM      3  C   UNL d   1      54.213  31.675  53.855  0.00  0.00     0.020 A 
ATOM      4  C   UNL d   1      53.417  32.747  53.340  0.00  0.00     0.020 A 
ATOM      5  C   UNL d   1      53.672  31.128  53.556  0.00  0.00     0.002 A 
ATOM      6  C   UNL d   1      52.877  32.200  53.041  0.00  0.00     0.002 A 
ATOM      7  C   UNL d   1      52.461  30.842  52.848  0.00  0.00     0.000 C 
ENDROOT
BRANCH   1   8
ATOM      8  N   UNL d   1      54.625  33.035  54.045  0.00  0.00    -0.056 NA
ATOM      9  C   UNL d   1      54.618  33.229  54.843  0.00  0.00     0.787 C 
ATOM     10  N   UNL d   1      55.158  33.782  55.149  0.00  0.00     0.064 N 
ATOM     11  N   UNL d   1      54.069  32.869  55.345  0.00  0.00     0.064 N 
ENDBRANCH   1   8
TORSDOF 1
ENDMDL
MODEL 3
REMARK VINA RESULT:      -7.0      1.566      1.966
REMARK  1 active torsions:
REMARK  status: ('A' for Active; 'I' for Inactive)
REMARK       I    between atoms: N_2  and  C_1 
REMARK    1  A    between atoms: C_5  and  N_2 
ROOT
ATOM      1  C   UNL d   1      52.933  33.512  53.928  0.00  0.00     0.100 A 
ATOM      2  C   UNL d   1      54.370  33.545  54.739  0.00  0.00     0.000 A 
ATOM      3  C   UNL d   1      53.032  34.018  54.574  0.00  0.00     0.020 A 
ATOM      4  C   UNL d   1      53.552  33.023  53.687  0.00  0.00     0.020 A 
ATOM      5  C   UNL d   1      53.751  34.034  54.979  0.00  0.00     0.002 A 
ATOM      6  C   UNL d   1      54.270  33.039  54.092  0.00  0.00     0.002 A 
ATOM      7  C   UNL d   1      55.092  33.561  55.144  0.00  0.00     0.000 C 
ENDROOT
BRANCH   1   8
ATOM      8  N   UNL d   1      52.214  33.492  53.520  0.00  0.00    -0.056 NA
ATOM      9  C   UNL d   1      52.025  34.089  52.989  0.00  0.00     0.787 C 
ATOM     10  N   UNL d   1      51.303  34.077  52.576  0.00  0.00     0.064 N 
ATOM     11  N   UNL d   1      52.558  34.709  52.866  0.00  0.00     0.064 N 
ENDBRANCH   1   8
TORSDOF 1
ENDMDL
MODEL 4
REMARK VINA RESULT:      -6.9      2.311      3.085
REMARK  1 active torsions:
REMARK  status: ('A' for Active; 'I' for Inactive)
REMARK       I    between atoms: N_2  and  C_1 
REMARK    1  A    between atoms: C_5  and  N_2 
ROOT
ATOM      1  C   UNL d   1      52.986  33.907  54.133  0.00  0.00     0.100 A 
ATOM      2  C   UNL d   1      51.918  34.124  52.894  0.00  0.00     0.000 A 
ATOM      3  C   UNL d   1      52.458  33.303  53.930  0.00  0.00     0.020 A 
ATOM      4  C   UNL d   1      52.980  34.618  53.716  0.00  0.00     0.020 A 
ATOM      5  C   UNL d   1      51.924  33.413  53.311  0.00  0.00     0.002 A 
ATOM      6  C   UNL d   1      52.446  34.728  53.097  0.00  0.00     0.002 A 
ATOM      7  C   UNL d   1      51.382  34.236  52.272  0.00  0.00     0.000 C 
ENDROOT
BRANCH   1   8
ATOM      8  N   UNL d   1      53.523  33.800  54.753  0.00  0.00    -0.056 NA
ATOM      9  C   UNL d   1      54.221  33.387  54.627  0.00  0.00     0.787 C 
ATOM     10  N   UNL d   1      54.766  33.277  55.246  0.00  0.00     0.064 N 
ATOM     11  N   UNL d   1      54.384  33.079  53.877  0.00  0.00     0.064 N 
ENDBRANCH   1   8
TORSDOF 1
ENDMDL
