MODEL 1
REMARK VINA RESULT:      45.1      0.000      0.000
REMARK  5 active torsions:
REMARK  status: ('A' for Active; 'I' for Inactive)
REMARK    1  A    between atoms: N_2  and  S_1 
REMARK    2  A    between atoms: C_10  and  S_1 
REMARK    3  A    between atoms: S_6  and  C_3 
REMARK    4  A    between atoms: C_4  and  C_7 
REMARK    5  A    between atoms: C_7  and  S_6 
ROOT
ATOM      1  N   UNL d   1     -51.374  25.077  33.341  0.00  0.00    -0.208 N 
ATOM      2  C   UNL d   1     -50.628  25.446  33.326  0.00  0.00     0.189 A 
ATOM      3  N   UNL d   1     -50.043  24.855  33.333  0.00  0.00    -0.219 NA
ATOM      4  C   UNL d   1     -51.245  24.255  33.358  0.00  0.00     0.114 A 
ATOM      5  C   UNL d   1     -50.429  24.122  33.352  0.00  0.00     0.121 A 
ENDROOT
BRANCH   2   6
ATOM      6  S   UNL d   1     -50.498  26.266  33.307  0.00  0.00    -0.049 SA
BRANCH   6   7
ATOM      7  C   UNL d   1     -49.741  26.560  33.463  0.00  0.00     0.041 C 
BRANCH   7   8
ATOM      8  C   UNL d   1     -49.578  27.299  33.780  0.00  0.00     0.045 A 
ATOM      9  C   UNL d   1     -48.868  27.437  34.173  0.00  0.00     0.141 A 
ATOM     10  F   UNL d   1     -48.308  26.826  34.255  0.00  0.00    -0.204 F 
ATOM     11  C   UNL d   1     -48.704  28.185  34.493  0.00  0.00     0.030 A 
ATOM     12  C   UNL d   1     -49.264  28.795  34.411  0.00  0.00     0.003 A 
ATOM     13  C   UNL d   1     -49.974  28.657  34.017  0.00  0.00     0.012 A 
ATOM     14  C   UNL d   1     -50.134  27.907  33.699  0.00  0.00     0.060 A 
ATOM     15 CL   UNL d   1     -50.848  27.780  33.307  0.00  0.00    -0.082 Cl
ENDBRANCH   7   8
ENDBRANCH   6   7
ENDBRANCH   2   6
BRANCH   1  16
ATOM     16  S   UNL d   1     -52.110  25.454  33.341  0.00  0.00     0.273 S 
ATOM     17  O   UNL d   1     -51.695  26.168  33.308  0.00  0.00    -0.200 OA
ATOM     18  O   UNL d   1     -52.693  26.042  33.330  0.00  0.00    -0.200 OA
BRANCH  16  19
ATOM     19  C   UNL d   1     -52.540  24.754  33.374  0.00  0.00     0.104 A 
ATOM     20  C   UNL d   1     -53.354  24.785  33.469  0.00  0.00     0.013 A 
ATOM     21  C   UNL d   1     -53.782  24.082  33.501  0.00  0.00     0.001 A 
ATOM     22  C   UNL d   1     -53.402  23.356  33.439  0.00  0.00     0.000 A 
ATOM     23  C   UNL d   1     -52.579  23.334  33.343  0.00  0.00     0.001 A 
ATOM     24  C   UNL d   1     -52.151  24.037  33.311  0.00  0.00     0.013 A 
ENDBRANCH  16  19
ENDBRANCH   1  16
TORSDOF 5
ENDMDL
