MODEL 1
REMARK VINA RESULT:      -1.6      0.000      0.000
REMARK  3 active torsions:
REMARK  status: ('A' for Active; 'I' for Inactive)
REMARK    1  A    between atoms: N_2  and  S_1 
REMARK    2  A    between atoms: C_4  and  S_1 
REMARK       I    between atoms: C_8  and  N_10 
REMARK    3  A    between atoms: N_10  and  C_16 
ROOT
ATOM      1  S   UNL d   1     -41.782-122.405 -52.032  0.00  0.00     0.271 S 
ATOM      2  O   UNL d   1     -42.102-123.141 -52.214  0.00  0.00    -0.200 OA
ATOM      3  O   UNL d   1     -41.462-121.668 -51.846  0.00  0.00    -0.200 OA
ENDROOT
BRANCH   1   4
ATOM      4  N   UNL d   1     -41.777-122.210 -52.832  0.00  0.00    -0.229 N 
ATOM      5  C   UNL d   1     -42.416-122.432 -53.307  0.00  0.00     0.092 A 
ATOM      6  C   UNL d   1     -42.415-122.240 -54.106  0.00  0.00     0.018 A 
ATOM      7  C   UNL d   1     -43.053-122.462 -54.578  0.00  0.00     0.002 A 
ATOM      8  C   UNL d   1     -41.781-121.827 -54.434  0.00  0.00     0.003 A 
ATOM      9  C   UNL d   1     -43.050-122.269 -55.376  0.00  0.00     0.000 A 
ATOM     10  C   UNL d   1     -42.418-121.857 -55.708  0.00  0.00     0.000 A 
ATOM     11  C   UNL d   1     -41.782-121.636 -55.230  0.00  0.00     0.000 A 
ATOM     12  C   UNL d   1     -41.147-121.608 -53.955  0.00  0.00     0.020 A 
ATOM     13  C   UNL d   1     -41.146-121.801 -53.149  0.00  0.00     0.092 A 
ENDBRANCH   1   4
BRANCH   1  14
ATOM     14  C   UNL d   1     -41.790-122.607 -51.230  0.00  0.00     0.104 A 
ATOM     15  C   UNL d   1     -41.159-122.380 -50.746  0.00  0.00     0.014 A 
ATOM     16  C   UNL d   1     -41.171-122.585 -49.946  0.00  0.00     0.020 A 
ATOM     17  C   UNL d   1     -41.806-123.010 -49.634  0.00  0.00     0.085 A 
ATOM     18  C   UNL d   1     -42.431-123.230 -50.130  0.00  0.00     0.020 A 
ATOM     19  C   UNL d   1     -42.421-123.028 -50.924  0.00  0.00     0.014 A 
BRANCH  17  20
ATOM     20  N   UNL d   1     -41.810-123.208 -48.839  0.00  0.00    -0.208 NA
ATOM     21  C   UNL d   1     -42.510-123.200 -48.409  0.00  0.00     0.279 C 
ATOM     22  O   UNL d   1     -43.218-122.991 -48.777  0.00  0.00    -0.265 OA
ATOM     23  C   UNL d   1     -42.513-123.400 -47.608  0.00  0.00     0.068 C 
ENDBRANCH  17  20
ENDBRANCH   1  14
TORSDOF 3
ENDMDL
MODEL 2
REMARK VINA RESULT:       0.4      1.190      4.932
REMARK  3 active torsions:
REMARK  status: ('A' for Active; 'I' for Inactive)
REMARK    1  A    between atoms: N_2  and  S_1 
REMARK    2  A    between atoms: C_4  and  S_1 
REMARK       I    between atoms: C_8  and  N_10 
REMARK    3  A    between atoms: N_10  and  C_16 
ROOT
ATOM      1  S   UNL d   1     -41.693-122.817 -51.935  0.00  0.00     0.271 S 
ATOM      2  O   UNL d   1     -41.800-122.014 -51.787  0.00  0.00    -0.200 OA
ATOM      3  O   UNL d   1     -41.587-123.621 -52.087  0.00  0.00    -0.200 OA
ENDROOT
BRANCH   1   4
ATOM      4  N   UNL d   1     -41.620-122.956 -51.127  0.00  0.00    -0.229 N 
ATOM      5  C   UNL d   1     -41.804-122.351 -50.593  0.00  0.00     0.092 A 
ATOM      6  C   UNL d   1     -41.732-122.485 -49.786  0.00  0.00     0.018 A 
ATOM      7  C   UNL d   1     -41.915-121.882 -49.256  0.00  0.00     0.002 A 
ATOM      8  C   UNL d   1     -41.478-123.219 -49.507  0.00  0.00     0.003 A 
ATOM      9  C   UNL d   1     -41.843-122.018 -48.450  0.00  0.00     0.000 A 
ATOM     10  C   UNL d   1     -41.590-122.749 -48.166  0.00  0.00     0.000 A 
ATOM     11  C   UNL d   1     -41.407-123.351 -48.702  0.00  0.00     0.000 A 
ATOM     12  C   UNL d   1     -41.297-123.817 -50.044  0.00  0.00     0.020 A 
ATOM     13  C   UNL d   1     -41.368-123.684 -50.858  0.00  0.00     0.092 A 
ENDBRANCH   1   4
BRANCH   1  14
ATOM     14  C   UNL d   1     -41.768-122.670 -52.746  0.00  0.00     0.104 A 
ATOM     15  C   UNL d   1     -42.487-122.827 -53.124  0.00  0.00     0.014 A 
ATOM     16  C   UNL d   1     -42.556-122.679 -53.933  0.00  0.00     0.020 A 
ATOM     17  C   UNL d   1     -41.917-122.378 -54.359  0.00  0.00     0.085 A 
ATOM     18  C   UNL d   1     -41.204-122.224 -53.968  0.00  0.00     0.020 A 
ATOM     19  C   UNL d   1     -41.133-122.371 -53.164  0.00  0.00     0.014 A 
BRANCH  17  20
ATOM     20  N   UNL d   1     -41.996-122.234 -55.162  0.00  0.00    -0.208 NA
ATOM     21  C   UNL d   1     -42.721-122.013 -55.478  0.00  0.00     0.279 C 
ATOM     22  O   UNL d   1     -43.379-121.934 -54.986  0.00  0.00    -0.265 OA
ATOM     23  C   UNL d   1     -42.800-121.868 -56.287  0.00  0.00     0.068 C 
ENDBRANCH  17  20
ENDBRANCH   1  14
TORSDOF 3
ENDMDL
