MODEL 1
REMARK VINA RESULT:      -4.7      0.000      0.000
REMARK  4 active torsions:
REMARK  status: ('A' for Active; 'I' for Inactive)
REMARK    1  A    between atoms: N_2  and  C_1 
REMARK    2  A    between atoms: N_11  and  C_6 
REMARK    3  A    between atoms: C_13  and  N_11 
REMARK    4  A    between atoms: O_20  and  C_14 
ROOT
ATOM      1  C   UNL d   1      58.483  -1.098  29.517  0.00  0.00     0.752 A 
ATOM      2  N   UNL d   1      58.415  -0.849  30.302  0.00  0.00    -0.040 NA
ATOM      3  C   UNL d   1      58.133  -0.096  30.474  0.00  0.00     0.182 A 
ATOM      4  N   UNL d   1      58.266  -0.586  28.906  0.00  0.00    -0.059 NA
ATOM      5  C   UNL d   1      57.917   0.416  29.862  0.00  0.00     0.059 A 
ATOM      6  C   UNL d   1      57.983   0.170  29.075  0.00  0.00     0.103 A 
ATOM      7  C   UNL d   1      57.767   0.682  28.463  0.00  0.00     0.021 C 
ENDROOT
BRANCH   3   8
ATOM      8  N   UNL d   1      58.065   0.152  31.254  0.00  0.00    -0.226 NA
BRANCH   8   9
ATOM      9  C   UNL d   1      57.365   0.022  31.679  0.00  0.00     0.083 A 
ATOM     10  C   UNL d   1      56.916   0.675  31.923  0.00  0.00     0.021 A 
ATOM     11  C   UNL d   1      56.215   0.541  32.348  0.00  0.00     0.026 A 
ATOM     12  C   UNL d   1      55.973  -0.225  32.524  0.00  0.00     0.094 A 
ATOM     13  C   UNL d   1      56.429  -0.868  32.275  0.00  0.00     0.026 A 
ATOM     14  C   UNL d   1      57.127  -0.746  31.852  0.00  0.00     0.021 A 
BRANCH  12  15
ATOM     15  O   UNL d   1      55.282  -0.349  32.943  0.00  0.00    -0.328 OA
ATOM     16  C   UNL d   1      55.073   0.158  33.552  0.00  0.00     0.181 C 
ENDBRANCH  12  15
ENDBRANCH   8   9
ENDBRANCH   3   8
BRANCH   1  17
ATOM     17  N   UNL d   1      58.736  -1.775  29.352  0.00  0.00    -0.058 N 
ATOM     18  N   UNL d   1      58.518  -3.045  29.182  0.00  0.00    -0.151 NA
ATOM     19  C   UNL d   1      59.253  -3.145  29.018  0.00  0.00     0.103 A 
ATOM     20  C   UNL d   1      59.509  -3.826  28.851  0.00  0.00     0.022 C 
ATOM     21  C   UNL d   1      59.716  -2.556  29.024  0.00  0.00     0.041 A 
ATOM     22  C   UNL d   1      59.464  -1.874  29.190  0.00  0.00     0.102 A 
ATOM     23  C   UNL d   1      59.931  -1.281  29.197  0.00  0.00     0.021 C 
ENDBRANCH   1  17
TORSDOF 4
ENDMDL
MODEL 2
REMARK VINA RESULT:      -3.6      1.793      4.518
REMARK  4 active torsions:
REMARK  status: ('A' for Active; 'I' for Inactive)
REMARK    1  A    between atoms: N_2  and  C_1 
REMARK    2  A    between atoms: N_11  and  C_6 
REMARK    3  A    between atoms: C_13  and  N_11 
REMARK    4  A    between atoms: O_20  and  C_14 
ROOT
ATOM      1  C   UNL d   1      57.551  -0.380  31.446  0.00  0.00     0.752 A 
ATOM      2  N   UNL d   1      57.528  -0.688  30.680  0.00  0.00    -0.040 NA
ATOM      3  C   UNL d   1      58.144  -0.541  30.157  0.00  0.00     0.182 A 
ATOM      4  N   UNL d   1      58.198   0.076  31.684  0.00  0.00    -0.059 NA
ATOM      5  C   UNL d   1      58.791  -0.084  30.394  0.00  0.00     0.059 A 
ATOM      6  C   UNL d   1      58.818   0.226  31.161  0.00  0.00     0.103 A 
ATOM      7  C   UNL d   1      59.465   0.682  31.398  0.00  0.00     0.021 C 
ENDROOT
BRANCH   3   8
ATOM      8  N   UNL d   1      58.121  -0.847  29.394  0.00  0.00    -0.226 NA
BRANCH   8   9
ATOM      9  C   UNL d   1      58.614  -1.477  29.177  0.00  0.00     0.083 A 
ATOM     10  C   UNL d   1      58.459  -2.232  29.484  0.00  0.00     0.021 A 
ATOM     11  C   UNL d   1      58.955  -2.861  29.265  0.00  0.00     0.026 A 
ATOM     12  C   UNL d   1      59.587  -2.737  28.754  0.00  0.00     0.094 A 
ATOM     13  C   UNL d   1      59.731  -1.980  28.455  0.00  0.00     0.026 A 
ATOM     14  C   UNL d   1      59.245  -1.348  28.666  0.00  0.00     0.021 A 
BRANCH  12  15
ATOM     15  O   UNL d   1      60.071  -3.361  28.543  0.00  0.00    -0.328 OA
ATOM     16  C   UNL d   1      60.611  -3.663  29.081  0.00  0.00     0.181 C 
ENDBRANCH  12  15
ENDBRANCH   8   9
ENDBRANCH   3   8
BRANCH   1  17
ATOM     17  N   UNL d   1      57.000  -0.507  31.926  0.00  0.00    -0.058 N 
ATOM     18  N   UNL d   1      56.405  -1.296  32.771  0.00  0.00    -0.151 NA
ATOM     19  C   UNL d   1      55.881  -0.760  32.895  0.00  0.00     0.103 A 
ATOM     20  C   UNL d   1      55.325  -0.886  33.378  0.00  0.00     0.022 C 
ATOM     21  C   UNL d   1      55.928  -0.106  32.531  0.00  0.00     0.041 A 
ATOM     22  C   UNL d   1      56.481   0.024  32.049  0.00  0.00     0.102 A 
ATOM     23  C   UNL d   1      56.527   0.682  31.683  0.00  0.00     0.021 C 
ENDBRANCH   1  17
TORSDOF 4
ENDMDL
MODEL 3
REMARK VINA RESULT:      -3.3      1.139      1.531
REMARK  4 active torsions:
REMARK  status: ('A' for Active; 'I' for Inactive)
REMARK    1  A    between atoms: N_2  and  C_1 
REMARK    2  A    between atoms: N_11  and  C_6 
REMARK    3  A    between atoms: C_13  and  N_11 
REMARK    4  A    between atoms: O_20  and  C_14 
ROOT
ATOM      1  C   UNL d   1      59.596  -1.352  29.362  0.00  0.00     0.752 A 
ATOM      2  N   UNL d   1      58.820  -1.201  29.603  0.00  0.00    -0.040 NA
ATOM      3  C   UNL d   1      58.532  -0.432  29.615  0.00  0.00     0.182 A 
ATOM      4  N   UNL d   1      60.081  -0.723  29.132  0.00  0.00    -0.059 NA
ATOM      5  C   UNL d   1      59.018   0.196  29.385  0.00  0.00     0.059 A 
ATOM      6  C   UNL d   1      59.795   0.051  29.143  0.00  0.00     0.103 A 
ATOM      7  C   UNL d   1      60.280   0.679  28.913  0.00  0.00     0.021 C 
ENDROOT
BRANCH   3   8
ATOM      8  N   UNL d   1      57.760  -0.283  29.855  0.00  0.00    -0.226 NA
BRANCH   8   9
ATOM      9  C   UNL d   1      57.585  -0.149  30.654  0.00  0.00     0.083 A 
ATOM     10  C   UNL d   1      57.182  -0.735  31.079  0.00  0.00     0.021 A 
ATOM     11  C   UNL d   1      57.008  -0.598  31.880  0.00  0.00     0.026 A 
ATOM     12  C   UNL d   1      57.232   0.105  32.242  0.00  0.00     0.094 A 
ATOM     13  C   UNL d   1      57.634   0.682  31.807  0.00  0.00     0.026 A 
ATOM     14  C   UNL d   1      57.812   0.556  31.011  0.00  0.00     0.021 A 
BRANCH  12  15
ATOM     15  O   UNL d   1      57.058   0.234  33.030  0.00  0.00    -0.328 OA
ATOM     16  C   UNL d   1      56.488  -0.222  33.406  0.00  0.00     0.181 C 
ENDBRANCH  12  15
ENDBRANCH   8   9
ENDBRANCH   3   8
BRANCH   1  17
ATOM     17  N   UNL d   1      59.865  -2.042  29.348  0.00  0.00    -0.058 N 
ATOM     18  N   UNL d   1      60.720  -2.924  29.774  0.00  0.00    -0.151 NA
ATOM     19  C   UNL d   1      60.406  -3.443  29.316  0.00  0.00     0.103 A 
ATOM     20  C   UNL d   1      60.676  -4.139  29.301  0.00  0.00     0.022 C 
ATOM     21  C   UNL d   1      59.826  -3.250  28.883  0.00  0.00     0.041 A 
ATOM     22  C   UNL d   1      59.554  -2.556  28.895  0.00  0.00     0.102 A 
ATOM     23  C   UNL d   1      58.970  -2.363  28.458  0.00  0.00     0.021 C 
ENDBRANCH   1  17
TORSDOF 4
ENDMDL
MODEL 4
REMARK VINA RESULT:      -2.3      1.913      4.660
REMARK  4 active torsions:
REMARK  status: ('A' for Active; 'I' for Inactive)
REMARK    1  A    between atoms: N_2  and  C_1 
REMARK    2  A    between atoms: N_11  and  C_6 
REMARK    3  A    between atoms: C_13  and  N_11 
REMARK    4  A    between atoms: O_20  and  C_14 
ROOT
ATOM      1  C   UNL d   1      56.995   0.268  32.172  0.00  0.00     0.752 A 
ATOM      2  N   UNL d   1      56.975   0.221  31.347  0.00  0.00    -0.040 NA
ATOM      3  C   UNL d   1      57.662   0.326  30.910  0.00  0.00     0.182 A 
ATOM      4  N   UNL d   1      57.712   0.422  32.554  0.00  0.00    -0.059 NA
ATOM      5  C   UNL d   1      58.378   0.480  31.292  0.00  0.00     0.059 A 
ATOM      6  C   UNL d   1      58.404   0.528  32.117  0.00  0.00     0.103 A 
ATOM      7  C   UNL d   1      59.120   0.682  32.500  0.00  0.00     0.021 C 
ENDROOT
BRANCH   3   8
ATOM      8  N   UNL d   1      57.642   0.279  30.089  0.00  0.00    -0.226 NA
BRANCH   8   9
ATOM      9  C   UNL d   1      58.195  -0.183  29.679  0.00  0.00     0.083 A 
ATOM     10  C   UNL d   1      58.797   0.197  29.253  0.00  0.00     0.021 A 
ATOM     11  C   UNL d   1      59.350  -0.268  28.844  0.00  0.00     0.026 A 
ATOM     12  C   UNL d   1      59.300  -1.089  28.861  0.00  0.00     0.094 A 
ATOM     13  C   UNL d   1      58.695  -1.455  29.288  0.00  0.00     0.026 A 
ATOM     14  C   UNL d   1      58.141  -1.003  29.699  0.00  0.00     0.021 A 
BRANCH  12  15
ATOM     15  O   UNL d   1      59.847  -1.540  28.455  0.00  0.00    -0.328 OA
ATOM     16  C   UNL d   1      60.548  -1.762  28.818  0.00  0.00     0.181 C 
ENDBRANCH  12  15
ENDBRANCH   8   9
ENDBRANCH   3   8
BRANCH   1  17
ATOM     17  N   UNL d   1      56.381   0.175  32.576  0.00  0.00    -0.058 N 
ATOM     18  N   UNL d   1      55.380   0.682  33.232  0.00  0.00    -0.151 NA
ATOM     19  C   UNL d   1      55.136  -0.020  33.393  0.00  0.00     0.103 A 
ATOM     20  C   UNL d   1      54.517  -0.115  33.799  0.00  0.00     0.022 C 
ATOM     21  C   UNL d   1      55.521  -0.611  33.141  0.00  0.00     0.041 A 
ATOM     22  C   UNL d   1      56.139  -0.519  32.735  0.00  0.00     0.102 A 
ATOM     23  C   UNL d   1      56.526  -1.116  32.482  0.00  0.00     0.021 C 
ENDBRANCH   1  17
TORSDOF 4
ENDMDL
