MODEL 1
REMARK VINA RESULT:      -5.1      0.000      0.000
REMARK  5 active torsions:
REMARK  status: ('A' for Active; 'I' for Inactive)
REMARK    1  A    between atoms: C_8  and  S_1 
REMARK    2  A    between atoms: N_10  and  S_1 
REMARK    3  A    between atoms: C_6  and  C_17 
REMARK    4  A    between atoms: C_18  and  N_10 
REMARK    5  A    between atoms: O_24  and  C_19 
ROOT
ATOM      1  C   UNL d   1     -41.467-122.057 -52.752  0.00  0.00     0.021 A 
ATOM      2  C   UNL d   1     -41.280-122.623 -51.446  0.00  0.00     0.094 A 
ATOM      3  C   UNL d   1     -41.417-122.720 -52.253  0.00  0.00     0.021 A 
ATOM      4  C   UNL d   1     -41.379-121.305 -52.434  0.00  0.00     0.002 A 
ATOM      5  C   UNL d   1     -41.243-121.199 -51.635  0.00  0.00     0.002 A 
ATOM      6  C   UNL d   1     -41.192-121.862 -51.136  0.00  0.00     0.020 A 
ENDROOT
BRANCH   2   7
ATOM      7  N   UNL d   1     -41.230-123.277 -50.953  0.00  0.00    -0.158 NA
BRANCH   7   8
ATOM      8  S   UNL d   1     -41.675-123.304 -50.264  0.00  0.00     0.285 S 
ATOM      9  O   UNL d   1     -41.128-122.793 -49.910  0.00  0.00    -0.198 OA
ATOM     10  O   UNL d   1     -42.227-123.815 -50.613  0.00  0.00    -0.198 OA
BRANCH   8  11
ATOM     11  C   UNL d   1     -42.121-123.324 -49.559  0.00  0.00     0.108 A 
ATOM     12  C   UNL d   1     -42.820-122.917 -49.514  0.00  0.00     0.045 A 
ATOM     13  C   UNL d   1     -43.271-122.926 -48.826  0.00  0.00     0.163 A 
ATOM     14  F   UNL d   1     -43.974-122.516 -48.782  0.00  0.00    -0.202 F 
ATOM     15  C   UNL d   1     -42.998-123.363 -48.175  0.00  0.00     0.121 A 
ATOM     16  C   UNL d   1     -42.288-123.777 -48.220  0.00  0.00     0.027 A 
ATOM     17  C   UNL d   1     -41.833-123.765 -48.919  0.00  0.00     0.015 A 
BRANCH  15  18
ATOM     18  O   UNL d   1     -43.431-123.381 -47.493  0.00  0.00    -0.326 OA
ATOM     19  C   UNL d   1     -43.070-123.283 -46.773  0.00  0.00     0.181 C 
ENDBRANCH  15  18
ENDBRANCH   8  11
ENDBRANCH   7   8
ENDBRANCH   2   7
BRANCH   1  20
ATOM     20  C   UNL d   1     -41.605-122.168 -53.558  0.00  0.00     0.102 A 
ATOM     21  N   UNL d   1     -42.243-121.767 -53.910  0.00  0.00    -0.162 NA
ATOM     22  N   UNL d   1     -42.388-121.874 -54.725  0.00  0.00    -0.189 N 
ATOM     23  C   UNL d   1     -42.960-121.562 -55.216  0.00  0.00     0.224 A 
ATOM     24  C   UNL d   1     -41.902-122.374 -55.179  0.00  0.00     0.187 A 
ATOM     25  N   UNL d   1     -42.841-121.856 -55.964  0.00  0.00    -0.124 NA
ATOM     26  N   UNL d   1     -42.189-122.354 -55.932  0.00  0.00    -0.127 NA
ATOM     27  C   UNL d   1     -41.266-122.767 -54.803  0.00  0.00     0.042 A 
ATOM     28  C   UNL d   1     -41.123-122.660 -53.993  0.00  0.00     0.024 A 
ENDBRANCH   1  20
TORSDOF 5
ENDMDL
MODEL 2
REMARK VINA RESULT:      -4.7      2.351      5.586
REMARK  5 active torsions:
REMARK  status: ('A' for Active; 'I' for Inactive)
REMARK    1  A    between atoms: C_8  and  S_1 
REMARK    2  A    between atoms: N_10  and  S_1 
REMARK    3  A    between atoms: C_6  and  C_17 
REMARK    4  A    between atoms: C_18  and  N_10 
REMARK    5  A    between atoms: O_24  and  C_19 
ROOT
ATOM      1  C   UNL d   1     -41.806-122.609 -50.244  0.00  0.00     0.021 A 
ATOM      2  C   UNL d   1     -41.337-122.766 -51.592  0.00  0.00     0.094 A 
ATOM      3  C   UNL d   1     -41.672-123.087 -50.910  0.00  0.00     0.021 A 
ATOM      4  C   UNL d   1     -41.602-121.813 -50.271  0.00  0.00     0.002 A 
ATOM      5  C   UNL d   1     -41.269-121.486 -50.942  0.00  0.00     0.002 A 
ATOM      6  C   UNL d   1     -41.135-121.964 -51.608  0.00  0.00     0.020 A 
ENDROOT
BRANCH   2   7
ATOM      7  N   UNL d   1     -41.204-123.239 -52.249  0.00  0.00    -0.158 NA
BRANCH   7   8
ATOM      8  S   UNL d   1     -41.468-122.994 -52.987  0.00  0.00     0.285 S 
ATOM      9  O   UNL d   1     -41.123-122.254 -52.848  0.00  0.00    -0.198 OA
ATOM     10  O   UNL d   1     -41.816-123.733 -53.132  0.00  0.00    -0.198 OA
BRANCH   8  11
ATOM     11  C   UNL d   1     -41.733-122.737 -53.735  0.00  0.00     0.108 A 
ATOM     12  C   UNL d   1     -42.238-122.104 -53.787  0.00  0.00     0.045 A 
ATOM     13  C   UNL d   1     -42.507-121.838 -54.517  0.00  0.00     0.163 A 
ATOM     14  F   UNL d   1     -43.015-121.202 -54.568  0.00  0.00    -0.202 F 
ATOM     15  C   UNL d   1     -42.254-122.228 -55.204  0.00  0.00     0.121 A 
ATOM     16  C   UNL d   1     -41.741-122.871 -55.152  0.00  0.00     0.027 A 
ATOM     17  C   UNL d   1     -41.469-123.139 -54.410  0.00  0.00     0.015 A 
BRANCH  15  18
ATOM     18  O   UNL d   1     -42.510-121.977 -55.928  0.00  0.00    -0.326 OA
ATOM     19  C   UNL d   1     -42.034-121.518 -56.398  0.00  0.00     0.181 C 
ENDBRANCH  15  18
ENDBRANCH   8  11
ENDBRANCH   7   8
ENDBRANCH   2   7
BRANCH   1  20
ATOM     20  C   UNL d   1     -42.142-122.942 -49.569  0.00  0.00     0.102 A 
ATOM     21  N   UNL d   1     -41.824-122.741 -48.826  0.00  0.00    -0.162 NA
ATOM     22  N   UNL d   1     -42.159-123.074 -48.138  0.00  0.00    -0.189 N 
ATOM     23  C   UNL d   1     -41.971-122.984 -47.350  0.00  0.00     0.224 A 
ATOM     24  C   UNL d   1     -42.802-123.600 -48.194  0.00  0.00     0.187 A 
ATOM     25  N   UNL d   1     -42.482-123.442 -46.913  0.00  0.00    -0.124 NA
ATOM     26  N   UNL d   1     -42.989-123.816 -47.440  0.00  0.00    -0.127 NA
ATOM     27  C   UNL d   1     -43.105-123.787 -48.950  0.00  0.00     0.042 A 
ATOM     28  C   UNL d   1     -42.772-123.455 -49.633  0.00  0.00     0.024 A 
ENDBRANCH   1  20
TORSDOF 5
ENDMDL
