MODEL 1
REMARK VINA RESULT:       2.5      0.000      0.000
REMARK  5 active torsions:
REMARK  status: ('A' for Active; 'I' for Inactive)
REMARK    1  A    between atoms: C_7  and  C_1 
REMARK    2  A    between atoms: C_8  and  N_2 
REMARK    3  A    between atoms: C_13  and  C_7 
REMARK    4  A    between atoms: C_14  and  C_8 
REMARK    5  A    between atoms: O_22  and  C_15 
ROOT
ATOM      1  C   UNL d   1      57.798  -1.607  30.040  0.00  0.00     0.095 A 
ATOM      2  N   UNL d   1      57.980  -0.200  30.321  0.00  0.00    -0.304 N 
ATOM      3  C   UNL d   1      57.356  -1.684  30.740  0.00  0.00     0.202 A 
ATOM      4  C   UNL d   1      58.114  -0.865  29.825  0.00  0.00     0.087 A 
ATOM      5  C   UNL d   1      57.230  -1.022  31.220  0.00  0.00     0.057 A 
ATOM      6  C   UNL d   1      57.543  -0.276  31.012  0.00  0.00     0.067 A 
ATOM      7  C   UNL d   1      57.416   0.376  31.491  0.00  0.00     0.020 A 
ATOM      8  C   UNL d   1      56.790  -1.095  31.918  0.00  0.00     0.029 A 
ATOM      9  O   UNL d   1      57.041  -2.422  30.954  0.00  0.00    -0.286 OA
ATOM     10  C   UNL d   1      56.667  -0.432  32.395  0.00  0.00     0.094 A 
ATOM     11  C   UNL d   1      56.979   0.299  32.183  0.00  0.00     0.026 A 
ENDROOT
BRANCH   1  12
ATOM     12  C   UNL d   1      57.925  -2.265  29.559  0.00  0.00     0.200 C 
ATOM     13  O   UNL d   1      57.294  -2.637  29.204  0.00  0.00    -0.286 OA
BRANCH  12  14
ATOM     14  C   UNL d   1      58.695  -2.539  29.440  0.00  0.00     0.039 A 
ATOM     15  C   UNL d   1      59.175  -2.698  30.090  0.00  0.00     0.003 A 
ATOM     16  C   UNL d   1      59.940  -2.971  29.965  0.00  0.00     0.000 A 
ATOM     17  C   UNL d   1      60.223  -3.084  29.197  0.00  0.00     0.000 A 
ATOM     18  C   UNL d   1      59.731  -2.921  28.552  0.00  0.00     0.000 A 
ATOM     19  C   UNL d   1      58.961  -2.646  28.671  0.00  0.00     0.003 A 
ENDBRANCH  12  14
ENDBRANCH   1  12
BRANCH   2  20
ATOM     20  C   UNL d   1      58.292   0.531  30.108  0.00  0.00     0.080 C 
BRANCH  20  21
ATOM     21  C   UNL d   1      59.005   0.569  29.687  0.00  0.00     0.018 A 
ATOM     22  C   UNL d   1      59.714   0.618  30.101  0.00  0.00     0.002 A 
ATOM     23  C   UNL d   1      60.422   0.655  29.687  0.00  0.00     0.000 A 
ATOM     24  C   UNL d   1      60.424   0.644  28.870  0.00  0.00     0.000 A 
ATOM     25  C   UNL d   1      59.704   0.595  28.459  0.00  0.00     0.000 A 
ATOM     26  C   UNL d   1      61.132   0.682  28.455  0.00  0.00     0.000 C 
ATOM     27  C   UNL d   1      58.995   0.557  28.873  0.00  0.00     0.002 A 
ENDBRANCH  20  21
ENDBRANCH   2  20
BRANCH  10  28
ATOM     28  O   UNL d   1      56.227  -0.516  33.089  0.00  0.00    -0.328 OA
ATOM     29  C   UNL d   1      55.505  -0.129  33.156  0.00  0.00     0.181 C 
ENDBRANCH  10  28
TORSDOF 5
ENDMDL
