MODEL 1
REMARK VINA RESULT:     108.1      0.000      0.000
REMARK  5 active torsions:
REMARK  status: ('A' for Active; 'I' for Inactive)
REMARK    1  A    between atoms: C_4  and  N_1 
REMARK    2  A    between atoms: C_8  and  C_2 
REMARK    3  A    between atoms: C_13  and  C_6 
REMARK    4  A    between atoms: C_7  and  C_8 
REMARK    5  A    between atoms: O_24  and  C_22 
ROOT
ATOM      1  N   UNL d   1     -56.803 -99.227 -44.651  0.00  0.00    -0.255 N 
ATOM      2  C   UNL d   1     -55.686 -99.428 -43.937  0.00  0.00     0.101 A 
ATOM      3  C   UNL d   1     -56.192 -99.416 -45.175  0.00  0.00     0.305 A 
ATOM      4  C   UNL d   1     -55.509 -99.539 -44.738  0.00  0.00     0.256 A 
ATOM      5  C   UNL d   1     -56.487 -99.234 -43.883  0.00  0.00     0.075 A 
ATOM      6  O   UNL d   1     -56.260 -99.471 -45.996  0.00  0.00    -0.263 OA
ATOM      7  O   UNL d   1     -54.765 -99.741 -45.045  0.00  0.00    -0.281 OA
ENDROOT
BRANCH   2   8
ATOM      8  C   UNL d   1     -55.157 -99.497 -43.305  0.00  0.00     0.223 C 
ATOM      9  O   UNL d   1     -54.722 -98.840 -43.065  0.00  0.00    -0.284 OA
BRANCH   8  10
ATOM     10  C   UNL d   1     -55.067-100.218 -42.920  0.00  0.00     0.139 A 
ATOM     11  O   UNL d   1     -55.109-100.338 -42.106  0.00  0.00    -0.304 OA
ATOM     12  C   UNL d   1     -54.986-101.147 -41.961  0.00  0.00     0.100 A 
ATOM     13  C   UNL d   1     -54.966-101.585 -41.266  0.00  0.00     0.025 A 
ATOM     14  C   UNL d   1     -54.871-101.512 -42.690  0.00  0.00     0.025 A 
ATOM     15  C   UNL d   1     -54.830-102.394 -41.295  0.00  0.00     0.002 A 
ATOM     16  C   UNL d   1     -54.713-102.770 -42.025  0.00  0.00     0.000 A 
ATOM     17  C   UNL d   1     -54.733-102.331 -42.718  0.00  0.00     0.002 A 
ATOM     18  C   UNL d   1     -54.920-100.945 -43.279  0.00  0.00     0.030 A 
ENDBRANCH   8  10
ENDBRANCH   2   8
BRANCH   5  19
ATOM     19  C   UNL d   1     -56.905 -99.075 -43.188  0.00  0.00     0.018 A 
ATOM     20  C   UNL d   1     -57.723 -99.078 -43.193  0.00  0.00     0.026 A 
ATOM     21  C   UNL d   1     -58.142 -98.920 -42.502  0.00  0.00     0.094 A 
ATOM     22  C   UNL d   1     -57.729 -98.758 -41.799  0.00  0.00     0.024 A 
ATOM     23  C   UNL d   1     -56.899 -98.757 -41.804  0.00  0.00     0.002 A 
ATOM     24  C   UNL d   1     -56.490 -98.915 -42.494  0.00  0.00     0.002 A 
BRANCH  21  25
ATOM     25  O   UNL d   1     -58.968 -98.923 -42.506  0.00  0.00    -0.328 OA
ATOM     26  C   UNL d   1     -59.387 -98.993 -41.800  0.00  0.00     0.181 C 
ENDBRANCH  21  25
ENDBRANCH   5  19
BRANCH   1  27
ATOM     27  C   UNL d   1     -57.589 -99.059 -44.856  0.00  0.00     0.179 A 
ATOM     28  N   UNL d   1     -58.200 -98.890 -44.327  0.00  0.00    -0.108 NA
ATOM     29  O   UNL d   1     -58.882 -98.760 -44.769  0.00  0.00    -0.210 OA
ATOM     30  C   UNL d   1     -58.699 -98.848 -45.563  0.00  0.00     0.128 A 
ATOM     31  C   UNL d   1     -57.897 -99.034 -45.625  0.00  0.00     0.067 A 
ATOM     32  C   UNL d   1     -59.225 -98.765 -46.200  0.00  0.00     0.029 C 
ENDBRANCH   1  27
TORSDOF 5
ENDMDL
