MODEL 1
REMARK VINA RESULT:      -3.9      0.000      0.000
REMARK  5 active torsions:
REMARK  status: ('A' for Active; 'I' for Inactive)
REMARK    1  A    between atoms: N_7  and  C_1 
REMARK    2  A    between atoms: C_14  and  N_4 
REMARK    3  A    between atoms: S_5  and  N_8 
REMARK    4  A    between atoms: C_13  and  S_5 
REMARK       I    between atoms: C_9  and  N_7 
REMARK    5  A    between atoms: C_15  and  C_9 
ROOT
ATOM      1  N   UNL d   1     -45.200  13.064  22.533  0.00  0.00    -0.202 NA
ATOM      2  C   UNL d   1     -44.859  12.877  21.796  0.00  0.00     0.279 C 
ATOM      3  O   UNL d   1     -45.291  12.447  21.230  0.00  0.00    -0.265 OA
ENDROOT
BRANCH   2   4
ATOM      4  C   UNL d   1     -44.091  13.118  21.621  0.00  0.00     0.061 A 
ATOM      5  C   UNL d   1     -43.896  13.918  21.563  0.00  0.00     0.025 A 
ATOM      6  C   UNL d   1     -43.125  14.149  21.387  0.00  0.00     0.092 A 
ATOM      7  N   UNL d   1     -42.541  13.583  21.268  0.00  0.00    -0.229 N 
ATOM      8  C   UNL d   1     -42.725  12.772  21.324  0.00  0.00     0.092 A 
ATOM      9  C   UNL d   1     -43.492  12.541  21.499  0.00  0.00     0.025 A 
BRANCH   7  10
ATOM     10  S   UNL d   1     -41.759  13.822  21.090  0.00  0.00     0.271 S 
ATOM     11  O   UNL d   1     -41.511  13.033  21.119  0.00  0.00    -0.200 OA
ATOM     12  O   UNL d   1     -42.024  14.611  21.065  0.00  0.00    -0.200 OA
BRANCH  10  13
ATOM     13  C   UNL d   1     -40.991  14.065  20.915  0.00  0.00     0.104 A 
ATOM     14  C   UNL d   1     -40.420  14.096  21.510  0.00  0.00     0.013 A 
ATOM     15  C   UNL d   1     -39.652  14.339  21.335  0.00  0.00     0.001 A 
ATOM     16  C   UNL d   1     -39.453  14.553  20.560  0.00  0.00     0.000 A 
ATOM     17  C   UNL d   1     -40.026  14.523  19.961  0.00  0.00     0.001 A 
ATOM     18  C   UNL d   1     -40.800  14.277  20.142  0.00  0.00     0.013 A 
ENDBRANCH  10  13
ENDBRANCH   7  10
ENDBRANCH   2   4
BRANCH   1  19
ATOM     19  C   UNL d   1     -45.969  12.822  22.703  0.00  0.00     0.160 A 
ATOM     20  C   UNL d   1     -46.659  13.211  22.478  0.00  0.00     0.298 A 
ATOM     21  N   UNL d   1     -47.297  12.779  22.763  0.00  0.00    -0.209 N 
ATOM     22  O   UNL d   1     -46.697  13.907  22.045  0.00  0.00    -0.263 OA
ATOM     23  N   UNL d   1     -47.003  12.126  23.163  0.00  0.00    -0.238 N 
ATOM     24  C   UNL d   1     -46.182  12.150  23.127  0.00  0.00     0.104 A 
ATOM     25  C   UNL d   1     -47.453  11.547  23.535  0.00  0.00     0.120 C 
ATOM     26  C   UNL d   1     -45.664  11.600  23.457  0.00  0.00     0.022 C 
BRANCH  21  27
ATOM     27  C   UNL d   1     -48.091  12.973  22.662  0.00  0.00     0.085 A 
ATOM     28  C   UNL d   1     -48.440  13.510  23.178  0.00  0.00     0.019 A 
ATOM     29  C   UNL d   1     -49.235  13.708  23.083  0.00  0.00     0.002 A 
ATOM     30  C   UNL d   1     -49.675  13.366  22.469  0.00  0.00     0.000 A 
ATOM     31  C   UNL d   1     -49.317  12.826  21.953  0.00  0.00     0.002 A 
ATOM     32  C   UNL d   1     -48.526  12.631  22.051  0.00  0.00     0.019 A 
ENDBRANCH  21  27
ENDBRANCH   1  19
TORSDOF 5
ENDMDL
MODEL 2
REMARK VINA RESULT:      -3.6      1.464      6.665
REMARK  5 active torsions:
REMARK  status: ('A' for Active; 'I' for Inactive)
REMARK    1  A    between atoms: N_7  and  C_1 
REMARK    2  A    between atoms: C_14  and  N_4 
REMARK    3  A    between atoms: S_5  and  N_8 
REMARK    4  A    between atoms: C_13  and  S_5 
REMARK       I    between atoms: C_9  and  N_7 
REMARK    5  A    between atoms: C_15  and  C_9 
ROOT
ATOM      1  N   UNL d   1     -42.121  13.963  21.014  0.00  0.00    -0.202 NA
ATOM      2  C   UNL d   1     -42.419  13.186  21.055  0.00  0.00     0.279 C 
ATOM      3  O   UNL d   1     -41.994  12.555  20.720  0.00  0.00    -0.265 OA
ENDROOT
BRANCH   2   4
ATOM      4  C   UNL d   1     -43.139  13.037  21.428  0.00  0.00     0.061 A 
ATOM      5  C   UNL d   1     -43.749  13.593  21.418  0.00  0.00     0.025 A 
ATOM      6  C   UNL d   1     -44.466  13.436  21.793  0.00  0.00     0.092 A 
ATOM      7  N   UNL d   1     -44.579  12.721  22.182  0.00  0.00    -0.229 N 
ATOM      8  C   UNL d   1     -43.971  12.151  22.199  0.00  0.00     0.092 A 
ATOM      9  C   UNL d   1     -43.258  12.307  21.826  0.00  0.00     0.025 A 
BRANCH   7  10
ATOM     10  S   UNL d   1     -45.308  12.565  22.562  0.00  0.00     0.271 S 
ATOM     11  O   UNL d   1     -44.964  11.924  22.959  0.00  0.00    -0.200 OA
ATOM     12  O   UNL d   1     -45.639  13.212  22.156  0.00  0.00    -0.200 OA
BRANCH  10  13
ATOM     13  C   UNL d   1     -46.029  12.417  22.933  0.00  0.00     0.104 A 
ATOM     14  C   UNL d   1     -46.154  11.703  23.327  0.00  0.00     0.013 A 
ATOM     15  C   UNL d   1     -46.875  11.554  23.698  0.00  0.00     0.001 A 
ATOM     16  C   UNL d   1     -47.476  12.124  23.674  0.00  0.00     0.000 A 
ATOM     17  C   UNL d   1     -47.353  12.842  23.279  0.00  0.00     0.001 A 
ATOM     18  C   UNL d   1     -46.623  12.988  22.906  0.00  0.00     0.013 A 
ENDBRANCH  10  13
ENDBRANCH   7  10
ENDBRANCH   2   4
BRANCH   1  19
ATOM     19  C   UNL d   1     -41.401  14.107  20.640  0.00  0.00     0.160 A 
ATOM     20  C   UNL d   1     -41.282  14.160  19.827  0.00  0.00     0.298 A 
ATOM     21  N   UNL d   1     -40.484  14.309  19.698  0.00  0.00    -0.209 N 
ATOM     22  O   UNL d   1     -41.860  14.078  19.250  0.00  0.00    -0.263 OA
ATOM     23  N   UNL d   1     -40.112  14.348  20.428  0.00  0.00    -0.238 N 
ATOM     24  C   UNL d   1     -40.677  14.224  21.012  0.00  0.00     0.104 A 
ATOM     25  C   UNL d   1     -39.311  14.488  20.554  0.00  0.00     0.120 C 
ATOM     26  C   UNL d   1     -40.543  14.217  21.826  0.00  0.00     0.022 C 
BRANCH  21  27
ATOM     27  C   UNL d   1     -40.125  14.402  18.962  0.00  0.00     0.085 A 
ATOM     28  C   UNL d   1     -40.125  15.145  18.609  0.00  0.00     0.019 A 
ATOM     29  C   UNL d   1     -39.768  15.244  17.872  0.00  0.00     0.002 A 
ATOM     30  C   UNL d   1     -39.413  14.598  17.494  0.00  0.00     0.000 A 
ATOM     31  C   UNL d   1     -39.418  13.853  17.856  0.00  0.00     0.002 A 
ATOM     32  C   UNL d   1     -39.774  13.756  18.589  0.00  0.00     0.019 A 
ENDBRANCH  21  27
ENDBRANCH   1  19
TORSDOF 5
ENDMDL
MODEL 3
REMARK VINA RESULT:      -1.4      1.801      6.559
REMARK  5 active torsions:
REMARK  status: ('A' for Active; 'I' for Inactive)
REMARK    1  A    between atoms: N_7  and  C_1 
REMARK    2  A    between atoms: C_14  and  N_4 
REMARK    3  A    between atoms: S_5  and  N_8 
REMARK    4  A    between atoms: C_13  and  S_5 
REMARK       I    between atoms: C_9  and  N_7 
REMARK    5  A    between atoms: C_15  and  C_9 
ROOT
ATOM      1  N   UNL d   1     -44.969  12.477  22.024  0.00  0.00    -0.202 NA
ATOM      2  C   UNL d   1     -45.372  13.022  22.508  0.00  0.00     0.279 C 
ATOM      3  O   UNL d   1     -44.961  13.648  22.869  0.00  0.00    -0.265 OA
ENDROOT
BRANCH   2   4
ATOM      4  C   UNL d   1     -46.183  12.946  22.633  0.00  0.00     0.061 A 
ATOM      5  C   UNL d   1     -46.729  13.192  22.064  0.00  0.00     0.025 A 
ATOM      6  C   UNL d   1     -47.538  13.112  22.197  0.00  0.00     0.092 A 
ATOM      7  N   UNL d   1     -47.809  12.785  22.900  0.00  0.00    -0.229 N 
ATOM      8  C   UNL d   1     -47.269  12.532  23.483  0.00  0.00     0.092 A 
ATOM      9  C   UNL d   1     -46.464  12.612  23.351  0.00  0.00     0.025 A 
BRANCH   7  10
ATOM     10  S   UNL d   1     -48.632  12.705  23.032  0.00  0.00     0.271 S 
ATOM     11  O   UNL d   1     -48.699  13.526  23.114  0.00  0.00    -0.200 OA
ATOM     12  O   UNL d   1     -48.549  11.881  22.947  0.00  0.00    -0.200 OA
BRANCH  10  13
ATOM     13  C   UNL d   1     -49.442  12.619  23.161  0.00  0.00     0.104 A 
ATOM     14  C   UNL d   1     -49.948  13.264  23.064  0.00  0.00     0.013 A 
ATOM     15  C   UNL d   1     -50.757  13.178  23.193  0.00  0.00     0.001 A 
ATOM     16  C   UNL d   1     -51.064  12.442  23.420  0.00  0.00     0.000 A 
ATOM     17  C   UNL d   1     -50.557  11.793  23.517  0.00  0.00     0.001 A 
ATOM     18  C   UNL d   1     -49.740  11.885  23.386  0.00  0.00     0.013 A 
ENDBRANCH  10  13
ENDBRANCH   7  10
ENDBRANCH   2   4
BRANCH   1  19
ATOM     19  C   UNL d   1     -44.158  12.558  21.902  0.00  0.00     0.160 A 
ATOM     20  C   UNL d   1     -43.794  13.138  21.445  0.00  0.00     0.298 A 
ATOM     21  N   UNL d   1     -42.983  13.012  21.476  0.00  0.00    -0.209 N 
ATOM     22  O   UNL d   1     -44.178  13.736  21.034  0.00  0.00    -0.263 OA
ATOM     23  N   UNL d   1     -42.846  12.356  21.949  0.00  0.00    -0.238 N 
ATOM     24  C   UNL d   1     -43.571  12.074  22.214  0.00  0.00     0.104 A 
ATOM     25  C   UNL d   1     -42.109  12.037  22.128  0.00  0.00     0.120 C 
ATOM     26  C   UNL d   1     -43.690  11.421  22.704  0.00  0.00     0.022 C 
BRANCH  21  27
ATOM     27  C   UNL d   1     -42.411  13.467  21.096  0.00  0.00     0.085 A 
ATOM     28  C   UNL d   1     -42.048  14.078  21.508  0.00  0.00     0.019 A 
ATOM     29  C   UNL d   1     -41.475  14.538  21.133  0.00  0.00     0.002 A 
ATOM     30  C   UNL d   1     -41.270  14.381  20.345  0.00  0.00     0.000 A 
ATOM     31  C   UNL d   1     -41.640  13.764  19.936  0.00  0.00     0.002 A 
ATOM     32  C   UNL d   1     -42.210  13.308  20.312  0.00  0.00     0.019 A 
ENDBRANCH  21  27
ENDBRANCH   1  19
TORSDOF 5
ENDMDL
