MODEL 1
REMARK VINA RESULT:      -9.9      0.000      0.000
REMARK  3 active torsions:
REMARK  status: ('A' for Active; 'I' for Inactive)
REMARK    1  A    between atoms: C_2  and  C_3 
REMARK    2  A    between atoms: C_5  and  C_2 
REMARK    3  A    between atoms: C_3  and  C_6 
ROOT
ATOM      1  N   UNL d   1      53.116  33.151  54.040  0.00  0.00    -0.246 NA
ATOM      2  C   UNL d   1      53.116  33.966  54.160  0.00  0.00     0.081 A 
ATOM      3  C   UNL d   1      53.698  32.689  54.431  0.00  0.00     0.081 A 
ATOM      4  C   UNL d   1      53.684  34.318  54.661  0.00  0.00     0.018 A 
ATOM      5  C   UNL d   1      54.235  33.843  55.027  0.00  0.00     0.003 A 
ATOM      6  C   UNL d   1      54.238  33.024  54.907  0.00  0.00     0.019 A 
ATOM      7  C   UNL d   1      52.548  34.437  53.781  0.00  0.00     0.019 A 
ATOM      8  C   UNL d   1      53.667  35.130  54.768  0.00  0.00     0.002 A 
ATOM      9  C   UNL d   1      52.564  35.257  53.914  0.00  0.00     0.002 A 
ATOM     10  C   UNL d   1      53.104  35.591  54.391  0.00  0.00     0.000 A 
ENDROOT
BRANCH   3  11
ATOM     11  C   UNL d   1      53.725  31.861  54.331  0.00  0.00     0.019 C 
BRANCH  11  12
ATOM     12  C   UNL d   1      53.516  31.515  53.621  0.00  0.00     0.005 C 
BRANCH  12  13
ATOM     13  C   UNL d   1      53.333  30.712  53.596  0.00  0.00     0.039 A 
ATOM     14  C   UNL d   1      52.973  30.395  52.941  0.00  0.00     0.196 A 
ATOM     15  O   UNL d   1      52.774  30.872  52.267  0.00  0.00    -0.287 OA
ATOM     16  C   UNL d   1      52.790  29.591  52.916  0.00  0.00     0.042 A 
ATOM     17  C   UNL d   1      52.979  29.114  53.570  0.00  0.00     0.003 A 
ATOM     18  C   UNL d   1      53.328  29.416  54.206  0.00  0.00     0.000 A 
ATOM     19  C   UNL d   1      53.511  30.220  54.231  0.00  0.00     0.003 A 
ENDBRANCH  12  13
ENDBRANCH  11  12
ENDBRANCH   3  11
TORSDOF 3
ENDMDL
MODEL 2
REMARK VINA RESULT:      -9.3      2.446      4.140
REMARK  3 active torsions:
REMARK  status: ('A' for Active; 'I' for Inactive)
REMARK    1  A    between atoms: C_2  and  C_3 
REMARK    2  A    between atoms: C_5  and  C_2 
REMARK    3  A    between atoms: C_3  and  C_6 
ROOT
ATOM      1  N   UNL d   1      52.576  33.385  53.474  0.00  0.00    -0.246 NA
ATOM      2  C   UNL d   1      53.197  33.332  54.014  0.00  0.00     0.081 A 
ATOM      3  C   UNL d   1      52.278  34.145  53.281  0.00  0.00     0.081 A 
ATOM      4  C   UNL d   1      53.517  34.023  54.356  0.00  0.00     0.018 A 
ATOM      5  C   UNL d   1      53.206  34.746  54.148  0.00  0.00     0.003 A 
ATOM      6  C   UNL d   1      52.582  34.802  53.606  0.00  0.00     0.019 A 
ATOM      7  C   UNL d   1      53.504  32.588  54.216  0.00  0.00     0.019 A 
ATOM      8  C   UNL d   1      54.134  33.950  54.890  0.00  0.00     0.002 A 
ATOM      9  C   UNL d   1      54.129  32.555  54.761  0.00  0.00     0.002 A 
ATOM     10  C   UNL d   1      54.433  33.213  55.087  0.00  0.00     0.000 A 
ENDROOT
BRANCH   3  11
ATOM     11  C   UNL d   1      51.650  34.233  52.738  0.00  0.00     0.019 C 
BRANCH  11  12
ATOM     12  C   UNL d   1      50.890  34.385  52.994  0.00  0.00     0.005 C 
BRANCH  12  13
ATOM     13  C   UNL d   1      50.278  34.448  52.445  0.00  0.00     0.039 A 
ATOM     14  C   UNL d   1      49.571  34.784  52.659  0.00  0.00     0.196 A 
ATOM     15  O   UNL d   1      49.435  35.078  53.444  0.00  0.00    -0.287 OA
ATOM     16  C   UNL d   1      48.958  34.847  52.110  0.00  0.00     0.042 A 
ATOM     17  C   UNL d   1      49.078  34.562  51.337  0.00  0.00     0.003 A 
ATOM     18  C   UNL d   1      49.761  34.237  51.126  0.00  0.00     0.000 A 
ATOM     19  C   UNL d   1      50.374  34.174  51.675  0.00  0.00     0.003 A 
ENDBRANCH  12  13
ENDBRANCH  11  12
ENDBRANCH   3  11
TORSDOF 3
ENDMDL
MODEL 3
REMARK VINA RESULT:      -9.0      2.121      3.691
REMARK  3 active torsions:
REMARK  status: ('A' for Active; 'I' for Inactive)
REMARK    1  A    between atoms: C_2  and  C_3 
REMARK    2  A    between atoms: C_5  and  C_2 
REMARK    3  A    between atoms: C_3  and  C_6 
ROOT
ATOM      1  N   UNL d   1      51.118  34.532  53.341  0.00  0.00    -0.246 NA
ATOM      2  C   UNL d   1      50.456  34.575  52.852  0.00  0.00     0.081 A 
ATOM      3  C   UNL d   1      51.839  34.253  53.015  0.00  0.00     0.081 A 
ATOM      4  C   UNL d   1      50.510  34.345  52.051  0.00  0.00     0.018 A 
ATOM      5  C   UNL d   1      51.223  34.078  51.763  0.00  0.00     0.003 A 
ATOM      6  C   UNL d   1      51.890  34.034  52.253  0.00  0.00     0.019 A 
ATOM      7  C   UNL d   1      49.736  34.849  53.158  0.00  0.00     0.019 A 
ATOM      8  C   UNL d   1      49.841  34.395  51.580  0.00  0.00     0.002 A 
ATOM      9  C   UNL d   1      49.080  34.885  52.649  0.00  0.00     0.002 A 
ATOM     10  C   UNL d   1      49.131  34.666  51.887  0.00  0.00     0.000 A 
ENDROOT
BRANCH   3  11
ATOM     11  C   UNL d   1      52.527  34.197  53.483  0.00  0.00     0.019 C 
BRANCH  11  12
ATOM     12  C   UNL d   1      52.774  33.481  53.786  0.00  0.00     0.005 C 
BRANCH  12  13
ATOM     13  C   UNL d   1      53.431  33.451  54.283  0.00  0.00     0.039 A 
ATOM     14  C   UNL d   1      53.764  32.737  54.478  0.00  0.00     0.196 A 
ATOM     15  O   UNL d   1      53.453  32.004  54.183  0.00  0.00    -0.287 OA
ATOM     16  C   UNL d   1      54.422  32.706  54.976  0.00  0.00     0.042 A 
ATOM     17  C   UNL d   1      54.736  33.418  55.272  0.00  0.00     0.003 A 
ATOM     18  C   UNL d   1      54.417  34.111  55.086  0.00  0.00     0.000 A 
ATOM     19  C   UNL d   1      53.759  34.141  54.589  0.00  0.00     0.003 A 
ENDBRANCH  12  13
ENDBRANCH  11  12
ENDBRANCH   3  11
TORSDOF 3
ENDMDL
MODEL 4
REMARK VINA RESULT:      -8.9      1.113      4.411
REMARK  3 active torsions:
REMARK  status: ('A' for Active; 'I' for Inactive)
REMARK    1  A    between atoms: C_2  and  C_3 
REMARK    2  A    between atoms: C_5  and  C_2 
REMARK    3  A    between atoms: C_3  and  C_6 
ROOT
ATOM      1  N   UNL d   1      53.452  31.255  54.177  0.00  0.00    -0.246 NA
ATOM      2  C   UNL d   1      53.318  30.452  54.051  0.00  0.00     0.081 A 
ATOM      3  C   UNL d   1      53.285  31.791  53.553  0.00  0.00     0.081 A 
ATOM      4  C   UNL d   1      53.024  30.184  53.317  0.00  0.00     0.018 A 
ATOM      5  C   UNL d   1      52.872  30.729  52.730  0.00  0.00     0.003 A 
ATOM      6  C   UNL d   1      53.005  31.537  52.854  0.00  0.00     0.019 A 
ATOM      7  C   UNL d   1      53.477  29.909  54.657  0.00  0.00     0.019 A 
ATOM      8  C   UNL d   1      52.897  29.382  53.211  0.00  0.00     0.002 A 
ATOM      9  C   UNL d   1      53.336  29.103  54.511  0.00  0.00     0.002 A 
ATOM     10  C   UNL d   1      53.056  28.849  53.813  0.00  0.00     0.000 A 
ENDROOT
BRANCH   3  11
ATOM     11  C   UNL d   1      53.410  32.611  53.648  0.00  0.00     0.019 C 
BRANCH  11  12
ATOM     12  C   UNL d   1      52.800  33.144  53.550  0.00  0.00     0.005 C 
BRANCH  12  13
ATOM     13  C   UNL d   1      52.886  33.918  53.820  0.00  0.00     0.039 A 
ATOM     14  C   UNL d   1      52.448  34.517  53.489  0.00  0.00     0.196 A 
ATOM     15  O   UNL d   1      51.895  34.371  52.862  0.00  0.00    -0.287 OA
ATOM     16  C   UNL d   1      52.534  35.292  53.758  0.00  0.00     0.042 A 
ATOM     17  C   UNL d   1      53.074  35.448  54.372  0.00  0.00     0.003 A 
ATOM     18  C   UNL d   1      53.498  34.872  54.695  0.00  0.00     0.000 A 
ATOM     19  C   UNL d   1      53.413  34.096  54.426  0.00  0.00     0.003 A 
ENDBRANCH  12  13
ENDBRANCH  11  12
ENDBRANCH   3  11
TORSDOF 3
ENDMDL
MODEL 5
REMARK VINA RESULT:      -8.7      1.952      4.316
REMARK  3 active torsions:
REMARK  status: ('A' for Active; 'I' for Inactive)
REMARK    1  A    between atoms: C_2  and  C_3 
REMARK    2  A    between atoms: C_5  and  C_2 
REMARK    3  A    between atoms: C_3  and  C_6 
ROOT
ATOM      1  N   UNL d   1      52.432  31.578  52.831  0.00  0.00    -0.246 NA
ATOM      2  C   UNL d   1      52.845  30.940  53.150  0.00  0.00     0.081 A 
ATOM      3  C   UNL d   1      52.725  32.352  52.969  0.00  0.00     0.081 A 
ATOM      4  C   UNL d   1      53.537  31.068  53.599  0.00  0.00     0.018 A 
ATOM      5  C   UNL d   1      53.796  31.831  53.715  0.00  0.00     0.003 A 
ATOM      6  C   UNL d   1      53.383  32.475  53.396  0.00  0.00     0.019 A 
ATOM      7  C   UNL d   1      52.569  30.168  53.023  0.00  0.00     0.019 A 
ATOM      8  C   UNL d   1      53.933  30.421  53.908  0.00  0.00     0.002 A 
ATOM      9  C   UNL d   1      52.999  29.538  53.353  0.00  0.00     0.002 A 
ATOM     10  C   UNL d   1      53.657  29.660  53.780  0.00  0.00     0.000 A 
ENDROOT
BRANCH   3  11
ATOM     11  C   UNL d   1      52.331  33.020  52.660  0.00  0.00     0.019 C 
BRANCH  11  12
ATOM     12  C   UNL d   1      51.767  33.416  53.097  0.00  0.00     0.005 C 
BRANCH  12  13
ATOM     13  C   UNL d   1      51.166  33.829  52.711  0.00  0.00     0.039 A 
ATOM     14  C   UNL d   1      50.500  34.053  53.117  0.00  0.00     0.196 A 
ATOM     15  O   UNL d   1      50.397  33.875  53.941  0.00  0.00    -0.287 OA
ATOM     16  C   UNL d   1      49.898  34.466  52.732  0.00  0.00     0.042 A 
ATOM     17  C   UNL d   1      49.987  34.647  51.924  0.00  0.00     0.003 A 
ATOM     18  C   UNL d   1      50.630  34.432  51.528  0.00  0.00     0.000 A 
ATOM     19  C   UNL d   1      51.231  34.019  51.913  0.00  0.00     0.003 A 
ENDBRANCH  12  13
ENDBRANCH  11  12
ENDBRANCH   3  11
TORSDOF 3
ENDMDL
MODEL 6
REMARK VINA RESULT:      -8.3      3.382      5.146
REMARK  3 active torsions:
REMARK  status: ('A' for Active; 'I' for Inactive)
REMARK    1  A    between atoms: C_2  and  C_3 
REMARK    2  A    between atoms: C_5  and  C_2 
REMARK    3  A    between atoms: C_3  and  C_6 
ROOT
ATOM      1  N   UNL d   1      51.459  34.717  53.082  0.00  0.00    -0.246 NA
ATOM      2  C   UNL d   1      52.128  34.424  53.464  0.00  0.00     0.081 A 
ATOM      3  C   UNL d   1      50.845  34.180  52.884  0.00  0.00     0.081 A 
ATOM      4  C   UNL d   1      52.187  33.611  53.646  0.00  0.00     0.018 A 
ATOM      5  C   UNL d   1      51.574  33.115  53.441  0.00  0.00     0.003 A 
ATOM      6  C   UNL d   1      50.900  33.408  53.057  0.00  0.00     0.019 A 
ATOM      7  C   UNL d   1      52.745  34.940  53.667  0.00  0.00     0.019 A 
ATOM      8  C   UNL d   1      52.860  33.339  54.026  0.00  0.00     0.002 A 
ATOM      9  C   UNL d   1      53.411  34.626  54.051  0.00  0.00     0.002 A 
ATOM     10  C   UNL d   1      53.466  33.853  54.225  0.00  0.00     0.000 A 
ENDROOT
BRANCH   3  11
ATOM     11  C   UNL d   1      50.155  34.445  52.496  0.00  0.00     0.019 C 
BRANCH  11  12
ATOM     12  C   UNL d   1      49.593  34.887  52.891  0.00  0.00     0.005 C 
BRANCH  12  13
ATOM     13  C   UNL d   1      48.920  35.144  52.491  0.00  0.00     0.039 A 
ATOM     14  C   UNL d   1      48.433  35.700  52.827  0.00  0.00     0.196 A 
ATOM     15  O   UNL d   1      48.596  36.034  53.590  0.00  0.00    -0.287 OA
ATOM     16  C   UNL d   1      47.758  35.957  52.427  0.00  0.00     0.042 A 
ATOM     17  C   UNL d   1      47.587  35.638  51.678  0.00  0.00     0.003 A 
ATOM     18  C   UNL d   1      48.056  35.100  51.350  0.00  0.00     0.000 A 
ATOM     19  C   UNL d   1      48.730  34.843  51.749  0.00  0.00     0.003 A 
ENDBRANCH  12  13
ENDBRANCH  11  12
ENDBRANCH   3  11
TORSDOF 3
ENDMDL
MODEL 7
REMARK VINA RESULT:      -8.0      3.559      4.913
REMARK  3 active torsions:
REMARK  status: ('A' for Active; 'I' for Inactive)
REMARK    1  A    between atoms: C_2  and  C_3 
REMARK    2  A    between atoms: C_5  and  C_2 
REMARK    3  A    between atoms: C_3  and  C_6 
ROOT
ATOM      1  N   UNL d   1      49.352  35.039  53.051  0.00  0.00    -0.246 NA
ATOM      2  C   UNL d   1      48.677  35.437  52.797  0.00  0.00     0.081 A 
ATOM      3  C   UNL d   1      49.748  34.535  52.509  0.00  0.00     0.081 A 
ATOM      4  C   UNL d   1      48.398  35.336  52.016  0.00  0.00     0.018 A 
ATOM      5  C   UNL d   1      48.803  34.840  51.513  0.00  0.00     0.003 A 
ATOM      6  C   UNL d   1      49.482  34.439  51.767  0.00  0.00     0.019 A 
ATOM      7  C   UNL d   1      48.274  35.939  53.320  0.00  0.00     0.019 A 
ATOM      8  C   UNL d   1      47.725  35.740  51.782  0.00  0.00     0.002 A 
ATOM      9  C   UNL d   1      47.596  36.331  53.045  0.00  0.00     0.002 A 
ATOM     10  C   UNL d   1      47.330  36.235  52.303  0.00  0.00     0.000 A 
ENDROOT
BRANCH   3  11
ATOM     11  C   UNL d   1      50.434  34.118  52.735  0.00  0.00     0.019 C 
BRANCH  11  12
ATOM     12  C   UNL d   1      51.126  34.511  52.915  0.00  0.00     0.005 C 
BRANCH  12  13
ATOM     13  C   UNL d   1      51.800  34.082  53.120  0.00  0.00     0.039 A 
ATOM     14  C   UNL d   1      52.440  34.458  53.447  0.00  0.00     0.196 A 
ATOM     15  O   UNL d   1      52.442  35.295  53.588  0.00  0.00    -0.287 OA
ATOM     16  C   UNL d   1      53.114  34.029  53.654  0.00  0.00     0.042 A 
ATOM     17  C   UNL d   1      53.125  33.208  53.521  0.00  0.00     0.003 A 
ATOM     18  C   UNL d   1      52.507  32.839  53.205  0.00  0.00     0.000 A 
ATOM     19  C   UNL d   1      51.833  33.269  52.998  0.00  0.00     0.003 A 
ENDBRANCH  12  13
ENDBRANCH  11  12
ENDBRANCH   3  11
TORSDOF 3
ENDMDL
