MODEL 1
REMARK VINA RESULT:       9.4      0.000      0.000
REMARK  8 active torsions:
REMARK  status: ('A' for Active; 'I' for Inactive)
REMARK    1  A    between atoms: C_7  and  C_1 
REMARK    2  A    between atoms: C_8  and  C_2 
REMARK    3  A    between atoms: S_11  and  C_3 
REMARK    4  A    between atoms: C_10  and  C_4 
REMARK    5  A    between atoms: O_17  and  C_7 
REMARK    6  A    between atoms: C_24  and  S_11 
REMARK    7  A    between atoms: C_15  and  C_23 
REMARK    8  A    between atoms: C_23  and  O_17 
ROOT
ATOM      1  C   UNL d   1     -41.442-120.957 -52.627  0.00  0.00     0.081 A 
ATOM      2  C   UNL d   1     -41.524-122.368 -52.466  0.00  0.00     0.045 A 
ATOM      3  C   UNL d   1     -41.344-122.287 -51.668  0.00  0.00     0.112 A 
ATOM      4  C   UNL d   1     -41.575-121.704 -52.953  0.00  0.00     0.010 A 
ATOM      5  C   UNL d   1     -41.261-120.877 -51.829  0.00  0.00     0.087 A 
ATOM      6  N   UNL d   1     -41.212-121.541 -51.347  0.00  0.00    -0.239 NA
ATOM      7  C   UNL d   1     -41.125-120.115 -51.491  0.00  0.00     0.021 C 
ENDROOT
BRANCH   4   8
ATOM      8  C   UNL d   1     -41.752-121.783 -53.738  0.00  0.00     0.000 A 
ATOM      9  C   UNL d   1     -42.533-121.729 -53.998  0.00  0.00     0.001 A 
ATOM     10  C   UNL d   1     -42.711-121.808 -54.783  0.00  0.00     0.011 A 
ATOM     11  C   UNL d   1     -42.113-121.944 -55.335  0.00  0.00     0.058 A 
ATOM     12  C   UNL d   1     -41.332-121.998 -55.075  0.00  0.00     0.011 A 
ATOM     13 CL   UNL d   1     -42.294-122.025 -56.134  0.00  0.00    -0.082 Cl
ATOM     14  C   UNL d   1     -41.155-121.919 -54.290  0.00  0.00     0.001 A 
ENDBRANCH   4   8
BRANCH   2  15
ATOM     15  C   UNL d   1     -41.658-123.128 -52.790  0.00  0.00     0.124 C 
ATOM     16  N   UNL d   1     -41.378-123.804 -52.382  0.00  0.00    -0.146 N 
ENDBRANCH   2  15
BRANCH   1  17
ATOM     17  C   UNL d   1     -41.492-120.279 -53.115  0.00  0.00     0.302 C 
ATOM     18  O   UNL d   1     -41.584-120.364 -53.929  0.00  0.00    -0.259 OA
BRANCH  17  19
ATOM     19  O   UNL d   1     -41.446-119.523 -52.767  0.00  0.00    -0.271 OA
BRANCH  19  20
ATOM     20  C   UNL d   1     -41.335-118.848 -53.233  0.00  0.00     0.126 C 
BRANCH  20  21
ATOM     21  C   UNL d   1     -41.480-118.101 -52.919  0.00  0.00     0.027 C 
ATOM     22  C   UNL d   1     -41.135-117.444 -53.253  0.00  0.00     0.002 C 
ENDBRANCH  20  21
ENDBRANCH  19  20
ENDBRANCH  17  19
ENDBRANCH   1  17
BRANCH   3  23
ATOM     23  S   UNL d   1     -41.291-122.964 -51.166  0.00  0.00    -0.067 SA
BRANCH  23  24
ATOM     24  C   UNL d   1     -41.420-122.895 -50.357  0.00  0.00     0.037 C 
ATOM     25  C   UNL d   1     -41.436-123.567 -49.875  0.00  0.00     0.007 C 
ENDBRANCH  23  24
ENDBRANCH   3  23
TORSDOF 8
ENDMDL
MODEL 2
REMARK VINA RESULT:       9.9      2.051      3.794
REMARK  8 active torsions:
REMARK  status: ('A' for Active; 'I' for Inactive)
REMARK    1  A    between atoms: C_7  and  C_1 
REMARK    2  A    between atoms: C_8  and  C_2 
REMARK    3  A    between atoms: S_11  and  C_3 
REMARK    4  A    between atoms: C_10  and  C_4 
REMARK    5  A    between atoms: O_17  and  C_7 
REMARK    6  A    between atoms: C_24  and  S_11 
REMARK    7  A    between atoms: C_15  and  C_23 
REMARK    8  A    between atoms: C_23  and  O_17 
ROOT
ATOM      1  C   UNL d   1     -41.783-122.418 -52.073  0.00  0.00     0.081 A 
ATOM      2  C   UNL d   1     -41.591-121.954 -53.404  0.00  0.00     0.045 A 
ATOM      3  C   UNL d   1     -41.717-122.716 -53.688  0.00  0.00     0.112 A 
ATOM      4  C   UNL d   1     -41.623-121.799 -52.594  0.00  0.00     0.010 A 
ATOM      5  C   UNL d   1     -41.909-123.180 -52.358  0.00  0.00     0.087 A 
ATOM      6  N   UNL d   1     -41.876-123.331 -53.165  0.00  0.00    -0.239 NA
ATOM      7  C   UNL d   1     -42.072-123.817 -51.829  0.00  0.00     0.021 C 
ENDROOT
BRANCH   4   8
ATOM      8  C   UNL d   1     -41.500-121.050 -52.315  0.00  0.00     0.000 A 
ATOM      9  C   UNL d   1     -41.427-120.416 -52.837  0.00  0.00     0.001 A 
ATOM     10  C   UNL d   1     -41.303-119.667 -52.558  0.00  0.00     0.011 A 
ATOM     11  C   UNL d   1     -41.248-119.527 -51.747  0.00  0.00     0.058 A 
ATOM     12  C   UNL d   1     -41.321-120.161 -51.225  0.00  0.00     0.011 A 
ATOM     13 CL   UNL d   1     -41.122-118.765 -51.463  0.00  0.00    -0.082 Cl
ATOM     14  C   UNL d   1     -41.445-120.910 -51.504  0.00  0.00     0.001 A 
ENDBRANCH   4   8
BRANCH   2  15
ATOM     15  C   UNL d   1     -41.430-121.330 -53.938  0.00  0.00     0.124 C 
ATOM     16  N   UNL d   1     -42.013-121.105 -54.495  0.00  0.00    -0.146 N 
ENDBRANCH   2  15
BRANCH   1  17
ATOM     17  C   UNL d   1     -41.817-122.268 -51.251  0.00  0.00     0.302 C 
ATOM     18  O   UNL d   1     -41.123-122.244 -50.809  0.00  0.00    -0.259 OA
BRANCH  17  19
ATOM     19  O   UNL d   1     -42.558-122.145 -50.890  0.00  0.00    -0.271 OA
BRANCH  19  20
ATOM     20  C   UNL d   1     -42.806-122.619 -50.258  0.00  0.00     0.126 C 
BRANCH  20  21
ATOM     21  C   UNL d   1     -43.562-122.530 -49.946  0.00  0.00     0.027 C 
ATOM     22  C   UNL d   1     -43.830-123.040 -49.372  0.00  0.00     0.002 C 
ENDBRANCH  20  21
ENDBRANCH  19  20
ENDBRANCH  17  19
ENDBRANCH   1  17
BRANCH   3  23
ATOM     23  S   UNL d   1     -41.685-122.879 -54.515  0.00  0.00    -0.067 SA
BRANCH  23  24
ATOM     24  C   UNL d   1     -41.598-123.651 -54.785  0.00  0.00     0.037 C 
ATOM     25  C   UNL d   1     -41.403-123.800 -55.575  0.00  0.00     0.007 C 
ENDBRANCH  23  24
ENDBRANCH   3  23
TORSDOF 8
ENDMDL
MODEL 3
REMARK VINA RESULT:      11.2      2.350      3.876
REMARK  8 active torsions:
REMARK  status: ('A' for Active; 'I' for Inactive)
REMARK    1  A    between atoms: C_7  and  C_1 
REMARK    2  A    between atoms: C_8  and  C_2 
REMARK    3  A    between atoms: S_11  and  C_3 
REMARK    4  A    between atoms: C_10  and  C_4 
REMARK    5  A    between atoms: O_17  and  C_7 
REMARK    6  A    between atoms: C_24  and  S_11 
REMARK    7  A    between atoms: C_15  and  C_23 
REMARK    8  A    between atoms: C_23  and  O_17 
ROOT
ATOM      1  C   UNL d   1     -42.655-121.765 -52.585  0.00  0.00     0.081 A 
ATOM      2  C   UNL d   1     -41.724-122.585 -53.281  0.00  0.00     0.045 A 
ATOM      3  C   UNL d   1     -41.962-122.250 -53.994  0.00  0.00     0.112 A 
ATOM      4  C   UNL d   1     -42.069-122.345 -52.571  0.00  0.00     0.010 A 
ATOM      5  C   UNL d   1     -42.892-121.430 -53.299  0.00  0.00     0.087 A 
ATOM      6  N   UNL d   1     -42.546-121.671 -54.004  0.00  0.00    -0.239 NA
ATOM      7  C   UNL d   1     -43.491-120.836 -53.318  0.00  0.00     0.021 C 
ENDROOT
BRANCH   4   8
ATOM      8  C   UNL d   1     -41.835-122.675 -51.870  0.00  0.00     0.000 A 
ATOM      9  C   UNL d   1     -41.917-123.485 -51.742  0.00  0.00     0.001 A 
ATOM     10  C   UNL d   1     -41.683-123.815 -51.041  0.00  0.00     0.011 A 
ATOM     11  C   UNL d   1     -41.360-123.345 -50.445  0.00  0.00     0.058 A 
ATOM     12  C   UNL d   1     -41.278-122.534 -50.573  0.00  0.00     0.011 A 
ATOM     13 CL   UNL d   1     -41.123-123.680 -49.732  0.00  0.00    -0.082 Cl
ATOM     14  C   UNL d   1     -41.512-122.205 -51.274  0.00  0.00     0.001 A 
ENDBRANCH   4   8
BRANCH   2  15
ATOM     15  C   UNL d   1     -41.129-123.173 -53.273  0.00  0.00     0.124 C 
ATOM     16  N   UNL d   1     -41.145-123.782 -53.848  0.00  0.00    -0.146 N 
ENDBRANCH   2  15
BRANCH   1  17
ATOM     17  C   UNL d   1     -43.008-121.517 -51.869  0.00  0.00     0.302 C 
ATOM     18  O   UNL d   1     -42.613-120.989 -51.376  0.00  0.00    -0.259 OA
BRANCH  17  19
ATOM     19  O   UNL d   1     -43.761-121.811 -51.663  0.00  0.00    -0.271 OA
BRANCH  19  20
ATOM     20  C   UNL d   1     -43.927-122.045 -50.886  0.00  0.00     0.126 C 
BRANCH  20  21
ATOM     21  C   UNL d   1     -44.633-121.820 -50.530  0.00  0.00     0.027 C 
ATOM     22  C   UNL d   1     -45.048-122.350 -50.072  0.00  0.00     0.002 C 
ENDBRANCH  20  21
ENDBRANCH  19  20
ENDBRANCH  17  19
ENDBRANCH   1  17
BRANCH   3  23
ATOM     23  S   UNL d   1     -41.612-122.492 -54.723  0.00  0.00    -0.067 SA
BRANCH  23  24
ATOM     24  C   UNL d   1     -41.834-122.137 -55.431  0.00  0.00     0.037 C 
ATOM     25  C   UNL d   1     -41.326-122.145 -56.083  0.00  0.00     0.007 C 
ENDBRANCH  23  24
ENDBRANCH   3  23
TORSDOF 8
ENDMDL
MODEL 4
REMARK VINA RESULT:      12.1      1.936      3.181
REMARK  8 active torsions:
REMARK  status: ('A' for Active; 'I' for Inactive)
REMARK    1  A    between atoms: C_7  and  C_1 
REMARK    2  A    between atoms: C_8  and  C_2 
REMARK    3  A    between atoms: S_11  and  C_3 
REMARK    4  A    between atoms: C_10  and  C_4 
REMARK    5  A    between atoms: O_17  and  C_7 
REMARK    6  A    between atoms: C_24  and  S_11 
REMARK    7  A    between atoms: C_15  and  C_23 
REMARK    8  A    between atoms: C_23  and  O_17 
ROOT
ATOM      1  C   UNL d   1     -41.962-121.257 -53.408  0.00  0.00     0.081 A 
ATOM      2  C   UNL d   1     -41.970-122.547 -54.007  0.00  0.00     0.045 A 
ATOM      3  C   UNL d   1     -42.042-122.201 -54.751  0.00  0.00     0.112 A 
ATOM      4  C   UNL d   1     -41.930-122.078 -53.330  0.00  0.00     0.010 A 
ATOM      5  C   UNL d   1     -42.034-120.912 -54.151  0.00  0.00     0.087 A 
ATOM      6  N   UNL d   1     -42.074-121.383 -54.824  0.00  0.00    -0.239 NA
ATOM      7  C   UNL d   1     -42.068-120.073 -54.236  0.00  0.00     0.021 C 
ENDROOT
BRANCH   4   8
ATOM      8  C   UNL d   1     -41.859-122.418 -52.599  0.00  0.00     0.000 A 
ATOM      9  C   UNL d   1     -42.446-122.310 -52.030  0.00  0.00     0.001 A 
ATOM     10  C   UNL d   1     -42.375-122.650 -51.299  0.00  0.00     0.011 A 
ATOM     11  C   UNL d   1     -41.715-123.109 -51.113  0.00  0.00     0.058 A 
ATOM     12  C   UNL d   1     -41.128-123.216 -51.683  0.00  0.00     0.011 A 
ATOM     13 CL   UNL d   1     -41.643-123.455 -50.370  0.00  0.00    -0.082 Cl
ATOM     14  C   UNL d   1     -41.199-122.877 -52.414  0.00  0.00     0.001 A 
ENDBRANCH   4   8
BRANCH   2  15
ATOM     15  C   UNL d   1     -41.937-123.380 -53.935  0.00  0.00     0.124 C 
ATOM     16  N   UNL d   1     -41.402-123.814 -54.412  0.00  0.00    -0.146 N 
ENDBRANCH   2  15
BRANCH   1  17
ATOM     17  C   UNL d   1     -41.922-120.776 -52.725  0.00  0.00     0.302 C 
ATOM     18  O   UNL d   1     -42.478-120.864 -52.126  0.00  0.00    -0.259 OA
BRANCH  17  19
ATOM     19  O   UNL d   1     -41.313-120.209 -52.662  0.00  0.00    -0.271 OA
BRANCH  19  20
ATOM     20  C   UNL d   1     -41.461-119.463 -52.335  0.00  0.00     0.126 C 
BRANCH  20  21
ATOM     21  C   UNL d   1     -41.137-119.260 -51.607  0.00  0.00     0.027 C 
ATOM     22  C   UNL d   1     -41.136-118.484 -51.362  0.00  0.00     0.002 C 
ENDBRANCH  20  21
ENDBRANCH  19  20
ENDBRANCH  17  19
ENDBRANCH   1  17
BRANCH   3  23
ATOM     23  S   UNL d   1     -42.084-122.677 -55.446  0.00  0.00    -0.067 SA
BRANCH  23  24
ATOM     24  C   UNL d   1     -42.776-122.710 -55.888  0.00  0.00     0.037 C 
ATOM     25  C   UNL d   1     -42.847-122.279 -56.591  0.00  0.00     0.007 C 
ENDBRANCH  23  24
ENDBRANCH   3  23
TORSDOF 8
ENDMDL
MODEL 5
REMARK VINA RESULT:      12.2      2.818      4.602
REMARK  8 active torsions:
REMARK  status: ('A' for Active; 'I' for Inactive)
REMARK    1  A    between atoms: C_7  and  C_1 
REMARK    2  A    between atoms: C_8  and  C_2 
REMARK    3  A    between atoms: S_11  and  C_3 
REMARK    4  A    between atoms: C_10  and  C_4 
REMARK    5  A    between atoms: O_17  and  C_7 
REMARK    6  A    between atoms: C_24  and  S_11 
REMARK    7  A    between atoms: C_15  and  C_23 
REMARK    8  A    between atoms: C_23  and  O_17 
ROOT
ATOM      1  C   UNL d   1     -42.271-123.021 -50.247  0.00  0.00     0.081 A 
ATOM      2  C   UNL d   1     -42.270-122.344 -51.497  0.00  0.00     0.045 A 
ATOM      3  C   UNL d   1     -41.518-122.638 -51.656  0.00  0.00     0.112 A 
ATOM      4  C   UNL d   1     -42.652-122.532 -50.791  0.00  0.00     0.010 A 
ATOM      5  C   UNL d   1     -41.519-123.316 -50.406  0.00  0.00     0.087 A 
ATOM      6  N   UNL d   1     -41.141-123.125 -51.111  0.00  0.00    -0.239 NA
ATOM      7  C   UNL d   1     -41.125-123.816 -49.852  0.00  0.00     0.021 C 
ENDROOT
BRANCH   4   8
ATOM      8  C   UNL d   1     -43.391-122.242 -50.634  0.00  0.00     0.000 A 
ATOM      9  C   UNL d   1     -43.483-121.525 -50.238  0.00  0.00     0.001 A 
ATOM     10  C   UNL d   1     -44.222-121.235 -50.082  0.00  0.00     0.011 A 
ATOM     11  C   UNL d   1     -44.893-121.653 -50.316  0.00  0.00     0.058 A 
ATOM     12  C   UNL d   1     -44.801-122.370 -50.712  0.00  0.00     0.011 A 
ATOM     13 CL   UNL d   1     -45.645-121.358 -50.157  0.00  0.00    -0.082 Cl
ATOM     14  C   UNL d   1     -44.062-122.660 -50.869  0.00  0.00     0.001 A 
ENDBRANCH   4   8
BRANCH   2  15
ATOM     15  C   UNL d   1     -42.651-121.848 -52.053  0.00  0.00     0.124 C 
ATOM     16  N   UNL d   1     -42.204-121.269 -52.462  0.00  0.00    -0.146 N 
ENDBRANCH   2  15
BRANCH   1  17
ATOM     17  C   UNL d   1     -42.653-123.216 -49.528  0.00  0.00     0.302 C 
ATOM     18  O   UNL d   1     -43.259-123.773 -49.523  0.00  0.00    -0.259 OA
BRANCH  17  19
ATOM     19  O   UNL d   1     -42.412-122.841 -48.824  0.00  0.00    -0.271 OA
BRANCH  19  20
ATOM     20  C   UNL d   1     -42.481-123.226 -48.094  0.00  0.00     0.126 C 
BRANCH  20  21
ATOM     21  C   UNL d   1     -42.407-122.800 -47.394  0.00  0.00     0.027 C 
ATOM     22  C   UNL d   1     -42.441-123.183 -46.677  0.00  0.00     0.002 C 
ENDBRANCH  20  21
ENDBRANCH  19  20
ENDBRANCH  17  19
ENDBRANCH   1  17
BRANCH   3  23
ATOM     23  S   UNL d   1     -41.123-122.448 -52.377  0.00  0.00    -0.067 SA
BRANCH  23  24
ATOM     24  C   UNL d   1     -41.478-122.606 -53.102  0.00  0.00     0.037 C 
ATOM     25  C   UNL d   1     -41.131-122.344 -53.805  0.00  0.00     0.007 C 
ENDBRANCH  23  24
ENDBRANCH   3  23
TORSDOF 8
ENDMDL
