MODEL 1
REMARK VINA RESULT:     141.4      0.000      0.000
REMARK  4 active torsions:
REMARK  status: ('A' for Active; 'I' for Inactive)
REMARK    1  A    between atoms: N_10  and  C_3 
REMARK    2  A    between atoms: C_13  and  C_5 
REMARK    3  A    between atoms: C_12  and  C_9 
REMARK    4  A    between atoms: C_19  and  N_11 
ROOT
ATOM      1  N   UNL d   1      59.519  47.665  50.574  0.00  0.00    -0.196 N 
ATOM      2  C   UNL d   1      60.275  47.377  50.746  0.00  0.00     0.167 A 
ATOM      3  C   UNL d   1      59.348  48.448  50.727  0.00  0.00     0.152 A 
ATOM      4  N   UNL d   1      59.152  46.390  50.111  0.00  0.00    -0.163 NA
ATOM      5  C   UNL d   1      60.462  46.607  50.601  0.00  0.00     0.055 A 
ATOM      6  N   UNL d   1      60.841  47.878  51.067  0.00  0.00    -0.231 NA
ATOM      7  C   UNL d   1      59.916  48.952  51.049  0.00  0.00     0.052 A 
ATOM      8  C   UNL d   1      59.896  46.105  50.280  0.00  0.00     0.104 A 
ATOM      9  C   UNL d   1      60.660  48.668  51.219  0.00  0.00     0.063 A 
ATOM     10  C   UNL d   1      60.072  45.325  50.129  0.00  0.00     0.023 C 
ENDROOT
BRANCH   3  11
ATOM     11  N   UNL d   1      58.567  48.745  50.550  0.00  0.00    -0.286 N 
ATOM     12  C   UNL d   1      57.892  48.600  51.033  0.00  0.00     0.101 A 
ATOM     13  C   UNL d   1      57.143  48.918  50.812  0.00  0.00     0.100 A 
ATOM     14  N   UNL d   1      57.062  49.384  50.105  0.00  0.00    -0.300 N 
ATOM     15  C   UNL d   1      57.743  49.525  49.627  0.00  0.00     0.100 A 
ATOM     16  C   UNL d   1      58.505  49.205  49.846  0.00  0.00     0.101 A 
BRANCH  14  17
ATOM     17  C   UNL d   1      56.316  49.706  49.877  0.00  0.00     0.080 C 
ATOM     18  C   UNL d   1      56.066  49.633  49.071  0.00  0.00     0.021 C 
ENDBRANCH  14  17
ENDBRANCH   3  11
BRANCH   9  19
ATOM     19  C   UNL d   1      61.249  49.185  51.552  0.00  0.00     0.036 C 
ATOM     20  C   UNL d   1      61.833  49.698  51.875  0.00  0.00     0.006 C 
ATOM     21  C   UNL d   1      61.324  49.255  52.398  0.00  0.00     0.006 C 
ATOM     22  C   UNL d   1      61.756  49.626  51.032  0.00  0.00     0.006 C 
ENDBRANCH   9  19
BRANCH   5  23
ATOM     23  C   UNL d   1      61.212  46.321  50.772  0.00  0.00     0.004 A 
ATOM     24  C   UNL d   1      61.357  45.989  51.504  0.00  0.00     0.000 A 
ATOM     25  C   UNL d   1      62.114  45.701  51.676  0.00  0.00     0.000 A 
ATOM     26  C   UNL d   1      62.702  45.752  51.111  0.00  0.00     0.000 A 
ATOM     27  C   UNL d   1      62.542  46.087  50.380  0.00  0.00     0.000 A 
ATOM     28  C   UNL d   1      61.797  46.371  50.210  0.00  0.00     0.000 A 
ENDBRANCH   5  23
TORSDOF 4
ENDMDL
