MODEL 1
REMARK VINA RESULT:      -7.6      0.000      0.000
REMARK  7 active torsions:
REMARK  status: ('A' for Active; 'I' for Inactive)
REMARK    1  A    between atoms: C_2  and  S_1 
REMARK    2  A    between atoms: N_7  and  S_1 
REMARK    3  A    between atoms: O_11  and  C_6 
REMARK    4  A    between atoms: C_12  and  N_7 
REMARK    5  A    between atoms: O_13  and  C_9 
REMARK    6  A    between atoms: C_15  and  C_12 
REMARK    7  A    between atoms: C_14  and  C_15 
ROOT
ATOM      1  S   UNL d   1      51.952  33.653  53.265  0.00  0.00     0.287 S 
ATOM      2  O   UNL d   1      52.433  33.985  52.672  0.00  0.00    -0.198 OA
ATOM      3  O   UNL d   1      51.471  33.335  53.845  0.00  0.00    -0.198 OA
ENDROOT
BRANCH   1   4
ATOM      4  C   UNL d   1      52.500  33.041  53.370  0.00  0.00     0.129 A 
ATOM      5  C   UNL d   1      52.413  32.355  52.940  0.00  0.00     0.039 A 
ATOM      6  C   UNL d   1      52.955  31.742  53.039  0.00  0.00     0.095 A 
ATOM      7  C   UNL d   1      53.574  31.825  53.565  0.00  0.00     0.026 A 
ATOM      8  C   UNL d   1      53.666  32.522  54.005  0.00  0.00     0.027 A 
ATOM      9  C   UNL d   1      53.131  33.125  53.906  0.00  0.00     0.106 A 
BRANCH   6  10
ATOM     10  O   UNL d   1      52.874  31.038  52.605  0.00  0.00    -0.328 OA
ATOM     11  C   UNL d   1      52.943  30.327  52.980  0.00  0.00     0.181 C 
ENDBRANCH   6  10
BRANCH   9  12
ATOM     12  O   UNL d   1      53.226  33.814  54.343  0.00  0.00    -0.327 OA
ATOM     13  C   UNL d   1      53.834  33.861  54.891  0.00  0.00     0.181 C 
ENDBRANCH   9  12
ENDBRANCH   1   4
BRANCH   1  14
ATOM     14  N   UNL d   1      51.411  34.269  53.151  0.00  0.00    -0.157 NA
BRANCH  14  15
ATOM     15  C   UNL d   1      50.740  34.170  52.659  0.00  0.00     0.112 C 
BRANCH  15  16
ATOM     16  C   UNL d   1      50.088  34.676  52.720  0.00  0.00     0.021 C 
BRANCH  16  17
ATOM     17  C   UNL d   1      49.520  34.697  52.125  0.00  0.00     0.002 A 
ATOM     18  C   UNL d   1      49.672  34.348  51.395  0.00  0.00     0.000 A 
ATOM     19  C   UNL d   1      49.104  34.369  50.797  0.00  0.00     0.000 A 
ATOM     20  C   UNL d   1      48.375  34.744  50.933  0.00  0.00     0.000 A 
ATOM     21  C   UNL d   1      48.231  35.095  51.678  0.00  0.00     0.000 A 
ATOM     22  C   UNL d   1      48.791  35.072  52.261  0.00  0.00     0.000 A 
ENDBRANCH  16  17
ENDBRANCH  15  16
ENDBRANCH  14  15
ENDBRANCH   1  14
TORSDOF 7
ENDMDL
MODEL 2
REMARK VINA RESULT:      -7.5      1.592      4.715
REMARK  7 active torsions:
REMARK  status: ('A' for Active; 'I' for Inactive)
REMARK    1  A    between atoms: C_2  and  S_1 
REMARK    2  A    between atoms: N_7  and  S_1 
REMARK    3  A    between atoms: O_11  and  C_6 
REMARK    4  A    between atoms: C_12  and  N_7 
REMARK    5  A    between atoms: O_13  and  C_9 
REMARK    6  A    between atoms: C_15  and  C_12 
REMARK    7  A    between atoms: C_14  and  C_15 
ROOT
ATOM      1  S   UNL d   1      52.538  32.725  52.931  0.00  0.00     0.287 S 
ATOM      2  O   UNL d   1      53.262  32.869  52.546  0.00  0.00    -0.198 OA
ATOM      3  O   UNL d   1      51.827  32.573  53.305  0.00  0.00    -0.198 OA
ENDROOT
BRANCH   1   4
ATOM      4  C   UNL d   1      52.506  33.517  53.172  0.00  0.00     0.129 A 
ATOM      5  C   UNL d   1      52.962  33.756  53.803  0.00  0.00     0.039 A 
ATOM      6  C   UNL d   1      52.935  34.542  54.048  0.00  0.00     0.095 A 
ATOM      7  C   UNL d   1      52.455  35.076  53.658  0.00  0.00     0.026 A 
ATOM      8  C   UNL d   1      51.989  34.836  53.015  0.00  0.00     0.027 A 
ATOM      9  C   UNL d   1      52.017  34.060  52.776  0.00  0.00     0.106 A 
BRANCH   6  10
ATOM     10  O   UNL d   1      53.397  34.796  54.691  0.00  0.00    -0.328 OA
ATOM     11  C   UNL d   1      53.314  35.548  54.970  0.00  0.00     0.181 C 
ENDBRANCH   6  10
BRANCH   9  12
ATOM     12  O   UNL d   1      51.554  33.827  52.138  0.00  0.00    -0.327 OA
ATOM     13  C   UNL d   1      51.016  34.357  51.817  0.00  0.00     0.181 C 
ENDBRANCH   9  12
ENDBRANCH   1   4
BRANCH   1  14
ATOM     14  N   UNL d   1      52.580  31.936  52.685  0.00  0.00    -0.157 NA
BRANCH  14  15
ATOM     15  C   UNL d   1      52.891  31.342  53.188  0.00  0.00     0.112 C 
BRANCH  15  16
ATOM     16  C   UNL d   1      52.939  30.555  52.939  0.00  0.00     0.021 C 
BRANCH  16  17
ATOM     17  C   UNL d   1      53.066  29.953  53.485  0.00  0.00     0.002 A 
ATOM     18  C   UNL d   1      53.801  29.870  53.848  0.00  0.00     0.000 A 
ATOM     19  C   UNL d   1      53.929  29.267  54.396  0.00  0.00     0.000 A 
ATOM     20  C   UNL d   1      53.314  28.740  54.582  0.00  0.00     0.000 A 
ATOM     21  C   UNL d   1      52.572  28.832  54.207  0.00  0.00     0.000 A 
ATOM     22  C   UNL d   1      52.451  29.426  53.671  0.00  0.00     0.000 A 
ENDBRANCH  16  17
ENDBRANCH  15  16
ENDBRANCH  14  15
ENDBRANCH   1  14
TORSDOF 7
ENDMDL
MODEL 3
REMARK VINA RESULT:      -7.2      0.732      1.977
REMARK  7 active torsions:
REMARK  status: ('A' for Active; 'I' for Inactive)
REMARK    1  A    between atoms: C_2  and  S_1 
REMARK    2  A    between atoms: N_7  and  S_1 
REMARK    3  A    between atoms: O_11  and  C_6 
REMARK    4  A    between atoms: C_12  and  N_7 
REMARK    5  A    between atoms: O_13  and  C_9 
REMARK    6  A    between atoms: C_15  and  C_12 
REMARK    7  A    between atoms: C_14  and  C_15 
ROOT
ATOM      1  S   UNL d   1      52.329  32.942  52.971  0.00  0.00     0.287 S 
ATOM      2  O   UNL d   1      52.892  33.129  52.386  0.00  0.00    -0.198 OA
ATOM      3  O   UNL d   1      51.768  32.761  53.537  0.00  0.00    -0.198 OA
ENDROOT
BRANCH   1   4
ATOM      4  C   UNL d   1      52.938  32.742  53.495  0.00  0.00     0.129 A 
ATOM      5  C   UNL d   1      53.259  33.323  53.967  0.00  0.00     0.039 A 
ATOM      6  C   UNL d   1      53.865  33.131  54.490  0.00  0.00     0.095 A 
ATOM      7  C   UNL d   1      54.140  32.363  54.535  0.00  0.00     0.026 A 
ATOM      8  C   UNL d   1      53.816  31.769  54.056  0.00  0.00     0.027 A 
ATOM      9  C   UNL d   1      53.218  31.960  53.540  0.00  0.00     0.106 A 
BRANCH   6  10
ATOM     10  O   UNL d   1      54.200  33.717  54.976  0.00  0.00    -0.328 OA
ATOM     11  C   UNL d   1      54.927  33.597  55.304  0.00  0.00     0.181 C 
ENDBRANCH   6  10
BRANCH   9  12
ATOM     12  O   UNL d   1      52.899  31.368  53.068  0.00  0.00    -0.327 OA
ATOM     13  C   UNL d   1      53.176  30.600  53.145  0.00  0.00     0.181 C 
ENDBRANCH   9  12
ENDBRANCH   1   4
BRANCH   1  14
ATOM     14  N   UNL d   1      51.729  33.144  52.438  0.00  0.00    -0.157 NA
BRANCH  14  15
ATOM     15  C   UNL d   1      51.192  33.765  52.607  0.00  0.00     0.112 C 
BRANCH  15  16
ATOM     16  C   UNL d   1      50.799  34.167  52.000  0.00  0.00     0.021 C 
BRANCH  16  17
ATOM     17  C   UNL d   1      50.055  34.494  52.130  0.00  0.00     0.002 A 
ATOM     18  C   UNL d   1      49.884  34.860  52.848  0.00  0.00     0.000 A 
ATOM     19  C   UNL d   1      49.139  35.189  52.980  0.00  0.00     0.000 A 
ATOM     20  C   UNL d   1      48.559  35.150  52.386  0.00  0.00     0.000 A 
ATOM     21  C   UNL d   1      48.744  34.776  51.661  0.00  0.00     0.000 A 
ATOM     22  C   UNL d   1      49.476  34.456  51.536  0.00  0.00     0.000 A 
ENDBRANCH  16  17
ENDBRANCH  15  16
ENDBRANCH  14  15
ENDBRANCH   1  14
TORSDOF 7
ENDMDL
MODEL 4
REMARK VINA RESULT:      -7.0      1.121      2.355
REMARK  7 active torsions:
REMARK  status: ('A' for Active; 'I' for Inactive)
REMARK    1  A    between atoms: C_2  and  S_1 
REMARK    2  A    between atoms: N_7  and  S_1 
REMARK    3  A    between atoms: O_11  and  C_6 
REMARK    4  A    between atoms: C_12  and  N_7 
REMARK    5  A    between atoms: O_13  and  C_9 
REMARK    6  A    between atoms: C_15  and  C_12 
REMARK    7  A    between atoms: C_14  and  C_15 
ROOT
ATOM      1  S   UNL d   1      51.200  34.027  52.812  0.00  0.00     0.287 S 
ATOM      2  O   UNL d   1      51.552  34.385  52.148  0.00  0.00    -0.198 OA
ATOM      3  O   UNL d   1      50.843  33.675  53.458  0.00  0.00    -0.198 OA
ENDROOT
BRANCH   1   4
ATOM      4  C   UNL d   1      51.932  34.018  53.198  0.00  0.00     0.129 A 
ATOM      5  C   UNL d   1      52.185  34.692  53.580  0.00  0.00     0.039 A 
ATOM      6  C   UNL d   1      52.912  34.691  53.966  0.00  0.00     0.095 A 
ATOM      7  C   UNL d   1      53.374  34.018  53.966  0.00  0.00     0.026 A 
ATOM      8  C   UNL d   1      53.121  33.329  53.578  0.00  0.00     0.027 A 
ATOM      9  C   UNL d   1      52.403  33.333  53.198  0.00  0.00     0.106 A 
BRANCH   6  10
ATOM     10  O   UNL d   1      53.179  35.374  54.358  0.00  0.00    -0.328 OA
ATOM     11  C   UNL d   1      53.466  35.317  55.110  0.00  0.00     0.181 C 
ENDBRANCH   6  10
BRANCH   9  12
ATOM     12  O   UNL d   1      52.155  32.649  52.815  0.00  0.00    -0.327 OA
ATOM     13  C   UNL d   1      52.618  31.973  52.861  0.00  0.00     0.181 C 
ENDBRANCH   9  12
ENDBRANCH   1   4
BRANCH   1  14
ATOM     14  N   UNL d   1      50.473  34.040  52.415  0.00  0.00    -0.157 NA
BRANCH  14  15
ATOM     15  C   UNL d   1      49.883  34.602  52.614  0.00  0.00     0.112 C 
BRANCH  15  16
ATOM     16  C   UNL d   1      49.152  34.607  52.226  0.00  0.00     0.021 C 
BRANCH  16  17
ATOM     17  C   UNL d   1      48.606  35.203  52.376  0.00  0.00     0.002 A 
ATOM     18  C   UNL d   1      48.581  35.566  53.115  0.00  0.00     0.000 A 
ATOM     19  C   UNL d   1      48.033  36.164  53.267  0.00  0.00     0.000 A 
ATOM     20  C   UNL d   1      47.504  36.401  52.672  0.00  0.00     0.000 A 
ATOM     21  C   UNL d   1      47.538  36.026  51.924  0.00  0.00     0.000 A 
ATOM     22  C   UNL d   1      48.077  35.440  51.781  0.00  0.00     0.000 A 
ENDBRANCH  16  17
ENDBRANCH  15  16
ENDBRANCH  14  15
ENDBRANCH   1  14
TORSDOF 7
ENDMDL
MODEL 5
REMARK VINA RESULT:      -5.2      9.806     10.845
REMARK  7 active torsions:
REMARK  status: ('A' for Active; 'I' for Inactive)
REMARK    1  A    between atoms: C_2  and  S_1 
REMARK    2  A    between atoms: N_7  and  S_1 
REMARK    3  A    between atoms: O_11  and  C_6 
REMARK    4  A    between atoms: C_12  and  N_7 
REMARK    5  A    between atoms: O_13  and  C_9 
REMARK    6  A    between atoms: C_15  and  C_12 
REMARK    7  A    between atoms: C_14  and  C_15 
ROOT
ATOM      1  S   UNL d   1      45.103  29.364  58.586  0.00  0.00     0.287 S 
ATOM      2  O   UNL d   1      44.320  29.085  58.548  0.00  0.00    -0.198 OA
ATOM      3  O   UNL d   1      45.876  29.628  58.618  0.00  0.00    -0.198 OA
ENDROOT
BRANCH   1   4
ATOM      4  C   UNL d   1      44.854  30.006  59.046  0.00  0.00     0.129 A 
ATOM      5  C   UNL d   1      44.711  29.893  59.839  0.00  0.00     0.039 A 
ATOM      6  C   UNL d   1      44.463  30.527  60.302  0.00  0.00     0.095 A 
ATOM      7  C   UNL d   1      44.363  31.265  59.964  0.00  0.00     0.026 A 
ATOM      8  C   UNL d   1      44.508  31.385  59.156  0.00  0.00     0.027 A 
ATOM      9  C   UNL d   1      44.752  30.757  58.702  0.00  0.00     0.106 A 
BRANCH   6  10
ATOM     10  O   UNL d   1      44.314  30.421  61.113  0.00  0.00    -0.328 OA
ATOM     11  C   UNL d   1      44.567  30.976  61.641  0.00  0.00     0.181 C 
ENDBRANCH   6  10
BRANCH   9  12
ATOM     12  O   UNL d   1      44.894  30.880  57.902  0.00  0.00    -0.327 OA
ATOM     13  C   UNL d   1      44.737  31.616  57.575  0.00  0.00     0.181 C 
ENDBRANCH   9  12
ENDBRANCH   1   4
BRANCH   1  14
ATOM     14  N   UNL d   1      45.340  28.717  58.127  0.00  0.00    -0.157 NA
BRANCH  14  15
ATOM     15  C   UNL d   1      45.111  27.937  58.329  0.00  0.00     0.112 C 
BRANCH  15  16
ATOM     16  C   UNL d   1      45.453  27.282  57.956  0.00  0.00     0.021 C 
BRANCH  16  17
ATOM     17  C   UNL d   1      45.106  26.539  58.019  0.00  0.00     0.002 A 
ATOM     18  C   UNL d   1      45.058  26.165  58.751  0.00  0.00     0.000 A 
ATOM     19  C   UNL d   1      44.710  25.419  58.816  0.00  0.00     0.000 A 
ATOM     20  C   UNL d   1      44.408  25.044  58.139  0.00  0.00     0.000 A 
ATOM     21  C   UNL d   1      44.462  25.433  57.400  0.00  0.00     0.000 A 
ATOM     22  C   UNL d   1      44.804  26.164  57.342  0.00  0.00     0.000 A 
ENDBRANCH  16  17
ENDBRANCH  15  16
ENDBRANCH  14  15
ENDBRANCH   1  14
TORSDOF 7
ENDMDL
MODEL 6
REMARK VINA RESULT:      -5.0     10.049     10.678
REMARK  7 active torsions:
REMARK  status: ('A' for Active; 'I' for Inactive)
REMARK    1  A    between atoms: C_2  and  S_1 
REMARK    2  A    between atoms: N_7  and  S_1 
REMARK    3  A    between atoms: O_11  and  C_6 
REMARK    4  A    between atoms: C_12  and  N_7 
REMARK    5  A    between atoms: O_13  and  C_9 
REMARK    6  A    between atoms: C_15  and  C_12 
REMARK    7  A    between atoms: C_14  and  C_15 
ROOT
ATOM      1  S   UNL d   1      45.145  29.489  58.687  0.00  0.00     0.287 S 
ATOM      2  O   UNL d   1      45.956  29.512  58.498  0.00  0.00    -0.198 OA
ATOM      3  O   UNL d   1      44.351  29.475  58.881  0.00  0.00    -0.198 OA
ENDROOT
BRANCH   1   4
ATOM      4  C   UNL d   1      45.020  28.928  58.090  0.00  0.00     0.129 A 
ATOM      5  C   UNL d   1      45.140  28.141  58.257  0.00  0.00     0.039 A 
ATOM      6  C   UNL d   1      45.017  27.577  57.669  0.00  0.00     0.095 A 
ATOM      7  C   UNL d   1      44.777  27.810  56.924  0.00  0.00     0.026 A 
ATOM      8  C   UNL d   1      44.654  28.612  56.749  0.00  0.00     0.027 A 
ATOM      9  C   UNL d   1      44.775  29.165  57.331  0.00  0.00     0.106 A 
BRANCH   6  10
ATOM     10  O   UNL d   1      45.137  26.771  57.831  0.00  0.00    -0.328 OA
ATOM     11  C   UNL d   1      45.623  26.336  57.355  0.00  0.00     0.181 C 
ENDBRANCH   6  10
BRANCH   9  12
ATOM     12  O   UNL d   1      44.652  29.958  57.154  0.00  0.00    -0.327 OA
ATOM     13  C   UNL d   1      44.328  30.162  56.429  0.00  0.00     0.181 C 
ENDBRANCH   9  12
ENDBRANCH   1   4
BRANCH   1  14
ATOM     14  N   UNL d   1      45.282  30.050  59.280  0.00  0.00    -0.157 NA
BRANCH  14  15
ATOM     15  C   UNL d   1      45.054  29.904  60.073  0.00  0.00     0.112 C 
BRANCH  15  16
ATOM     16  C   UNL d   1      45.250  30.435  60.677  0.00  0.00     0.021 C 
BRANCH  16  17
ATOM     17  C   UNL d   1      44.939  30.338  61.433  0.00  0.00     0.002 A 
ATOM     18  C   UNL d   1      44.627  30.983  61.838  0.00  0.00     0.000 A 
ATOM     19  C   UNL d   1      44.315  30.888  62.596  0.00  0.00     0.000 A 
ATOM     20  C   UNL d   1      44.316  30.137  62.952  0.00  0.00     0.000 A 
ATOM     21  C   UNL d   1      44.636  29.488  62.531  0.00  0.00     0.000 A 
ATOM     22  C   UNL d   1      44.940  29.587  61.788  0.00  0.00     0.000 A 
ENDBRANCH  16  17
ENDBRANCH  15  16
ENDBRANCH  14  15
ENDBRANCH   1  14
TORSDOF 7
ENDMDL
MODEL 7
REMARK VINA RESULT:      -4.9     10.233     11.280
REMARK  7 active torsions:
REMARK  status: ('A' for Active; 'I' for Inactive)
REMARK    1  A    between atoms: C_2  and  S_1 
REMARK    2  A    between atoms: N_7  and  S_1 
REMARK    3  A    between atoms: O_11  and  C_6 
REMARK    4  A    between atoms: C_12  and  N_7 
REMARK    5  A    between atoms: O_13  and  C_9 
REMARK    6  A    between atoms: C_15  and  C_12 
REMARK    7  A    between atoms: C_14  and  C_15 
ROOT
ATOM      1  S   UNL d   1      45.147  26.785  56.831  0.00  0.00     0.287 S 
ATOM      2  O   UNL d   1      44.318  26.794  56.753  0.00  0.00    -0.198 OA
ATOM      3  O   UNL d   1      45.961  26.769  56.899  0.00  0.00    -0.198 OA
ENDROOT
BRANCH   1   4
ATOM      4  C   UNL d   1      45.093  27.294  57.481  0.00  0.00     0.129 A 
ATOM      5  C   UNL d   1      45.052  26.977  58.230  0.00  0.00     0.039 A 
ATOM      6  C   UNL d   1      44.998  27.478  58.881  0.00  0.00     0.095 A 
ATOM      7  C   UNL d   1      44.986  28.288  58.774  0.00  0.00     0.026 A 
ATOM      8  C   UNL d   1      45.028  28.616  58.013  0.00  0.00     0.027 A 
ATOM      9  C   UNL d   1      45.081  28.119  57.372  0.00  0.00     0.106 A 
BRANCH   6  10
ATOM     10  O   UNL d   1      44.955  27.163  59.649  0.00  0.00    -0.328 OA
ATOM     11  C   UNL d   1      44.466  27.502  60.194  0.00  0.00     0.181 C 
ENDBRANCH   6  10
BRANCH   9  12
ATOM     12  O   UNL d   1      45.122  28.448  56.620  0.00  0.00    -0.327 OA
ATOM     13  C   UNL d   1      45.000  29.254  56.527  0.00  0.00     0.181 C 
ENDBRANCH   9  12
ENDBRANCH   1   4
BRANCH   1  14
ATOM     14  N   UNL d   1      45.188  26.275  56.180  0.00  0.00    -0.157 NA
BRANCH  14  15
ATOM     15  C   UNL d   1      44.979  25.467  56.250  0.00  0.00     0.112 C 
BRANCH  15  16
ATOM     16  C   UNL d   1      44.960  24.972  55.587  0.00  0.00     0.021 C 
BRANCH  16  17
ATOM     17  C   UNL d   1      44.858  24.161  55.675  0.00  0.00     0.002 A 
ATOM     18  C   UNL d   1      44.785  23.832  56.427  0.00  0.00     0.000 A 
ATOM     19  C   UNL d   1      44.683  23.018  56.517  0.00  0.00     0.000 A 
ATOM     20  C   UNL d   1      44.653  22.528  55.846  0.00  0.00     0.000 A 
ATOM     21  C   UNL d   1      44.728  22.873  55.087  0.00  0.00     0.000 A 
ATOM     22  C   UNL d   1      44.828  23.671  55.005  0.00  0.00     0.000 A 
ENDBRANCH  16  17
ENDBRANCH  15  16
ENDBRANCH  14  15
ENDBRANCH   1  14
TORSDOF 7
ENDMDL
MODEL 8
REMARK VINA RESULT:      -4.7      9.056     10.192
REMARK  7 active torsions:
REMARK  status: ('A' for Active; 'I' for Inactive)
REMARK    1  A    between atoms: C_2  and  S_1 
REMARK    2  A    between atoms: N_7  and  S_1 
REMARK    3  A    between atoms: O_11  and  C_6 
REMARK    4  A    between atoms: C_12  and  N_7 
REMARK    5  A    between atoms: O_13  and  C_9 
REMARK    6  A    between atoms: C_15  and  C_12 
REMARK    7  A    between atoms: C_14  and  C_15 
ROOT
ATOM      1  S   UNL d   1      45.103  29.495  58.345  0.00  0.00     0.287 S 
ATOM      2  O   UNL d   1      44.319  29.218  58.305  0.00  0.00    -0.198 OA
ATOM      3  O   UNL d   1      45.876  29.757  58.388  0.00  0.00    -0.198 OA
ENDROOT
BRANCH   1   4
ATOM      4  C   UNL d   1      44.846  30.257  58.145  0.00  0.00     0.129 A 
ATOM      5  C   UNL d   1      44.714  30.436  57.362  0.00  0.00     0.039 A 
ATOM      6  C   UNL d   1      44.458  31.191  57.156  0.00  0.00     0.095 A 
ATOM      7  C   UNL d   1      44.339  31.755  57.735  0.00  0.00     0.026 A 
ATOM      8  C   UNL d   1      44.472  31.576  58.534  0.00  0.00     0.027 A 
ATOM      9  C   UNL d   1      44.724  30.831  58.735  0.00  0.00     0.106 A 
BRANCH   6  10
ATOM     10  O   UNL d   1      44.321  31.384  56.359  0.00  0.00    -0.328 OA
ATOM     11  C   UNL d   1      44.466  32.133  56.098  0.00  0.00     0.181 C 
ENDBRANCH   6  10
BRANCH   9  12
ATOM     12  O   UNL d   1      44.854  30.658  59.528  0.00  0.00    -0.327 OA
ATOM     13  C   UNL d   1      44.571  31.170  60.102  0.00  0.00     0.181 C 
ENDBRANCH   9  12
ENDBRANCH   1   4
BRANCH   1  14
ATOM     14  N   UNL d   1      45.348  28.730  58.545  0.00  0.00    -0.157 NA
BRANCH  14  15
ATOM     15  C   UNL d   1      45.089  28.065  58.105  0.00  0.00     0.112 C 
BRANCH  15  16
ATOM     16  C   UNL d   1      45.490  27.343  58.148  0.00  0.00     0.021 C 
BRANCH  16  17
ATOM     17  C   UNL d   1      45.254  26.707  57.683  0.00  0.00     0.002 A 
ATOM     18  C   UNL d   1      45.025  25.999  58.034  0.00  0.00     0.000 A 
ATOM     19  C   UNL d   1      44.788  25.360  57.568  0.00  0.00     0.000 A 
ATOM     20  C   UNL d   1      44.780  25.433  56.741  0.00  0.00     0.000 A 
ATOM     21  C   UNL d   1      45.014  26.157  56.394  0.00  0.00     0.000 A 
ATOM     22  C   UNL d   1      45.246  26.780  56.855  0.00  0.00     0.000 A 
ENDBRANCH  16  17
ENDBRANCH  15  16
ENDBRANCH  14  15
ENDBRANCH   1  14
TORSDOF 7
ENDMDL
