MODEL 1
REMARK VINA RESULT:      -4.1      0.000      0.000
REMARK  3 active torsions:
REMARK  status: ('A' for Active; 'I' for Inactive)
REMARK    1  A    between atoms: S_15  and  C_3 
REMARK    2  A    between atoms: C_5  and  C_14 
REMARK    3  A    between atoms: C_14  and  S_15 
ROOT
ATOM      1  N   UNL d   1     -42.544-123.177 -49.422  0.00  0.00    -0.263 N 
ATOM      2  C   UNL d   1     -43.238-123.609 -49.247  0.00  0.00     0.202 A 
ATOM      3  C   UNL d   1     -42.565-123.022 -50.233  0.00  0.00     0.202 A 
ATOM      4  N   UNL d   1     -43.648-123.692 -49.972  0.00  0.00    -0.121 NA
ATOM      5  S   UNL d   1     -43.255-123.787 -48.429  0.00  0.00    -0.047 SA
ATOM      6  N   UNL d   1     -43.264-123.353 -50.555  0.00  0.00    -0.121 NA
ATOM      7  C   UNL d   1     -42.141-123.095 -48.712  0.00  0.00     0.074 A 
ATOM      8  C   UNL d   1     -42.574-123.466 -48.107  0.00  0.00     0.049 A 
ATOM      9  C   UNL d   1     -41.425-122.725 -48.531  0.00  0.00     0.018 A 
ATOM     10  C   UNL d   1     -42.282-123.459 -47.335  0.00  0.00     0.008 A 
ATOM     11  C   UNL d   1     -41.128-122.716 -47.754  0.00  0.00     0.002 A 
ATOM     12  C   UNL d   1     -41.561-123.088 -47.149  0.00  0.00     0.001 A 
ENDROOT
BRANCH   3  13
ATOM     13  S   UNL d   1     -41.956-122.580 -50.699  0.00  0.00    -0.048 SA
BRANCH  13  14
ATOM     14  C   UNL d   1     -41.539-122.960 -51.289  0.00  0.00     0.042 C 
BRANCH  14  15
ATOM     15  C   UNL d   1     -41.379-122.556 -51.979  0.00  0.00     0.051 A 
ATOM     16  C   UNL d   1     -41.266-121.759 -52.157  0.00  0.00     0.127 A 
ATOM     17  O   UNL d   1     -41.123-121.680 -52.950  0.00  0.00    -0.211 OA
ATOM     18  C   UNL d   1     -41.297-121.104 -51.578  0.00  0.00     0.029 C 
ATOM     19  N   UNL d   1     -41.142-122.395 -53.271  0.00  0.00    -0.126 NA
ATOM     20  C   UNL d   1     -41.301-122.960 -52.688  0.00  0.00     0.111 A 
ATOM     21  C   UNL d   1     -41.369-123.775 -52.783  0.00  0.00     0.023 C 
ENDBRANCH  14  15
ENDBRANCH  13  14
ENDBRANCH   3  13
TORSDOF 3
ENDMDL
MODEL 2
REMARK VINA RESULT:      -3.8      2.007      3.064
REMARK  3 active torsions:
REMARK  status: ('A' for Active; 'I' for Inactive)
REMARK    1  A    between atoms: S_15  and  C_3 
REMARK    2  A    between atoms: C_5  and  C_14 
REMARK    3  A    between atoms: C_14  and  S_15 
ROOT
ATOM      1  N   UNL d   1     -41.334-121.914 -51.609  0.00  0.00    -0.263 N 
ATOM      2  C   UNL d   1     -41.236-121.206 -51.174  0.00  0.00     0.202 A 
ATOM      3  C   UNL d   1     -41.277-121.706 -52.406  0.00  0.00     0.202 A 
ATOM      4  N   UNL d   1     -41.123-120.600 -51.740  0.00  0.00    -0.121 NA
ATOM      5  S   UNL d   1     -41.288-121.375 -50.355  0.00  0.00    -0.047 SA
ATOM      6  N   UNL d   1     -41.145-120.882 -52.464  0.00  0.00    -0.121 NA
ATOM      7  C   UNL d   1     -41.445-122.509 -51.054  0.00  0.00     0.074 A 
ATOM      8  C   UNL d   1     -41.417-122.180 -50.291  0.00  0.00     0.049 A 
ATOM      9  C   UNL d   1     -41.571-123.320 -51.143  0.00  0.00     0.018 A 
ATOM     10  C   UNL d   1     -41.515-122.671 -49.634  0.00  0.00     0.008 A 
ATOM     11  C   UNL d   1     -41.670-123.817 -50.483  0.00  0.00     0.002 A 
ATOM     12  C   UNL d   1     -41.641-123.488 -49.719  0.00  0.00     0.001 A 
ENDROOT
BRANCH   3  13
ATOM     13  S   UNL d   1     -41.343-122.255 -53.097  0.00  0.00    -0.048 SA
BRANCH  13  14
ATOM     14  C   UNL d   1     -41.384-121.954 -53.855  0.00  0.00     0.042 C 
BRANCH  14  15
ATOM     15  C   UNL d   1     -41.635-122.441 -54.458  0.00  0.00     0.051 A 
ATOM     16  C   UNL d   1     -41.555-123.249 -54.606  0.00  0.00     0.127 A 
ATOM     17  O   UNL d   1     -41.924-123.430 -55.304  0.00  0.00    -0.211 OA
ATOM     18  C   UNL d   1     -41.136-123.817 -54.088  0.00  0.00     0.029 C 
ATOM     19  N   UNL d   1     -42.229-122.770 -55.594  0.00  0.00    -0.126 NA
ATOM     20  C   UNL d   1     -42.063-122.138 -55.087  0.00  0.00     0.111 A 
ATOM     21  C   UNL d   1     -42.280-121.349 -55.180  0.00  0.00     0.023 C 
ENDBRANCH  14  15
ENDBRANCH  13  14
ENDBRANCH   3  13
TORSDOF 3
ENDMDL
MODEL 3
REMARK VINA RESULT:      -3.8      1.705      4.541
REMARK  3 active torsions:
REMARK  status: ('A' for Active; 'I' for Inactive)
REMARK    1  A    between atoms: S_15  and  C_3 
REMARK    2  A    between atoms: C_5  and  C_14 
REMARK    3  A    between atoms: C_14  and  S_15 
ROOT
ATOM      1  N   UNL d   1     -41.548-122.137 -52.554  0.00  0.00    -0.263 N 
ATOM      2  C   UNL d   1     -41.255-121.423 -52.874  0.00  0.00     0.202 A 
ATOM      3  C   UNL d   1     -41.580-122.029 -51.735  0.00  0.00     0.202 A 
ATOM      4  N   UNL d   1     -41.123-120.914 -52.222  0.00  0.00    -0.121 NA
ATOM      5  S   UNL d   1     -41.208-121.491 -53.707  0.00  0.00    -0.047 SA
ATOM      6  N   UNL d   1     -41.309-121.259 -51.552  0.00  0.00    -0.121 NA
ATOM      7  C   UNL d   1     -41.679-122.637 -53.191  0.00  0.00     0.074 A 
ATOM      8  C   UNL d   1     -41.471-122.243 -53.894  0.00  0.00     0.049 A 
ATOM      9  C   UNL d   1     -41.963-123.411 -53.228  0.00  0.00     0.018 A 
ATOM     10  C   UNL d   1     -41.553-122.633 -54.617  0.00  0.00     0.008 A 
ATOM     11  C   UNL d   1     -42.047-123.807 -53.955  0.00  0.00     0.002 A 
ATOM     12  C   UNL d   1     -41.839-123.413 -54.658  0.00  0.00     0.001 A 
ENDROOT
BRANCH   3  13
ATOM     13  S   UNL d   1     -41.852-122.623 -51.137  0.00  0.00    -0.048 SA
BRANCH  13  14
ATOM     14  C   UNL d   1     -41.863-122.427 -50.345  0.00  0.00     0.042 C 
BRANCH  14  15
ATOM     15  C   UNL d   1     -42.311-122.878 -49.836  0.00  0.00     0.051 A 
ATOM     16  C   UNL d   1     -43.124-122.963 -49.717  0.00  0.00     0.127 A 
ATOM     17  O   UNL d   1     -43.253-123.499 -49.125  0.00  0.00    -0.211 OA
ATOM     18  C   UNL d   1     -43.745-122.537 -50.164  0.00  0.00     0.029 C 
ATOM     19  N   UNL d   1     -42.556-123.751 -48.871  0.00  0.00    -0.126 NA
ATOM     20  C   UNL d   1     -41.951-123.380 -49.297  0.00  0.00     0.111 A 
ATOM     21  C   UNL d   1     -41.139-123.484 -49.210  0.00  0.00     0.023 C 
ENDBRANCH  14  15
ENDBRANCH  13  14
ENDBRANCH   3  13
TORSDOF 3
ENDMDL
MODEL 4
REMARK VINA RESULT:      -2.7      2.152      4.912
REMARK  3 active torsions:
REMARK  status: ('A' for Active; 'I' for Inactive)
REMARK    1  A    between atoms: S_15  and  C_3 
REMARK    2  A    between atoms: C_5  and  C_14 
REMARK    3  A    between atoms: C_14  and  S_15 
ROOT
ATOM      1  N   UNL d   1     -41.704-122.620 -53.907  0.00  0.00    -0.263 N 
ATOM      2  C   UNL d   1     -41.453-123.186 -54.468  0.00  0.00     0.202 A 
ATOM      3  C   UNL d   1     -41.518-122.930 -53.165  0.00  0.00     0.202 A 
ATOM      4  N   UNL d   1     -41.123-123.817 -54.029  0.00  0.00    -0.121 NA
ATOM      5  S   UNL d   1     -41.625-122.908 -55.239  0.00  0.00    -0.047 SA
ATOM      6  N   UNL d   1     -41.155-123.678 -53.265  0.00  0.00    -0.121 NA
ATOM      7  C   UNL d   1     -42.028-122.000 -54.337  0.00  0.00     0.074 A 
ATOM      8  C   UNL d   1     -41.980-122.176 -55.149  0.00  0.00     0.049 A 
ATOM      9  C   UNL d   1     -42.367-121.287 -54.095  0.00  0.00     0.018 A 
ATOM     10  C   UNL d   1     -42.271-121.634 -55.699  0.00  0.00     0.008 A 
ATOM     11  C   UNL d   1     -42.661-120.739 -54.647  0.00  0.00     0.002 A 
ATOM     12  C   UNL d   1     -42.613-120.914 -55.459  0.00  0.00     0.001 A 
ENDROOT
BRANCH   3  13
ATOM     13  S   UNL d   1     -41.670-122.546 -52.382  0.00  0.00    -0.048 SA
BRANCH  13  14
ATOM     14  C   UNL d   1     -41.277-122.809 -51.716  0.00  0.00     0.042 C 
BRANCH  14  15
ATOM     15  C   UNL d   1     -41.478-122.492 -50.992  0.00  0.00     0.051 A 
ATOM     16  C   UNL d   1     -41.444-121.731 -50.676  0.00  0.00     0.127 A 
ATOM     17  O   UNL d   1     -41.722-121.745 -49.915  0.00  0.00    -0.211 OA
ATOM     18  C   UNL d   1     -41.152-121.023 -51.099  0.00  0.00     0.029 C 
ATOM     19  N   UNL d   1     -41.928-122.482 -49.747  0.00  0.00    -0.126 NA
ATOM     20  C   UNL d   1     -41.786-122.969 -50.401  0.00  0.00     0.111 A 
ATOM     21  C   UNL d   1     -41.922-123.778 -50.462  0.00  0.00     0.023 C 
ENDBRANCH  14  15
ENDBRANCH  13  14
ENDBRANCH   3  13
TORSDOF 3
ENDMDL
MODEL 5
REMARK VINA RESULT:      -1.2      1.739      4.075
REMARK  3 active torsions:
REMARK  status: ('A' for Active; 'I' for Inactive)
REMARK    1  A    between atoms: S_15  and  C_3 
REMARK    2  A    between atoms: C_5  and  C_14 
REMARK    3  A    between atoms: C_14  and  S_15 
ROOT
ATOM      1  N   UNL d   1     -41.567-122.494 -51.267  0.00  0.00    -0.263 N 
ATOM      2  C   UNL d   1     -41.534-122.883 -52.007  0.00  0.00     0.202 A 
ATOM      3  C   UNL d   1     -41.724-123.077 -50.704  0.00  0.00     0.202 A 
ATOM      4  N   UNL d   1     -41.676-123.692 -51.849  0.00  0.00    -0.121 NA
ATOM      5  S   UNL d   1     -41.375-122.322 -52.608  0.00  0.00    -0.047 SA
ATOM      6  N   UNL d   1     -41.789-123.817 -51.090  0.00  0.00    -0.121 NA
ATOM      7  C   UNL d   1     -41.428-121.699 -51.421  0.00  0.00     0.074 A 
ATOM      8  C   UNL d   1     -41.311-121.595 -52.238  0.00  0.00     0.049 A 
ATOM      9  C   UNL d   1     -41.391-121.045 -50.918  0.00  0.00     0.018 A 
ATOM     10  C   UNL d   1     -41.160-120.839 -52.533  0.00  0.00     0.008 A 
ATOM     11  C   UNL d   1     -41.239-120.282 -51.212  0.00  0.00     0.002 A 
ATOM     12  C   UNL d   1     -41.123-120.177 -52.029  0.00  0.00     0.001 A 
ENDROOT
BRANCH   3  13
ATOM     13  S   UNL d   1     -41.814-122.955 -49.832  0.00  0.00    -0.048 SA
BRANCH  13  14
ATOM     14  C   UNL d   1     -42.236-123.493 -49.386  0.00  0.00     0.042 C 
BRANCH  14  15
ATOM     15  C   UNL d   1     -42.432-123.299 -48.620  0.00  0.00     0.051 A 
ATOM     16  C   UNL d   1     -41.991-123.198 -47.929  0.00  0.00     0.127 A 
ATOM     17  O   UNL d   1     -42.488-123.003 -47.321  0.00  0.00    -0.211 OA
ATOM     18  C   UNL d   1     -41.123-123.290 -47.868  0.00  0.00     0.029 C 
ATOM     19  N   UNL d   1     -43.218-122.978 -47.604  0.00  0.00    -0.126 NA
ATOM     20  C   UNL d   1     -43.212-123.159 -48.412  0.00  0.00     0.111 A 
ATOM     21  C   UNL d   1     -43.856-123.195 -48.923  0.00  0.00     0.023 C 
ENDBRANCH  14  15
ENDBRANCH  13  14
ENDBRANCH   3  13
TORSDOF 3
ENDMDL
