MODEL 1
REMARK VINA RESULT:      -7.2      0.000      0.000
REMARK  6 active torsions:
REMARK  status: ('A' for Active; 'I' for Inactive)
REMARK    1  A    between atoms: C_7  and  S_1 
REMARK    2  A    between atoms: N_18  and  S_1 
REMARK    3  A    between atoms: C_6  and  C_4 
REMARK    4  A    between atoms: C_9  and  C_24 
REMARK    5  A    between atoms: C_26  and  N_18 
REMARK    6  A    between atoms: C_24  and  C_26 
ROOT
ATOM      1  S   UNL d   1     -41.299-122.226 -52.518  0.00  0.00     0.285 S 
ATOM      2  O   UNL d   1     -41.209-121.866 -51.782  0.00  0.00    -0.198 OA
ATOM      3  O   UNL d   1     -41.175-121.499 -52.879  0.00  0.00    -0.198 OA
ENDROOT
BRANCH   1   4
ATOM      4  C   UNL d   1     -41.387-122.578 -53.255  0.00  0.00     0.105 A 
ATOM      5  C   UNL d   1     -41.699-122.144 -53.884  0.00  0.00     0.019 A 
ATOM      6  C   UNL d   1     -41.787-122.492 -54.618  0.00  0.00     0.100 A 
ATOM      7  C   UNL d   1     -41.564-123.280 -54.732  0.00  0.00     0.144 A 
ATOM      8  C   UNL d   1     -41.253-123.712 -54.108  0.00  0.00     0.030 A 
ATOM      9  F   UNL d   1     -41.649-123.636 -55.467  0.00  0.00    -0.204 F 
ATOM     10  C   UNL d   1     -41.163-123.365 -53.369  0.00  0.00     0.015 A 
BRANCH   6  11
ATOM     11  C   UNL d   1     -42.097-122.060 -55.240  0.00  0.00     0.421 C 
ATOM     12  F   UNL d   1     -42.390-121.666 -55.811  0.00  0.00    -0.166 F 
ATOM     13  F   UNL d   1     -41.698-121.543 -55.799  0.00  0.00    -0.166 F 
ATOM     14  F   UNL d   1     -42.916-122.007 -55.506  0.00  0.00    -0.166 F 
ENDBRANCH   6  11
ENDBRANCH   1   4
BRANCH   1  15
ATOM     15  N   UNL d   1     -41.422-122.954 -52.144  0.00  0.00    -0.157 NA
BRANCH  15  16
ATOM     16  C   UNL d   1     -41.451-123.000 -51.337  0.00  0.00     0.114 C 
BRANCH  16  17
ATOM     17  C   UNL d   1     -41.658-123.713 -50.965  0.00  0.00     0.042 C 
BRANCH  17  18
ATOM     18  C   UNL d   1     -41.747-123.732 -50.131  0.00  0.00     0.102 A 
ATOM     19  N   UNL d   1     -42.451-123.747 -49.726  0.00  0.00    -0.227 NA
ATOM     20  C   UNL d   1     -42.293-123.762 -48.915  0.00  0.00     0.148 A 
ATOM     21  C   UNL d   1     -42.786-123.781 -48.258  0.00  0.00     0.037 A 
ATOM     22  N   UNL d   1     -41.478-123.757 -48.819  0.00  0.00    -0.288 N 
ATOM     23  C   UNL d   1     -42.460-123.794 -47.504  0.00  0.00     0.004 A 
ATOM     24  C   UNL d   1     -42.957-123.812 -46.846  0.00  0.00     0.000 C 
ATOM     25  C   UNL d   1     -41.648-123.789 -47.394  0.00  0.00     0.019 A 
ATOM     26  C   UNL d   1     -41.152-123.771 -48.061  0.00  0.00     0.082 A 
ATOM     27  C   UNL d   1     -41.127-123.738 -49.572  0.00  0.00     0.101 A 
ENDBRANCH  17  18
ENDBRANCH  16  17
ENDBRANCH  15  16
ENDBRANCH   1  15
TORSDOF 6
ENDMDL
MODEL 2
REMARK VINA RESULT:      -5.7      3.514      5.995
REMARK  6 active torsions:
REMARK  status: ('A' for Active; 'I' for Inactive)
REMARK    1  A    between atoms: C_7  and  S_1 
REMARK    2  A    between atoms: N_18  and  S_1 
REMARK    3  A    between atoms: C_6  and  C_4 
REMARK    4  A    between atoms: C_9  and  C_24 
REMARK    5  A    between atoms: C_26  and  N_18 
REMARK    6  A    between atoms: C_24  and  C_26 
ROOT
ATOM      1  S   UNL d   1     -42.816-122.465 -50.126  0.00  0.00     0.285 S 
ATOM      2  O   UNL d   1     -43.247-122.127 -50.743  0.00  0.00    -0.198 OA
ATOM      3  O   UNL d   1     -43.518-122.607 -49.725  0.00  0.00    -0.198 OA
ENDROOT
BRANCH   1   4
ATOM      4  C   UNL d   1     -42.394-122.802 -49.509  0.00  0.00     0.105 A 
ATOM      5  C   UNL d   1     -42.704-122.795 -48.744  0.00  0.00     0.019 A 
ATOM      6  C   UNL d   1     -42.286-123.131 -48.127  0.00  0.00     0.100 A 
ATOM      7  C   UNL d   1     -41.549-123.478 -48.269  0.00  0.00     0.144 A 
ATOM      8  C   UNL d   1     -41.239-123.486 -49.028  0.00  0.00     0.030 A 
ATOM      9  F   UNL d   1     -41.123-123.818 -47.654  0.00  0.00    -0.204 F 
ATOM     10  C   UNL d   1     -41.657-123.150 -49.650  0.00  0.00     0.015 A 
BRANCH   6  11
ATOM     11  C   UNL d   1     -42.596-123.122 -47.371  0.00  0.00     0.421 C 
ATOM     12  F   UNL d   1     -42.886-123.121 -46.676  0.00  0.00    -0.166 F 
ATOM     13  F   UNL d   1     -42.442-122.578 -46.723  0.00  0.00    -0.166 F 
ATOM     14  F   UNL d   1     -43.167-123.661 -47.015  0.00  0.00    -0.166 F 
ENDBRANCH   6  11
ENDBRANCH   1   4
BRANCH   1  15
ATOM     15  N   UNL d   1     -42.115-122.317 -50.540  0.00  0.00    -0.157 NA
BRANCH  15  16
ATOM     16  C   UNL d   1     -42.134-122.135 -51.328  0.00  0.00     0.114 C 
BRANCH  16  17
ATOM     17  C   UNL d   1     -41.440-122.173 -51.783  0.00  0.00     0.042 C 
BRANCH  17  18
ATOM     18  C   UNL d   1     -41.500-122.251 -52.617  0.00  0.00     0.102 A 
ATOM     19  N   UNL d   1     -41.890-121.745 -53.117  0.00  0.00    -0.227 NA
ATOM     20  C   UNL d   1     -41.814-122.023 -53.892  0.00  0.00     0.148 A 
ATOM     21  C   UNL d   1     -42.092-121.735 -54.610  0.00  0.00     0.037 A 
ATOM     22  N   UNL d   1     -41.369-122.711 -53.868  0.00  0.00    -0.288 N 
ATOM     23  C   UNL d   1     -41.923-122.141 -55.304  0.00  0.00     0.004 A 
ATOM     24  C   UNL d   1     -42.203-121.850 -56.023  0.00  0.00     0.000 C 
ATOM     25  C   UNL d   1     -41.480-122.830 -55.294  0.00  0.00     0.019 A 
ATOM     26  C   UNL d   1     -41.200-123.117 -54.566  0.00  0.00     0.082 A 
ATOM     27  C   UNL d   1     -41.167-122.864 -53.077  0.00  0.00     0.101 A 
ENDBRANCH  17  18
ENDBRANCH  16  17
ENDBRANCH  15  16
ENDBRANCH   1  15
TORSDOF 6
ENDMDL
