MODEL 1
REMARK VINA RESULT:      32.6      0.000      0.000
REMARK  5 active torsions:
REMARK  status: ('A' for Active; 'I' for Inactive)
REMARK    1  A    between atoms: C_5  and  C_1 
REMARK    2  A    between atoms: N_15  and  C_4 
REMARK       I    between atoms: N_9  and  C_5 
REMARK    3  A    between atoms: C_7  and  N_9 
REMARK    4  A    between atoms: C_18  and  N_15 
REMARK    5  A    between atoms: C_16  and  C_18 
ROOT
ATOM      1  C   UNL d   1      60.116  49.644  50.550  0.00  0.00     0.128 A 
ATOM      2  N   UNL d   1      61.645  49.613  51.137  0.00  0.00    -0.200 NA
ATOM      3  C   UNL d   1      60.753  49.592  50.035  0.00  0.00     0.196 A 
ATOM      4  C   UNL d   1      61.008  49.666  51.652  0.00  0.00     0.196 A 
ATOM      5  S   UNL d   1      60.254  49.681  51.363  0.00  0.00    -0.041 SA
ATOM      6  N   UNL d   1      60.624  49.555  49.224  0.00  0.00    -0.126 N 
ENDROOT
BRANCH   1   7
ATOM      7  C   UNL d   1      59.346  49.659  50.246  0.00  0.00     0.290 C 
ATOM      8  N   UNL d   1      58.696  49.626  50.770  0.00  0.00    -0.186 NA
ATOM      9  O   UNL d   1      59.211  49.706  49.431  0.00  0.00    -0.264 OA
BRANCH   8  10
ATOM     10  C   UNL d   1      57.920  49.641  50.471  0.00  0.00     0.194 A 
ATOM     11  N   UNL d   1      57.161  49.702  50.805  0.00  0.00    -0.107 NA
ATOM     12  O   UNL d   1      56.494  49.698  50.329  0.00  0.00    -0.210 OA
ATOM     13  C   UNL d   1      56.578  49.632  49.490  0.00  0.00     0.128 A 
ATOM     14  C   UNL d   1      57.332  49.572  49.160  0.00  0.00     0.068 A 
ATOM     15  C   UNL d   1      56.049  49.609  48.837  0.00  0.00     0.029 C 
ENDBRANCH   8  10
ENDBRANCH   1   7
BRANCH   4  16
ATOM     16  N   UNL d   1      61.143  49.702  52.461  0.00  0.00    -0.220 NA
BRANCH  16  17
ATOM     17  C   UNL d   1      61.783  49.295  52.785  0.00  0.00     0.101 C 
BRANCH  17  18
ATOM     18  C   UNL d   1      62.215  49.634  53.392  0.00  0.00     0.021 C 
ATOM     19  C   UNL d   1      63.014  49.448  53.480  0.00  0.00     0.002 C 
ENDBRANCH  17  18
ENDBRANCH  16  17
ENDBRANCH   4  16
TORSDOF 5
ENDMDL
