MODEL 1
REMARK VINA RESULT:     -10.2      0.000      0.000
REMARK  4 active torsions:
REMARK  status: ('A' for Active; 'I' for Inactive)
REMARK    1  A    between atoms: C_10  and  C_3 
REMARK    2  A    between atoms: C_12  and  C_6 
REMARK    3  A    between atoms: O_15  and  C_10 
REMARK    4  A    between atoms: C_22  and  O_15 
ROOT
ATOM      1  C   UNL d   1      52.783  32.358  53.343  0.00  0.00     0.057 A 
ATOM      2  C   UNL d   1      53.472  32.019  53.647  0.00  0.00     0.085 A 
ATOM      3  C   UNL d   1      53.269  33.653  53.687  0.00  0.00     0.081 A 
ATOM      4  N   UNL d   1      54.059  32.488  53.970  0.00  0.00    -0.245 NA
ATOM      5  C   UNL d   1      52.301  31.752  53.060  0.00  0.00     0.197 A 
ATOM      6  C   UNL d   1      52.686  33.173  53.365  0.00  0.00     0.013 A 
ATOM      7  C   UNL d   1      53.961  33.313  53.992  0.00  0.00     0.086 A 
ATOM      8  C   UNL d   1      53.415  31.199  53.551  0.00  0.00     0.021 A 
ATOM      9  C   UNL d   1      52.695  31.033  53.189  0.00  0.00     0.041 A 
ATOM     10  O   UNL d   1      51.558  31.844  52.709  0.00  0.00    -0.286 OA
ATOM     11  C   UNL d   1      54.548  33.791  54.316  0.00  0.00     0.021 C 
ATOM     12  C   UNL d   1      53.930  30.574  53.747  0.00  0.00     0.002 A 
ATOM     13  C   UNL d   1      52.479  30.251  53.020  0.00  0.00     0.003 A 
ATOM     14  C   UNL d   1      52.997  29.634  53.218  0.00  0.00     0.000 A 
ATOM     15  C   UNL d   1      53.714  29.801  53.578  0.00  0.00     0.000 A 
ENDROOT
BRANCH   6  16
ATOM     16  C   UNL d   1      51.998  33.512  53.061  0.00  0.00     0.020 A 
ATOM     17  C   UNL d   1      51.328  33.554  53.529  0.00  0.00     0.099 A 
ATOM     18  N   UNL d   1      50.638  33.892  53.229  0.00  0.00    -0.242 NA
ATOM     19  C   UNL d   1      50.621  34.189  52.453  0.00  0.00     0.099 A 
ATOM     20  C   UNL d   1      51.302  34.145  51.980  0.00  0.00     0.021 A 
ATOM     21  C   UNL d   1      51.991  33.807  52.284  0.00  0.00     0.003 A 
ENDBRANCH   6  16
BRANCH   3  22
ATOM     22  C   UNL d   1      53.173  34.472  53.709  0.00  0.00     0.302 C 
ATOM     23  O   UNL d   1      53.308  34.917  53.028  0.00  0.00    -0.259 OA
BRANCH  22  24
ATOM     24  O   UNL d   1      52.944  34.844  54.407  0.00  0.00    -0.271 OA
BRANCH  24  25
ATOM     25  C   UNL d   1      53.112  35.642  54.520  0.00  0.00     0.126 C 
ATOM     26  C   UNL d   1      52.789  36.041  55.163  0.00  0.00     0.029 C 
ENDBRANCH  24  25
ENDBRANCH  22  24
ENDBRANCH   3  22
TORSDOF 4
ENDMDL
MODEL 2
REMARK VINA RESULT:      -9.6      1.214      3.904
REMARK  4 active torsions:
REMARK  status: ('A' for Active; 'I' for Inactive)
REMARK    1  A    between atoms: C_10  and  C_3 
REMARK    2  A    between atoms: C_12  and  C_6 
REMARK    3  A    between atoms: O_15  and  C_10 
REMARK    4  A    between atoms: C_22  and  O_15 
ROOT
ATOM      1  C   UNL d   1      52.524  33.036  53.474  0.00  0.00     0.057 A 
ATOM      2  C   UNL d   1      51.911  32.797  52.976  0.00  0.00     0.085 A 
ATOM      3  C   UNL d   1      53.095  31.732  53.397  0.00  0.00     0.081 A 
ATOM      4  N   UNL d   1      51.883  32.032  52.687  0.00  0.00    -0.245 NA
ATOM      5  C   UNL d   1      52.402  33.827  53.672  0.00  0.00     0.197 A 
ATOM      6  C   UNL d   1      53.113  32.502  53.681  0.00  0.00     0.013 A 
ATOM      7  C   UNL d   1      52.479  31.492  52.897  0.00  0.00     0.086 A 
ATOM      8  C   UNL d   1      51.407  33.444  52.866  0.00  0.00     0.021 A 
ATOM      9  C   UNL d   1      51.708  34.079  53.294  0.00  0.00     0.041 A 
ATOM     10  O   UNL d   1      52.885  34.288  54.160  0.00  0.00    -0.286 OA
ATOM     11  C   UNL d   1      52.457  30.720  52.609  0.00  0.00     0.021 C 
ATOM     12  C   UNL d   1      50.704  33.540  52.427  0.00  0.00     0.002 A 
ATOM     13  C   UNL d   1      51.319  34.811  53.291  0.00  0.00     0.003 A 
ATOM     14  C   UNL d   1      50.621  34.899  52.852  0.00  0.00     0.000 A 
ATOM     15  C   UNL d   1      50.322  34.265  52.426  0.00  0.00     0.000 A 
ENDROOT
BRANCH   6  16
ATOM     16  C   UNL d   1      53.726  32.741  54.179  0.00  0.00     0.020 A 
ATOM     17  C   UNL d   1      53.640  32.669  54.990  0.00  0.00     0.099 A 
ATOM     18  N   UNL d   1      54.251  32.907  55.491  0.00  0.00    -0.242 NA
ATOM     19  C   UNL d   1      54.953  33.219  55.174  0.00  0.00     0.099 A 
ATOM     20  C   UNL d   1      55.038  33.291  54.351  0.00  0.00     0.021 A 
ATOM     21  C   UNL d   1      54.425  33.052  53.854  0.00  0.00     0.003 A 
ENDBRANCH   6  16
BRANCH   3  22
ATOM     22  C   UNL d   1      53.685  31.195  53.604  0.00  0.00     0.302 C 
ATOM     23  O   UNL d   1      54.424  31.240  53.240  0.00  0.00    -0.259 OA
BRANCH  22  24
ATOM     24  O   UNL d   1      53.539  30.616  54.171  0.00  0.00    -0.271 OA
BRANCH  24  25
ATOM     25  C   UNL d   1      53.834  29.854  54.064  0.00  0.00     0.126 C 
ATOM     26  C   UNL d   1      53.635  29.260  54.598  0.00  0.00     0.029 C 
ENDBRANCH  24  25
ENDBRANCH  22  24
ENDBRANCH   3  22
TORSDOF 4
ENDMDL
MODEL 3
REMARK VINA RESULT:      -9.5      1.036      2.379
REMARK  4 active torsions:
REMARK  status: ('A' for Active; 'I' for Inactive)
REMARK    1  A    between atoms: C_10  and  C_3 
REMARK    2  A    between atoms: C_12  and  C_6 
REMARK    3  A    between atoms: O_15  and  C_10 
REMARK    4  A    between atoms: C_22  and  O_15 
ROOT
ATOM      1  C   UNL d   1      53.385  32.142  53.670  0.00  0.00     0.057 A 
ATOM      2  C   UNL d   1      52.769  31.887  53.184  0.00  0.00     0.085 A 
ATOM      3  C   UNL d   1      53.002  33.496  53.445  0.00  0.00     0.081 A 
ATOM      4  N   UNL d   1      52.269  32.427  52.827  0.00  0.00    -0.245 NA
ATOM      5  C   UNL d   1      53.788  31.478  53.945  0.00  0.00     0.197 A 
ATOM      6  C   UNL d   1      53.498  32.946  53.797  0.00  0.00     0.013 A 
ATOM      7  C   UNL d   1      52.383  33.240  52.956  0.00  0.00     0.086 A 
ATOM      8  C   UNL d   1      52.792  31.060  53.158  0.00  0.00     0.021 A 
ATOM      9  C   UNL d   1      53.419  30.807  53.627  0.00  0.00     0.041 A 
ATOM     10  O   UNL d   1      54.445  31.479  54.449  0.00  0.00    -0.286 OA
ATOM     11  C   UNL d   1      51.883  33.790  52.600  0.00  0.00     0.021 C 
ATOM     12  C   UNL d   1      52.318  30.498  52.766  0.00  0.00     0.002 A 
ATOM     13  C   UNL d   1      53.582  29.999  53.711  0.00  0.00     0.003 A 
ATOM     14  C   UNL d   1      53.106  29.444  53.317  0.00  0.00     0.000 A 
ATOM     15  C   UNL d   1      52.482  29.698  52.850  0.00  0.00     0.000 A 
ENDROOT
BRANCH   6  16
ATOM     16  C   UNL d   1      54.114  33.201  54.283  0.00  0.00     0.020 A 
ATOM     17  C   UNL d   1      53.998  33.245  55.093  0.00  0.00     0.099 A 
ATOM     18  N   UNL d   1      54.612  33.500  55.582  0.00  0.00    -0.242 NA
ATOM     19  C   UNL d   1      55.346  33.711  55.256  0.00  0.00     0.099 A 
ATOM     20  C   UNL d   1      55.461  33.666  54.434  0.00  0.00     0.021 A 
ATOM     21  C   UNL d   1      54.845  33.411  53.948  0.00  0.00     0.003 A 
ENDBRANCH   6  16
BRANCH   3  22
ATOM     22  C   UNL d   1      53.114  34.304  53.572  0.00  0.00     0.302 C 
ATOM     23  O   UNL d   1      53.648  34.721  53.101  0.00  0.00    -0.259 OA
BRANCH  22  24
ATOM     24  O   UNL d   1      52.695  34.692  54.164  0.00  0.00    -0.271 OA
BRANCH  24  25
ATOM     25  C   UNL d   1      52.578  35.506  54.117  0.00  0.00     0.126 C 
ATOM     26  C   UNL d   1      52.379  35.931  54.793  0.00  0.00     0.029 C 
ENDBRANCH  24  25
ENDBRANCH  22  24
ENDBRANCH   3  22
TORSDOF 4
ENDMDL
