MODEL 1
REMARK VINA RESULT:      -6.3      0.000      0.000
REMARK  5 active torsions:
REMARK  status: ('A' for Active; 'I' for Inactive)
REMARK    1  A    between atoms: N_2  and  S_1 
REMARK    2  A    between atoms: C_4  and  S_1 
REMARK    3  A    between atoms: C_3  and  N_2 
REMARK    4  A    between atoms: N_7  and  C_3 
REMARK    5  A    between atoms: C_14  and  N_7 
ROOT
ATOM      1  S   UNL d   1     -47.145  13.499  22.835  0.00  0.00     0.287 S 
ATOM      2  O   UNL d   1     -47.422  13.181  22.117  0.00  0.00    -0.198 OA
ATOM      3  O   UNL d   1     -46.856  13.813  23.552  0.00  0.00    -0.198 OA
ENDROOT
BRANCH   1   4
ATOM      4  N   UNL d   1     -47.906  13.785  23.010  0.00  0.00    -0.128 NA
BRANCH   4   5
ATOM      5  C   UNL d   1     -48.725  13.794  22.853  0.00  0.00     0.232 C 
ATOM      6  S   UNL d   1     -49.189  13.152  23.069  0.00  0.00    -0.036 SA
BRANCH   5   7
ATOM      7  N   UNL d   1     -49.063  14.450  22.482  0.00  0.00    -0.217 NA
BRANCH   7   8
ATOM      8  C   UNL d   1     -49.676  14.858  22.852  0.00  0.00     0.084 A 
ATOM      9  C   UNL d   1     -49.504  15.510  23.326  0.00  0.00     0.019 A 
ATOM     10  C   UNL d   1     -50.116  15.919  23.697  0.00  0.00     0.002 A 
ATOM     11  C   UNL d   1     -50.894  15.682  23.596  0.00  0.00     0.000 A 
ATOM     12  C   UNL d   1     -51.064  15.027  23.120  0.00  0.00     0.002 A 
ATOM     13  C   UNL d   1     -50.457  14.615  22.747  0.00  0.00     0.019 A 
ENDBRANCH   7   8
ENDBRANCH   5   7
ENDBRANCH   4   5
ENDBRANCH   1   4
BRANCH   1  14
ATOM     14  C   UNL d   1     -46.382  13.213  22.660  0.00  0.00     0.105 A 
ATOM     15  C   UNL d   1     -46.142  12.468  22.940  0.00  0.00     0.013 A 
ATOM     16  C   UNL d   1     -45.388  12.186  22.767  0.00  0.00     0.001 A 
ATOM     17  C   UNL d   1     -44.874  12.642  22.318  0.00  0.00     0.000 A 
ATOM     18  C   UNL d   1     -45.104  13.384  22.036  0.00  0.00     0.001 A 
ATOM     19  C   UNL d   1     -44.117  12.358  22.145  0.00  0.00     0.000 C 
ATOM     20  C   UNL d   1     -45.860  13.667  22.209  0.00  0.00     0.013 A 
ENDBRANCH   1  14
TORSDOF 5
ENDMDL
MODEL 2
REMARK VINA RESULT:      -5.4      1.280      1.792
REMARK  5 active torsions:
REMARK  status: ('A' for Active; 'I' for Inactive)
REMARK    1  A    between atoms: N_2  and  S_1 
REMARK    2  A    between atoms: C_4  and  S_1 
REMARK    3  A    between atoms: C_3  and  N_2 
REMARK    4  A    between atoms: N_7  and  C_3 
REMARK    5  A    between atoms: C_14  and  N_7 
ROOT
ATOM      1  S   UNL d   1     -47.784  12.298  23.164  0.00  0.00     0.287 S 
ATOM      2  O   UNL d   1     -48.161  11.566  23.040  0.00  0.00    -0.198 OA
ATOM      3  O   UNL d   1     -47.394  13.024  23.290  0.00  0.00    -0.198 OA
ENDROOT
BRANCH   1   4
ATOM      4  N   UNL d   1     -48.502  12.697  23.042  0.00  0.00    -0.128 NA
BRANCH   4   5
ATOM      5  C   UNL d   1     -49.281  12.702  22.746  0.00  0.00     0.232 C 
ATOM      6  S   UNL d   1     -49.431  12.428  21.985  0.00  0.00    -0.036 SA
BRANCH   5   7
ATOM      7  N   UNL d   1     -49.897  12.984  23.219  0.00  0.00    -0.217 NA
BRANCH   7   8
ATOM      8  C   UNL d   1     -50.283  13.683  23.015  0.00  0.00     0.084 A 
ATOM      9  C   UNL d   1     -50.563  13.785  22.246  0.00  0.00     0.019 A 
ATOM     10  C   UNL d   1     -50.949  14.483  22.040  0.00  0.00     0.002 A 
ATOM     11  C   UNL d   1     -51.056  15.077  22.596  0.00  0.00     0.000 A 
ATOM     12  C   UNL d   1     -50.774  14.972  23.367  0.00  0.00     0.002 A 
ATOM     13  C   UNL d   1     -50.388  14.277  23.577  0.00  0.00     0.019 A 
ENDBRANCH   7   8
ENDBRANCH   5   7
ENDBRANCH   4   5
ENDBRANCH   1   4
BRANCH   1  14
ATOM     14  C   UNL d   1     -47.062  11.897  23.286  0.00  0.00     0.105 A 
ATOM     15  C   UNL d   1     -46.343  12.275  23.115  0.00  0.00     0.013 A 
ATOM     16  C   UNL d   1     -45.630  11.880  23.235  0.00  0.00     0.001 A 
ATOM     17  C   UNL d   1     -45.633  11.112  23.525  0.00  0.00     0.000 A 
ATOM     18  C   UNL d   1     -46.345  10.729  23.698  0.00  0.00     0.001 A 
ATOM     19  C   UNL d   1     -44.918  10.715  23.646  0.00  0.00     0.000 C 
ATOM     20  C   UNL d   1     -47.059  11.125  23.577  0.00  0.00     0.013 A 
ENDBRANCH   1  14
TORSDOF 5
ENDMDL
MODEL 3
REMARK VINA RESULT:      -5.4      0.873      4.726
REMARK  5 active torsions:
REMARK  status: ('A' for Active; 'I' for Inactive)
REMARK    1  A    between atoms: N_2  and  S_1 
REMARK    2  A    between atoms: C_4  and  S_1 
REMARK    3  A    between atoms: C_3  and  N_2 
REMARK    4  A    between atoms: N_7  and  C_3 
REMARK    5  A    between atoms: C_14  and  N_7 
ROOT
ATOM      1  S   UNL d   1     -48.330  13.837  22.844  0.00  0.00     0.287 S 
ATOM      2  O   UNL d   1     -48.253  13.786  23.672  0.00  0.00    -0.198 OA
ATOM      3  O   UNL d   1     -48.418  13.895  22.016  0.00  0.00    -0.198 OA
ENDROOT
BRANCH   1   4
ATOM      4  N   UNL d   1     -47.642  13.380  22.746  0.00  0.00    -0.128 NA
BRANCH   4   5
ATOM      5  C   UNL d   1     -47.043  12.901  23.072  0.00  0.00     0.232 C 
ATOM      6  S   UNL d   1     -47.194  12.108  23.228  0.00  0.00    -0.036 SA
BRANCH   5   7
ATOM      7  N   UNL d   1     -46.303  13.227  23.237  0.00  0.00    -0.217 NA
BRANCH   7   8
ATOM      8  C   UNL d   1     -45.649  13.005  22.786  0.00  0.00     0.084 A 
ATOM      9  C   UNL d   1     -45.371  13.508  22.196  0.00  0.00     0.019 A 
ATOM     10  C   UNL d   1     -44.718  13.289  21.745  0.00  0.00     0.002 A 
ATOM     11  C   UNL d   1     -44.343  12.572  21.880  0.00  0.00     0.000 A 
ATOM     12  C   UNL d   1     -44.624  12.068  22.473  0.00  0.00     0.002 A 
ATOM     13  C   UNL d   1     -45.276  12.283  22.927  0.00  0.00     0.019 A 
ENDBRANCH   7   8
ENDBRANCH   5   7
ENDBRANCH   4   5
ENDBRANCH   1   4
BRANCH   1  14
ATOM     14  C   UNL d   1     -49.020  14.295  22.942  0.00  0.00     0.105 A 
ATOM     15  C   UNL d   1     -48.985  15.121  22.862  0.00  0.00     0.013 A 
ATOM     16  C   UNL d   1     -49.667  15.574  22.959  0.00  0.00     0.001 A 
ATOM     17  C   UNL d   1     -50.379  15.206  23.136  0.00  0.00     0.000 A 
ATOM     18  C   UNL d   1     -50.422  14.385  23.217  0.00  0.00     0.001 A 
ATOM     19  C   UNL d   1     -51.063  15.661  23.233  0.00  0.00     0.000 C 
ATOM     20  C   UNL d   1     -49.739  13.931  23.120  0.00  0.00     0.013 A 
ENDBRANCH   1  14
TORSDOF 5
ENDMDL
MODEL 4
REMARK VINA RESULT:      -5.3      1.590      1.949
REMARK  5 active torsions:
REMARK  status: ('A' for Active; 'I' for Inactive)
REMARK    1  A    between atoms: N_2  and  S_1 
REMARK    2  A    between atoms: C_4  and  S_1 
REMARK    3  A    between atoms: C_3  and  N_2 
REMARK    4  A    between atoms: N_7  and  C_3 
REMARK    5  A    between atoms: C_14  and  N_7 
ROOT
ATOM      1  S   UNL d   1     -46.672  12.988  22.833  0.00  0.00     0.287 S 
ATOM      2  O   UNL d   1     -46.711  13.686  22.379  0.00  0.00    -0.198 OA
ATOM      3  O   UNL d   1     -46.620  12.287  23.282  0.00  0.00    -0.198 OA
ENDROOT
BRANCH   1   4
ATOM      4  N   UNL d   1     -47.454  13.103  23.089  0.00  0.00    -0.128 NA
BRANCH   4   5
ATOM      5  C   UNL d   1     -48.262  13.212  22.912  0.00  0.00     0.232 C 
ATOM      6  S   UNL d   1     -48.617  13.939  23.057  0.00  0.00    -0.036 SA
BRANCH   5   7
ATOM      7  N   UNL d   1     -48.699  12.588  22.593  0.00  0.00    -0.217 NA
BRANCH   7   8
ATOM      8  C   UNL d   1     -49.479  12.471  22.831  0.00  0.00     0.084 A 
ATOM      9  C   UNL d   1     -49.642  11.963  23.458  0.00  0.00     0.019 A 
ATOM     10  C   UNL d   1     -50.421  11.844  23.698  0.00  0.00     0.002 A 
ATOM     11  C   UNL d   1     -51.036  12.230  23.316  0.00  0.00     0.000 A 
ATOM     12  C   UNL d   1     -50.870  12.741  22.686  0.00  0.00     0.002 A 
ATOM     13  C   UNL d   1     -50.093  12.862  22.443  0.00  0.00     0.019 A 
ENDBRANCH   7   8
ENDBRANCH   5   7
ENDBRANCH   4   5
ENDBRANCH   1   4
BRANCH   1  14
ATOM     14  C   UNL d   1     -45.888  12.873  22.575  0.00  0.00     0.105 A 
ATOM     15  C   UNL d   1     -45.525  13.434  22.081  0.00  0.00     0.013 A 
ATOM     16  C   UNL d   1     -44.750  13.320  21.826  0.00  0.00     0.001 A 
ATOM     17  C   UNL d   1     -44.337  12.651  22.063  0.00  0.00     0.000 A 
ATOM     18  C   UNL d   1     -44.690  12.088  22.554  0.00  0.00     0.001 A 
ATOM     19  C   UNL d   1     -43.559  12.537  21.807  0.00  0.00     0.000 C 
ATOM     20  C   UNL d   1     -45.467  12.202  22.809  0.00  0.00     0.013 A 
ENDBRANCH   1  14
TORSDOF 5
ENDMDL
MODEL 5
REMARK VINA RESULT:      -5.1      1.616      4.775
REMARK  5 active torsions:
REMARK  status: ('A' for Active; 'I' for Inactive)
REMARK    1  A    between atoms: N_2  and  S_1 
REMARK    2  A    between atoms: C_4  and  S_1 
REMARK    3  A    between atoms: C_3  and  N_2 
REMARK    4  A    between atoms: N_7  and  C_3 
REMARK    5  A    between atoms: C_14  and  N_7 
ROOT
ATOM      1  S   UNL d   1     -47.949  12.711  22.843  0.00  0.00     0.287 S 
ATOM      2  O   UNL d   1     -47.863  13.133  23.555  0.00  0.00    -0.198 OA
ATOM      3  O   UNL d   1     -48.049  12.285  22.133  0.00  0.00    -0.198 OA
ENDROOT
BRANCH   1   4
ATOM      4  N   UNL d   1     -47.167  12.893  22.631  0.00  0.00    -0.128 NA
BRANCH   4   5
ATOM      5  C   UNL d   1     -46.462  13.315  22.774  0.00  0.00     0.232 C 
ATOM      6  S   UNL d   1     -46.428  14.120  22.609  0.00  0.00    -0.036 SA
BRANCH   5   7
ATOM      7  N   UNL d   1     -45.804  12.922  23.079  0.00  0.00    -0.217 NA
BRANCH   7   8
ATOM      8  C   UNL d   1     -45.146  12.792  22.599  0.00  0.00     0.084 A 
ATOM      9  C   UNL d   1     -44.697  12.109  22.698  0.00  0.00     0.019 A 
ATOM     10  C   UNL d   1     -44.039  11.977  22.219  0.00  0.00     0.002 A 
ATOM     11  C   UNL d   1     -43.829  12.524  21.645  0.00  0.00     0.000 A 
ATOM     12  C   UNL d   1     -44.281  13.210  21.548  0.00  0.00     0.002 A 
ATOM     13  C   UNL d   1     -44.939  13.346  22.023  0.00  0.00     0.019 A 
ENDBRANCH   7   8
ENDBRANCH   5   7
ENDBRANCH   4   5
ENDBRANCH   1   4
BRANCH   1  14
ATOM     14  C   UNL d   1     -48.735  12.528  23.055  0.00  0.00     0.105 A 
ATOM     15  C   UNL d   1     -48.913  11.790  23.393  0.00  0.00     0.013 A 
ATOM     16  C   UNL d   1     -49.689  11.609  23.602  0.00  0.00     0.001 A 
ATOM     17  C   UNL d   1     -50.285  12.159  23.477  0.00  0.00     0.000 A 
ATOM     18  C   UNL d   1     -50.116  12.896  23.141  0.00  0.00     0.001 A 
ATOM     19  C   UNL d   1     -51.064  11.978  23.687  0.00  0.00     0.000 C 
ATOM     20  C   UNL d   1     -49.338  13.077  22.931  0.00  0.00     0.013 A 
ENDBRANCH   1  14
TORSDOF 5
ENDMDL
MODEL 6
REMARK VINA RESULT:      -5.1      1.072      4.623
REMARK  5 active torsions:
REMARK  status: ('A' for Active; 'I' for Inactive)
REMARK    1  A    between atoms: N_2  and  S_1 
REMARK    2  A    between atoms: C_4  and  S_1 
REMARK    3  A    between atoms: C_3  and  N_2 
REMARK    4  A    between atoms: N_7  and  C_3 
REMARK    5  A    between atoms: C_14  and  N_7 
ROOT
ATOM      1  S   UNL d   1     -48.160  13.844  22.655  0.00  0.00     0.287 S 
ATOM      2  O   UNL d   1     -48.475  13.517  21.957  0.00  0.00    -0.198 OA
ATOM      3  O   UNL d   1     -47.857  14.179  23.356  0.00  0.00    -0.198 OA
ENDROOT
BRANCH   1   4
ATOM      4  N   UNL d   1     -47.457  13.414  22.549  0.00  0.00    -0.128 NA
BRANCH   4   5
ATOM      5  C   UNL d   1     -46.697  13.200  22.815  0.00  0.00     0.232 C 
ATOM      6  S   UNL d   1     -46.036  13.414  22.376  0.00  0.00    -0.036 SA
BRANCH   5   7
ATOM      7  N   UNL d   1     -46.613  12.775  23.518  0.00  0.00    -0.217 NA
BRANCH   7   8
ATOM      8  C   UNL d   1     -46.266  12.027  23.505  0.00  0.00     0.084 A 
ATOM      9  C   UNL d   1     -45.473  11.949  23.298  0.00  0.00     0.019 A 
ATOM     10  C   UNL d   1     -45.124  11.203  23.285  0.00  0.00     0.002 A 
ATOM     11  C   UNL d   1     -45.562  10.537  23.476  0.00  0.00     0.000 A 
ATOM     12  C   UNL d   1     -46.359  10.617  23.683  0.00  0.00     0.002 A 
ATOM     13  C   UNL d   1     -46.712  11.361  23.698  0.00  0.00     0.019 A 
ENDBRANCH   7   8
ENDBRANCH   5   7
ENDBRANCH   4   5
ENDBRANCH   1   4
BRANCH   1  14
ATOM     14  C   UNL d   1     -48.865  14.277  22.762  0.00  0.00     0.105 A 
ATOM     15  C   UNL d   1     -49.595  13.880  22.800  0.00  0.00     0.013 A 
ATOM     16  C   UNL d   1     -50.291  14.307  22.905  0.00  0.00     0.001 A 
ATOM     17  C   UNL d   1     -50.263  15.125  22.972  0.00  0.00     0.000 A 
ATOM     18  C   UNL d   1     -49.542  15.527  22.936  0.00  0.00     0.001 A 
ATOM     19  C   UNL d   1     -50.962  15.553  23.078  0.00  0.00     0.000 C 
ATOM     20  C   UNL d   1     -48.843  15.099  22.830  0.00  0.00     0.013 A 
ENDBRANCH   1  14
TORSDOF 5
ENDMDL
MODEL 7
REMARK VINA RESULT:      -5.1      8.594      9.182
REMARK  5 active torsions:
REMARK  status: ('A' for Active; 'I' for Inactive)
REMARK    1  A    between atoms: N_2  and  S_1 
REMARK    2  A    between atoms: C_4  and  S_1 
REMARK    3  A    between atoms: C_3  and  N_2 
REMARK    4  A    between atoms: N_7  and  C_3 
REMARK    5  A    between atoms: C_14  and  N_7 
ROOT
ATOM      1  S   UNL d   1     -39.260  14.346  20.804  0.00  0.00     0.287 S 
ATOM      2  O   UNL d   1     -38.509  14.652  20.611  0.00  0.00    -0.198 OA
ATOM      3  O   UNL d   1     -40.006  14.034  21.009  0.00  0.00    -0.198 OA
ENDROOT
BRANCH   1   4
ATOM      4  N   UNL d   1     -39.562  14.610  20.076  0.00  0.00    -0.128 NA
BRANCH   4   5
ATOM      5  C   UNL d   1     -40.189  14.932  19.631  0.00  0.00     0.232 C 
ATOM      6  S   UNL d   1     -40.456  15.692  19.794  0.00  0.00    -0.036 SA
BRANCH   5   7
ATOM      7  N   UNL d   1     -40.537  14.485  19.031  0.00  0.00    -0.217 NA
BRANCH   7   8
ATOM      8  C   UNL d   1     -40.457  14.723  18.245  0.00  0.00     0.084 A 
ATOM      9  C   UNL d   1     -40.930  15.330  17.952  0.00  0.00     0.019 A 
ATOM     10  C   UNL d   1     -40.852  15.568  17.168  0.00  0.00     0.002 A 
ATOM     11  C   UNL d   1     -40.305  15.205  16.677  0.00  0.00     0.000 A 
ATOM     12  C   UNL d   1     -39.830  14.595  16.973  0.00  0.00     0.002 A 
ATOM     13  C   UNL d   1     -39.905  14.353  17.756  0.00  0.00     0.019 A 
ENDBRANCH   7   8
ENDBRANCH   5   7
ENDBRANCH   4   5
ENDBRANCH   1   4
BRANCH   1  14
ATOM     14  C   UNL d   1     -38.956  14.081  21.534  0.00  0.00     0.105 A 
ATOM     15  C   UNL d   1     -38.535  13.366  21.575  0.00  0.00     0.013 A 
ATOM     16  C   UNL d   1     -38.235  13.105  22.296  0.00  0.00     0.001 A 
ATOM     17  C   UNL d   1     -38.353  13.552  22.974  0.00  0.00     0.000 A 
ATOM     18  C   UNL d   1     -38.771  14.265  22.942  0.00  0.00     0.001 A 
ATOM     19  C   UNL d   1     -38.052  13.290  23.698  0.00  0.00     0.000 C 
ATOM     20  C   UNL d   1     -39.072  14.527  22.219  0.00  0.00     0.013 A 
ENDBRANCH   1  14
TORSDOF 5
ENDMDL
MODEL 8
REMARK VINA RESULT:      -5.0      8.659      9.392
REMARK  5 active torsions:
REMARK  status: ('A' for Active; 'I' for Inactive)
REMARK    1  A    between atoms: N_2  and  S_1 
REMARK    2  A    between atoms: C_4  and  S_1 
REMARK    3  A    between atoms: C_3  and  N_2 
REMARK    4  A    between atoms: N_7  and  C_3 
REMARK    5  A    between atoms: C_14  and  N_7 
ROOT
ATOM      1  S   UNL d   1     -39.934  14.867  19.560  0.00  0.00     0.287 S 
ATOM      2  O   UNL d   1     -40.642  14.461  19.727  0.00  0.00    -0.198 OA
ATOM      3  O   UNL d   1     -39.231  15.277  19.380  0.00  0.00    -0.198 OA
ENDROOT
BRANCH   1   4
ATOM      4  N   UNL d   1     -39.641  14.680  20.315  0.00  0.00    -0.128 NA
BRANCH   4   5
ATOM      5  C   UNL d   1     -39.367  14.927  21.062  0.00  0.00     0.232 C 
ATOM      6  S   UNL d   1     -39.798  15.478  21.493  0.00  0.00    -0.036 SA
BRANCH   5   7
ATOM      7  N   UNL d   1     -38.664  14.616  21.364  0.00  0.00    -0.217 NA
BRANCH   7   8
ATOM      8  C   UNL d   1     -38.643  14.326  22.135  0.00  0.00     0.084 A 
ATOM      9  C   UNL d   1     -38.415  14.824  22.751  0.00  0.00     0.019 A 
ATOM     10  C   UNL d   1     -38.393  14.536  23.523  0.00  0.00     0.002 A 
ATOM     11  C   UNL d   1     -38.597  13.758  23.682  0.00  0.00     0.000 A 
ATOM     12  C   UNL d   1     -38.825  13.260  23.062  0.00  0.00     0.002 A 
ATOM     13  C   UNL d   1     -38.848  13.542  22.289  0.00  0.00     0.019 A 
ENDBRANCH   7   8
ENDBRANCH   5   7
ENDBRANCH   4   5
ENDBRANCH   1   4
BRANCH   1  14
ATOM     14  C   UNL d   1     -40.229  15.055  18.803  0.00  0.00     0.105 A 
ATOM     15  C   UNL d   1     -40.067  14.556  18.158  0.00  0.00     0.013 A 
ATOM     16  C   UNL d   1     -40.358  14.742  17.410  0.00  0.00     0.001 A 
ATOM     17  C   UNL d   1     -40.808  15.420  17.303  0.00  0.00     0.000 A 
ATOM     18  C   UNL d   1     -40.974  15.921  17.939  0.00  0.00     0.001 A 
ATOM     19  C   UNL d   1     -41.100  15.606  16.553  0.00  0.00     0.000 C 
ATOM     20  C   UNL d   1     -40.682  15.735  18.689  0.00  0.00     0.013 A 
ENDBRANCH   1  14
TORSDOF 5
ENDMDL
MODEL 9
REMARK VINA RESULT:      -4.7      8.583      9.717
REMARK  5 active torsions:
REMARK  status: ('A' for Active; 'I' for Inactive)
REMARK    1  A    between atoms: N_2  and  S_1 
REMARK    2  A    between atoms: C_4  and  S_1 
REMARK    3  A    between atoms: C_3  and  N_2 
REMARK    4  A    between atoms: N_7  and  C_3 
REMARK    5  A    between atoms: C_14  and  N_7 
ROOT
ATOM      1  S   UNL d   1     -39.136  14.517  18.594  0.00  0.00     0.287 S 
ATOM      2  O   UNL d   1     -39.872  14.150  18.463  0.00  0.00    -0.198 OA
ATOM      3  O   UNL d   1     -38.395  14.882  18.711  0.00  0.00    -0.198 OA
ENDROOT
BRANCH   1   4
ATOM      4  N   UNL d   1     -39.369  14.729  19.363  0.00  0.00    -0.128 NA
BRANCH   4   5
ATOM      5  C   UNL d   1     -39.958  14.999  19.888  0.00  0.00     0.232 C 
ATOM      6  S   UNL d   1     -40.390  15.673  19.704  0.00  0.00    -0.036 SA
BRANCH   5   7
ATOM      7  N   UNL d   1     -40.101  14.586  20.589  0.00  0.00    -0.217 NA
BRANCH   7   8
ATOM      8  C   UNL d   1     -39.785  14.862  21.298  0.00  0.00     0.084 A 
ATOM      9  C   UNL d   1     -39.371  14.346  21.789  0.00  0.00     0.019 A 
ATOM     10  C   UNL d   1     -39.054  14.620  22.498  0.00  0.00     0.002 A 
ATOM     11  C   UNL d   1     -39.148  15.404  22.719  0.00  0.00     0.000 A 
ATOM     12  C   UNL d   1     -39.565  15.921  22.225  0.00  0.00     0.002 A 
ATOM     13  C   UNL d   1     -39.883  15.652  21.515  0.00  0.00     0.019 A 
ENDBRANCH   7   8
ENDBRANCH   5   7
ENDBRANCH   4   5
ENDBRANCH   1   4
BRANCH   1  14
ATOM     14  C   UNL d   1     -38.901  14.305  17.822  0.00  0.00     0.105 A 
ATOM     15  C   UNL d   1     -39.006  14.839  17.194  0.00  0.00     0.013 A 
ATOM     16  C   UNL d   1     -38.774  14.630  16.431  0.00  0.00     0.001 A 
ATOM     17  C   UNL d   1     -38.441  13.892  16.294  0.00  0.00     0.000 A 
ATOM     18  C   UNL d   1     -38.333  13.355  16.913  0.00  0.00     0.001 A 
ATOM     19  C   UNL d   1     -38.208  13.682  15.529  0.00  0.00     0.000 C 
ATOM     20  C   UNL d   1     -38.565  13.565  17.678  0.00  0.00     0.013 A 
ENDBRANCH   1  14
TORSDOF 5
ENDMDL
