MODEL 1
REMARK VINA RESULT:      55.6      0.000      0.000
REMARK  4 active torsions:
REMARK  status: ('A' for Active; 'I' for Inactive)
REMARK    1  A    between atoms: C_2  and  C_1 
REMARK    2  A    between atoms: N_12  and  C_6 
REMARK    3  A    between atoms: C_16  and  N_12 
REMARK    4  A    between atoms: O_25  and  C_17 
ROOT
ATOM      1  C   UNL d   1     -54.940-101.489 -41.731  0.00  0.00     0.082 A 
ATOM      2  C   UNL d   1     -54.860-102.105 -42.272  0.00  0.00     0.302 A 
ATOM      3  C   UNL d   1     -55.087-100.722 -41.999  0.00  0.00     0.009 A 
ATOM      4  O   UNL d   1     -54.926-101.959 -43.087  0.00  0.00    -0.273 OA
ATOM      5  C   UNL d   1     -55.155-100.568 -42.810  0.00  0.00     0.025 A 
ATOM      6  C   UNL d   1     -55.073-101.195 -43.351  0.00  0.00     0.103 A 
ATOM      7  O   UNL d   1     -54.711-102.880 -42.008  0.00  0.00    -0.259 OA
ATOM      8  C   UNL d   1     -55.302 -99.800 -43.072  0.00  0.00     0.026 A 
ATOM      9  C   UNL d   1     -55.141-101.034 -44.158  0.00  0.00     0.027 A 
ATOM     10  C   UNL d   1     -55.368 -99.654 -43.880  0.00  0.00     0.094 A 
ATOM     11  C   UNL d   1     -55.287-100.276 -44.427  0.00  0.00     0.026 A 
ENDROOT
BRANCH   1  12
ATOM     12  C   UNL d   1     -54.872-101.643 -40.920  0.00  0.00     0.095 A 
ATOM     13  N   UNL d   1     -54.833-102.388 -40.568  0.00  0.00    -0.221 NA
ATOM     14  C   UNL d   1     -54.769-102.276 -39.753  0.00  0.00     0.194 A 
ATOM     15  S   UNL d   1     -54.768-101.462 -39.598  0.00  0.00    -0.046 SA
ATOM     16  C   UNL d   1     -54.833-101.068 -40.326  0.00  0.00     0.058 A 
BRANCH  14  17
ATOM     17  N   UNL d   1     -54.714-102.878 -39.186  0.00  0.00    -0.221 NA
BRANCH  17  18
ATOM     18  C   UNL d   1     -55.128-102.815 -38.475  0.00  0.00     0.084 A 
ATOM     19  C   UNL d   1     -55.950-102.837 -38.484  0.00  0.00     0.020 A 
ATOM     20  C   UNL d   1     -56.365-102.773 -37.765  0.00  0.00     0.013 A 
ATOM     21  C   UNL d   1     -55.952-102.689 -37.053  0.00  0.00     0.058 A 
ATOM     22  C   UNL d   1     -55.127-102.670 -37.064  0.00  0.00     0.013 A 
ATOM     23 CL   UNL d   1     -56.357-102.626 -36.341  0.00  0.00    -0.082 Cl
ATOM     24  C   UNL d   1     -54.714-102.732 -37.770  0.00  0.00     0.020 A 
ENDBRANCH  17  18
ENDBRANCH  14  17
ENDBRANCH   1  12
BRANCH  10  25
ATOM     25  O   UNL d   1     -55.515 -98.888 -44.148  0.00  0.00    -0.328 OA
ATOM     26  C   UNL d   1     -55.994 -98.760 -44.806  0.00  0.00     0.181 C 
ENDBRANCH  10  25
TORSDOF 4
ENDMDL
