MODEL 1
REMARK VINA RESULT:      -6.2      0.000      0.000
REMARK  1 active torsions:
REMARK  status: ('A' for Active; 'I' for Inactive)
REMARK    1  A    between atoms: C_7  and  C_4 
ROOT
ATOM      1  N   UNL d   1     -41.330-121.836 -52.472  0.00  0.00    -0.211 NA
ATOM      2  C   UNL d   1     -41.260-121.751 -51.645  0.00  0.00     0.140 A 
ATOM      3  C   UNL d   1     -41.329-122.414 -51.161  0.00  0.00     0.051 A 
ATOM      4  C   UNL d   1     -41.468-122.591 -52.797  0.00  0.00     0.183 A 
ATOM      5  C   UNL d   1     -41.467-123.164 -51.488  0.00  0.00     0.104 A 
ATOM      6  O   UNL d   1     -41.536-123.248 -52.305  0.00  0.00    -0.289 OA
ATOM      7  S   UNL d   1     -41.123-121.008 -51.315  0.00  0.00    -0.057 SA
ATOM      8  C   UNL d   1     -41.260-122.335 -50.332  0.00  0.00     0.004 A 
ATOM      9  C   UNL d   1     -41.535-123.817 -51.004  0.00  0.00     0.025 A 
ATOM     10  C   UNL d   1     -41.330-123.001 -49.848  0.00  0.00     0.000 A 
ATOM     11  C   UNL d   1     -41.467-123.739 -50.184  0.00  0.00     0.002 A 
ENDROOT
BRANCH   4  12
ATOM     12  C   UNL d   1     -41.536-122.670 -53.612  0.00  0.00     0.041 A 
ATOM     13  C   UNL d   1     -42.003-122.152 -54.042  0.00  0.00     0.004 A 
ATOM     14  C   UNL d   1     -42.065-122.240 -54.857  0.00  0.00     0.000 A 
ATOM     15  C   UNL d   1     -42.537-121.716 -55.290  0.00  0.00     0.000 C 
ATOM     16  C   UNL d   1     -41.661-122.844 -55.246  0.00  0.00     0.000 A 
ATOM     17  C   UNL d   1     -41.191-123.365 -54.808  0.00  0.00     0.000 A 
ATOM     18  C   UNL d   1     -41.127-123.279 -53.990  0.00  0.00     0.004 A 
ENDBRANCH   4  12
TORSDOF 1
ENDMDL
MODEL 2
REMARK VINA RESULT:      -5.8      1.223      3.886
REMARK  1 active torsions:
REMARK  status: ('A' for Active; 'I' for Inactive)
REMARK    1  A    between atoms: C_7  and  C_4 
ROOT
ATOM      1  N   UNL d   1     -41.291-123.114 -53.248  0.00  0.00    -0.211 NA
ATOM      2  C   UNL d   1     -41.418-123.173 -54.070  0.00  0.00     0.140 A 
ATOM      3  C   UNL d   1     -41.841-122.581 -54.460  0.00  0.00     0.051 A 
ATOM      4  C   UNL d   1     -41.593-122.459 -52.831  0.00  0.00     0.183 A 
ATOM      5  C   UNL d   1     -42.141-121.931 -54.041  0.00  0.00     0.104 A 
ATOM      6  O   UNL d   1     -42.014-121.874 -53.228  0.00  0.00    -0.289 OA
ATOM      7  S   UNL d   1     -41.123-123.817 -54.490  0.00  0.00    -0.057 SA
ATOM      8  C   UNL d   1     -41.972-122.635 -55.283  0.00  0.00     0.004 A 
ATOM      9  C   UNL d   1     -42.559-121.349 -54.431  0.00  0.00     0.025 A 
ATOM     10  C   UNL d   1     -42.396-122.041 -55.671  0.00  0.00     0.000 A 
ATOM     11  C   UNL d   1     -42.688-121.401 -55.245  0.00  0.00     0.002 A 
ENDROOT
BRANCH   4  12
ATOM     12  C   UNL d   1     -41.466-122.405 -52.021  0.00  0.00     0.041 A 
ATOM     13  C   UNL d   1     -41.546-123.067 -51.544  0.00  0.00     0.004 A 
ATOM     14  C   UNL d   1     -41.416-123.002 -50.734  0.00  0.00     0.000 A 
ATOM     15  C   UNL d   1     -41.498-123.670 -50.254  0.00  0.00     0.000 C 
ATOM     16  C   UNL d   1     -41.206-122.279 -50.399  0.00  0.00     0.000 A 
ATOM     17  C   UNL d   1     -41.125-121.615 -50.884  0.00  0.00     0.000 A 
ATOM     18  C   UNL d   1     -41.255-121.677 -51.697  0.00  0.00     0.004 A 
ENDBRANCH   4  12
TORSDOF 1
ENDMDL
MODEL 3
REMARK VINA RESULT:      -5.1      1.094      3.826
REMARK  1 active torsions:
REMARK  status: ('A' for Active; 'I' for Inactive)
REMARK    1  A    between atoms: C_7  and  C_4 
ROOT
ATOM      1  N   UNL d   1     -41.496-122.171 -51.039  0.00  0.00    -0.211 NA
ATOM      2  C   UNL d   1     -41.347-121.915 -51.818  0.00  0.00     0.140 A 
ATOM      3  C   UNL d   1     -41.318-122.468 -52.430  0.00  0.00     0.051 A 
ATOM      4  C   UNL d   1     -41.614-122.982 -50.888  0.00  0.00     0.183 A 
ATOM      5  C   UNL d   1     -41.436-123.274 -52.276  0.00  0.00     0.104 A 
ATOM      6  O   UNL d   1     -41.584-123.527 -51.505  0.00  0.00    -0.289 OA
ATOM      7  S   UNL d   1     -41.229-121.114 -51.976  0.00  0.00    -0.057 SA
ATOM      8  C   UNL d   1     -41.169-122.217 -53.213  0.00  0.00     0.004 A 
ATOM      9  C   UNL d   1     -41.407-123.817 -52.884  0.00  0.00     0.025 A 
ATOM     10  C   UNL d   1     -41.141-122.773 -53.824  0.00  0.00     0.000 A 
ATOM     11  C   UNL d   1     -41.259-123.570 -53.658  0.00  0.00     0.002 A 
ENDROOT
BRANCH   4  12
ATOM     12  C   UNL d   1     -41.761-123.230 -50.119  0.00  0.00     0.041 A 
ATOM     13  C   UNL d   1     -42.531-123.321 -49.852  0.00  0.00     0.004 A 
ATOM     14  C   UNL d   1     -42.667-123.569 -49.080  0.00  0.00     0.000 A 
ATOM     15  C   UNL d   1     -43.444-123.661 -48.812  0.00  0.00     0.000 C 
ATOM     16  C   UNL d   1     -42.037-123.728 -48.572  0.00  0.00     0.000 A 
ATOM     17  C   UNL d   1     -41.262-123.635 -48.845  0.00  0.00     0.000 A 
ATOM     18  C   UNL d   1     -41.123-123.385 -49.620  0.00  0.00     0.004 A 
ENDBRANCH   4  12
TORSDOF 1
ENDMDL
MODEL 4
REMARK VINA RESULT:      -4.7      1.859      2.809
REMARK  1 active torsions:
REMARK  status: ('A' for Active; 'I' for Inactive)
REMARK    1  A    between atoms: C_7  and  C_4 
ROOT
ATOM      1  N   UNL d   1     -42.742-122.876 -50.265  0.00  0.00    -0.211 NA
ATOM      2  C   UNL d   1     -43.016-123.040 -49.494  0.00  0.00     0.140 A 
ATOM      3  C   UNL d   1     -42.473-123.198 -48.894  0.00  0.00     0.051 A 
ATOM      4  C   UNL d   1     -41.923-122.875 -50.418  0.00  0.00     0.183 A 
ATOM      5  C   UNL d   1     -41.658-123.196 -49.050  0.00  0.00     0.104 A 
ATOM      6  O   UNL d   1     -41.388-123.035 -49.812  0.00  0.00    -0.289 OA
ATOM      7  S   UNL d   1     -43.825-123.043 -49.334  0.00  0.00    -0.057 SA
ATOM      8  C   UNL d   1     -42.742-123.362 -48.120  0.00  0.00     0.004 A 
ATOM      9  C   UNL d   1     -41.125-123.353 -48.454  0.00  0.00     0.025 A 
ATOM     10  C   UNL d   1     -42.195-123.521 -47.521  0.00  0.00     0.000 A 
ATOM     11  C   UNL d   1     -41.391-123.516 -47.688  0.00  0.00     0.002 A 
ENDROOT
BRANCH   4  12
ATOM     12  C   UNL d   1     -41.657-122.714 -51.178  0.00  0.00     0.041 A 
ATOM     13  C   UNL d   1     -41.568-123.319 -51.724  0.00  0.00     0.004 A 
ATOM     14  C   UNL d   1     -41.301-123.147 -52.483  0.00  0.00     0.000 A 
ATOM     15  C   UNL d   1     -41.211-123.759 -53.032  0.00  0.00     0.000 C 
ATOM     16  C   UNL d   1     -41.123-122.372 -52.699  0.00  0.00     0.000 A 
ATOM     17  C   UNL d   1     -41.215-121.764 -52.146  0.00  0.00     0.000 A 
ATOM     18  C   UNL d   1     -41.482-121.934 -51.384  0.00  0.00     0.004 A 
ENDBRANCH   4  12
TORSDOF 1
ENDMDL
