MODEL 1
REMARK VINA RESULT:      -4.3      0.000      0.000
REMARK  7 active torsions:
REMARK  status: ('A' for Active; 'I' for Inactive)
REMARK    1  A    between atoms: C_20  and  N_1 
REMARK       I    between atoms: C_6  and  N_7 
REMARK    2  A    between atoms: C_10  and  C_6 
REMARK    3  A    between atoms: N_7  and  C_24 
REMARK    4  A    between atoms: C_9  and  N_7 
REMARK    5  A    between atoms: O_29  and  C_11 
REMARK    6  A    between atoms: C_23  and  C_20 
REMARK    7  A    between atoms: C_24  and  C_23 
ROOT
ATOM      1  C   UNL d   1     -40.662  13.783  20.433  0.00  0.00     0.085 C 
ENDROOT
BRANCH   1   2
ATOM      2  N   UNL d   1     -40.650  14.198  21.136  0.00  0.00    -0.271 N 
ATOM      3  C   UNL d   1     -41.315  14.183  21.627  0.00  0.00     0.271 C 
ATOM      4  O   UNL d   1     -41.306  14.599  22.335  0.00  0.00    -0.266 OA
BRANCH   3   5
ATOM      5  C   UNL d   1     -41.983  13.752  21.406  0.00  0.00     0.086 A 
ATOM      6  S   UNL d   1     -42.717  14.051  21.168  0.00  0.00    -0.082 SA
ATOM      7  C   UNL d   1     -43.204  13.437  21.004  0.00  0.00     0.036 A 
ATOM      8  C   UNL d   1     -42.814  12.745  21.127  0.00  0.00     0.008 A 
ATOM      9  C   UNL d   1     -42.028  12.932  21.386  0.00  0.00     0.012 A 
ENDBRANCH   3   5
BRANCH   2  10
ATOM     10  C   UNL d   1     -39.985  14.626  21.357  0.00  0.00     0.089 A 
ATOM     11  C   UNL d   1     -39.318  14.241  21.670  0.00  0.00     0.110 A 
ATOM     12  C   UNL d   1     -38.657  14.667  21.889  0.00  0.00     0.026 A 
ATOM     13  C   UNL d   1     -38.642  15.491  21.802  0.00  0.00     0.002 A 
ATOM     14  C   UNL d   1     -39.300  15.868  21.493  0.00  0.00     0.002 A 
ATOM     15  C   UNL d   1     -37.974  15.922  22.023  0.00  0.00     0.000 C 
ATOM     16  C   UNL d   1     -39.961  15.442  21.274  0.00  0.00     0.020 A 
BRANCH  11  17
ATOM     17  O   UNL d   1     -39.323  13.431  21.760  0.00  0.00    -0.327 OA
ATOM     18  C   UNL d   1     -38.639  13.042  21.979  0.00  0.00     0.181 C 
ENDBRANCH  11  17
ENDBRANCH   2  10
ENDBRANCH   1   2
BRANCH   1  19
ATOM     19  C   UNL d   1     -40.395  14.151  19.719  0.00  0.00     0.038 C 
BRANCH  19  20
ATOM     20  C   UNL d   1     -40.504  13.779  18.984  0.00  0.00     0.088 C 
BRANCH  20  21
ATOM     21  N   UNL d   1     -40.128  14.101  18.287  0.00  0.00    -0.240 N 
ATOM     22  C   UNL d   1     -39.397  13.812  18.037  0.00  0.00     0.267 A 
ATOM     23  C   UNL d   1     -39.025  14.117  17.364  0.00  0.00     0.057 A 
ATOM     24  O   UNL d   1     -39.008  13.188  18.471  0.00  0.00    -0.267 OA
ATOM     25  C   UNL d   1     -38.309  13.834  17.118  0.00  0.00     0.005 A 
ATOM     26  C   UNL d   1     -39.411  14.725  16.944  0.00  0.00     0.009 A 
ATOM     27  C   UNL d   1     -37.941  14.145  16.441  0.00  0.00     0.000 A 
ATOM     28  C   UNL d   1     -38.323  14.744  16.030  0.00  0.00     0.000 A 
ATOM     29  C   UNL d   1     -39.039  15.027  16.275  0.00  0.00     0.000 A 
ATOM     30  C   UNL d   1     -39.424  15.633  15.859  0.00  0.00     0.000 A 
ATOM     31  C   UNL d   1     -40.155  15.922  16.109  0.00  0.00     0.000 A 
ATOM     32  C   UNL d   1     -40.520  15.612  16.783  0.00  0.00     0.005 A 
ATOM     33  C   UNL d   1     -40.142  15.014  17.195  0.00  0.00     0.057 A 
ATOM     34  C   UNL d   1     -40.506  14.702  17.871  0.00  0.00     0.267 A 
ATOM     35  O   UNL d   1     -41.249  14.995  18.126  0.00  0.00    -0.267 OA
ENDBRANCH  20  21
ENDBRANCH  19  20
ENDBRANCH   1  19
TORSDOF 7
ENDMDL
