MODEL 1
REMARK VINA RESULT:      -9.2      0.000      0.000
REMARK  3 active torsions:
REMARK  status: ('A' for Active; 'I' for Inactive)
REMARK    1  A    between atoms: C_10  and  C_2 
REMARK    2  A    between atoms: C_13  and  C_6 
REMARK    3  A    between atoms: O_17  and  C_10 
ROOT
ATOM      1  C   UNL d   1     -47.771  12.547  23.147  0.00  0.00     0.081 A 
ATOM      2  C   UNL d   1     -48.262  13.831  22.786  0.00  0.00     0.106 A 
ATOM      3  C   UNL d   1     -47.487  14.128  22.789  0.00  0.00     0.208 A 
ATOM      4  C   UNL d   1     -47.005  12.837  23.151  0.00  0.00     0.108 A 
ATOM      5  C   UNL d   1     -47.914  11.745  23.329  0.00  0.00     0.281 A 
ATOM      6  C   UNL d   1     -48.399  13.040  22.966  0.00  0.00     0.015 A 
ATOM      7  O   UNL d   1     -46.863  13.627  22.972  0.00  0.00    -0.288 OA
ATOM      8  N   UNL d   1     -47.283  11.243  23.513  0.00  0.00    -0.208 NA
ATOM      9  C   UNL d   1     -46.374  12.335  23.335  0.00  0.00     0.044 A 
ATOM     10  C   UNL d   1     -46.507  11.545  23.515  0.00  0.00     0.087 A 
ATOM     11  O   UNL d   1     -48.688  11.456  23.325  0.00  0.00    -0.265 OA
ATOM     12  N   UNL d   1     -47.357  14.920  22.608  0.00  0.00    -0.121 N 
ATOM     13  C   UNL d   1     -45.884  11.044  23.698  0.00  0.00     0.021 C 
ENDROOT
BRANCH   6  14
ATOM     14  C   UNL d   1     -49.173  12.748  22.962  0.00  0.00     0.004 A 
ATOM     15  C   UNL d   1     -49.498  12.465  22.251  0.00  0.00     0.021 A 
ATOM     16  C   UNL d   1     -50.269  12.174  22.245  0.00  0.00     0.099 A 
ATOM     17  N   UNL d   1     -50.716  12.164  22.944  0.00  0.00    -0.242 NA
ATOM     18  C   UNL d   1     -50.383  12.450  23.654  0.00  0.00     0.099 A 
ATOM     19  C   UNL d   1     -49.610  12.741  23.655  0.00  0.00     0.021 A 
ENDBRANCH   6  14
BRANCH   2  20
ATOM     20  C   UNL d   1     -48.893  14.329  22.603  0.00  0.00     0.299 C 
ATOM     21  O   UNL d   1     -49.208  14.343  21.840  0.00  0.00    -0.259 OA
BRANCH  20  22
ATOM     22  O   UNL d   1     -49.217  14.822  23.194  0.00  0.00    -0.296 OA
ATOM     23  C   UNL d   1     -49.571  15.530  22.975  0.00  0.00     0.185 C 
ENDBRANCH  20  22
ENDBRANCH   2  20
TORSDOF 3
ENDMDL
MODEL 2
REMARK VINA RESULT:      -8.8      1.288      2.974
REMARK  3 active torsions:
REMARK  status: ('A' for Active; 'I' for Inactive)
REMARK    1  A    between atoms: C_10  and  C_2 
REMARK    2  A    between atoms: C_13  and  C_6 
REMARK    3  A    between atoms: O_17  and  C_10 
ROOT
ATOM      1  C   UNL d   1     -48.671  13.990  22.934  0.00  0.00     0.081 A 
ATOM      2  C   UNL d   1     -47.267  13.790  22.842  0.00  0.00     0.106 A 
ATOM      3  C   UNL d   1     -47.152  14.611  22.807  0.00  0.00     0.208 A 
ATOM      4  C   UNL d   1     -48.560  14.801  22.900  0.00  0.00     0.108 A 
ATOM      5  C   UNL d   1     -49.442  13.676  22.999  0.00  0.00     0.281 A 
ATOM      6  C   UNL d   1     -48.028  13.483  22.905  0.00  0.00     0.015 A 
ATOM      7  O   UNL d   1     -47.801  15.110  22.837  0.00  0.00    -0.288 OA
ATOM      8  N   UNL d   1     -50.094  14.184  23.029  0.00  0.00    -0.208 NA
ATOM      9  C   UNL d   1     -49.213  15.308  22.930  0.00  0.00     0.044 A 
ATOM     10  C   UNL d   1     -49.975  15.007  22.994  0.00  0.00     0.087 A 
ATOM     11  O   UNL d   1     -49.549  12.858  23.033  0.00  0.00    -0.265 OA
ATOM     12  N   UNL d   1     -46.388  14.909  22.744  0.00  0.00    -0.121 N 
ATOM     13  C   UNL d   1     -50.624  15.507  23.023  0.00  0.00     0.021 C 
ENDROOT
BRANCH   6  14
ATOM     14  C   UNL d   1     -48.138  12.664  22.939  0.00  0.00     0.004 A 
ATOM     15  C   UNL d   1     -48.301  12.246  22.240  0.00  0.00     0.021 A 
ATOM     16  C   UNL d   1     -48.411  11.429  22.272  0.00  0.00     0.099 A 
ATOM     17  N   UNL d   1     -48.359  11.030  22.997  0.00  0.00    -0.242 NA
ATOM     18  C   UNL d   1     -48.195  11.458  23.696  0.00  0.00     0.099 A 
ATOM     19  C   UNL d   1     -48.085  12.275  23.659  0.00  0.00     0.021 A 
ENDBRANCH   6  14
BRANCH   2  20
ATOM     20  C   UNL d   1     -46.618  13.281  22.812  0.00  0.00     0.299 C 
ATOM     21  O   UNL d   1     -46.300  12.966  23.506  0.00  0.00    -0.259 OA
BRANCH  20  22
ATOM     22  O   UNL d   1     -46.280  13.082  22.075  0.00  0.00    -0.296 OA
ATOM     23  C   UNL d   1     -45.470  12.958  22.026  0.00  0.00     0.185 C 
ENDBRANCH  20  22
ENDBRANCH   2  20
TORSDOF 3
ENDMDL
MODEL 3
REMARK VINA RESULT:      -8.8      1.153      1.350
REMARK  3 active torsions:
REMARK  status: ('A' for Active; 'I' for Inactive)
REMARK    1  A    between atoms: C_10  and  C_2 
REMARK    2  A    between atoms: C_13  and  C_6 
REMARK    3  A    between atoms: O_17  and  C_10 
ROOT
ATOM      1  C   UNL d   1     -47.903  13.519  22.747  0.00  0.00     0.081 A 
ATOM      2  C   UNL d   1     -49.078  14.316  22.819  0.00  0.00     0.106 A 
ATOM      3  C   UNL d   1     -48.616  15.002  22.750  0.00  0.00     0.208 A 
ATOM      4  C   UNL d   1     -47.445  14.194  22.679  0.00  0.00     0.108 A 
ATOM      5  C   UNL d   1     -47.541  12.767  22.746  0.00  0.00     0.281 A 
ATOM      6  C   UNL d   1     -48.717  13.576  22.817  0.00  0.00     0.015 A 
ATOM      7  O   UNL d   1     -47.802  14.935  22.681  0.00  0.00    -0.288 OA
ATOM      8  N   UNL d   1     -46.719  12.703  22.675  0.00  0.00    -0.208 NA
ATOM      9  C   UNL d   1     -46.623  14.130  22.608  0.00  0.00     0.044 A 
ATOM     10  C   UNL d   1     -46.260  13.393  22.606  0.00  0.00     0.087 A 
ATOM     11  O   UNL d   1     -48.006  12.088  22.815  0.00  0.00    -0.265 OA
ATOM     12  N   UNL d   1     -48.984  15.738  22.753  0.00  0.00    -0.121 N 
ATOM     13  C   UNL d   1     -45.445  13.326  22.536  0.00  0.00     0.021 C 
ENDROOT
BRANCH   6  14
ATOM     14  C   UNL d   1     -49.181  12.895  22.886  0.00  0.00     0.004 A 
ATOM     15  C   UNL d   1     -49.502  12.550  22.202  0.00  0.00     0.021 A 
ATOM     16  C   UNL d   1     -49.965  11.871  22.268  0.00  0.00     0.099 A 
ATOM     17  N   UNL d   1     -50.108  11.536  23.014  0.00  0.00    -0.242 NA
ATOM     18  C   UNL d   1     -49.782  11.888  23.697  0.00  0.00     0.099 A 
ATOM     19  C   UNL d   1     -49.319  12.568  23.625  0.00  0.00     0.021 A 
ENDBRANCH   6  14
BRANCH   2  20
ATOM     20  C   UNL d   1     -49.897  14.376  22.890  0.00  0.00     0.299 C 
ATOM     21  O   UNL d   1     -50.383  14.287  22.228  0.00  0.00    -0.259 OA
BRANCH  20  22
ATOM     22  O   UNL d   1     -50.240  14.528  23.636  0.00  0.00    -0.296 OA
ATOM     23  C   UNL d   1     -50.951  14.935  23.676  0.00  0.00     0.185 C 
ENDBRANCH  20  22
ENDBRANCH   2  20
TORSDOF 3
ENDMDL
MODEL 4
REMARK VINA RESULT:      -8.3      1.236      2.469
REMARK  3 active torsions:
REMARK  status: ('A' for Active; 'I' for Inactive)
REMARK    1  A    between atoms: C_10  and  C_2 
REMARK    2  A    between atoms: C_13  and  C_6 
REMARK    3  A    between atoms: O_17  and  C_10 
ROOT
ATOM      1  C   UNL d   1     -47.959  13.531  22.714  0.00  0.00     0.081 A 
ATOM      2  C   UNL d   1     -49.145  12.759  22.848  0.00  0.00     0.106 A 
ATOM      3  C   UNL d   1     -48.689  12.068  22.893  0.00  0.00     0.208 A 
ATOM      4  C   UNL d   1     -47.506  12.850  22.758  0.00  0.00     0.108 A 
ATOM      5  C   UNL d   1     -47.588  14.274  22.623  0.00  0.00     0.281 A 
ATOM      6  C   UNL d   1     -48.775  13.490  22.759  0.00  0.00     0.015 A 
ATOM      7  O   UNL d   1     -47.872  12.119  22.847  0.00  0.00    -0.288 OA
ATOM      8  N   UNL d   1     -46.763  14.321  22.577  0.00  0.00    -0.208 NA
ATOM      9  C   UNL d   1     -46.682  12.898  22.712  0.00  0.00     0.044 A 
ATOM     10  C   UNL d   1     -46.310  13.625  22.622  0.00  0.00     0.087 A 
ATOM     11  O   UNL d   1     -48.047  14.958  22.580  0.00  0.00    -0.265 OA
ATOM     12  N   UNL d   1     -49.065  11.341  22.982  0.00  0.00    -0.121 N 
ATOM     13  C   UNL d   1     -45.492  13.676  22.577  0.00  0.00     0.021 C 
ENDROOT
BRANCH   6  14
ATOM     14  C   UNL d   1     -49.234  14.177  22.715  0.00  0.00     0.004 A 
ATOM     15  C   UNL d   1     -49.528  14.424  21.978  0.00  0.00     0.021 A 
ATOM     16  C   UNL d   1     -49.984  15.109  21.931  0.00  0.00     0.099 A 
ATOM     17  N   UNL d   1     -50.148  15.547  22.617  0.00  0.00    -0.242 NA
ATOM     18  C   UNL d   1     -49.849  15.292  23.354  0.00  0.00     0.099 A 
ATOM     19  C   UNL d   1     -49.392  14.606  23.395  0.00  0.00     0.021 A 
ENDBRANCH   6  14
BRANCH   2  20
ATOM     20  C   UNL d   1     -49.967  12.715  22.893  0.00  0.00     0.299 C 
ATOM     21  O   UNL d   1     -50.426  12.727  22.207  0.00  0.00    -0.259 OA
BRANCH  20  22
ATOM     22  O   UNL d   1     -50.339  12.658  23.639  0.00  0.00    -0.296 OA
ATOM     23  C   UNL d   1     -51.062  12.275  23.698  0.00  0.00     0.185 C 
ENDBRANCH  20  22
ENDBRANCH   2  20
TORSDOF 3
ENDMDL
MODEL 5
REMARK VINA RESULT:      -7.9      1.212      3.694
REMARK  3 active torsions:
REMARK  status: ('A' for Active; 'I' for Inactive)
REMARK    1  A    between atoms: C_10  and  C_2 
REMARK    2  A    between atoms: C_13  and  C_6 
REMARK    3  A    between atoms: O_17  and  C_10 
ROOT
ATOM      1  C   UNL d   1     -48.932  13.903  23.062  0.00  0.00     0.081 A 
ATOM      2  C   UNL d   1     -48.773  12.491  23.117  0.00  0.00     0.106 A 
ATOM      3  C   UNL d   1     -49.564  12.412  23.353  0.00  0.00     0.208 A 
ATOM      4  C   UNL d   1     -49.713  13.828  23.295  0.00  0.00     0.108 A 
ATOM      5  C   UNL d   1     -48.611  14.660  22.915  0.00  0.00     0.281 A 
ATOM      6  C   UNL d   1     -48.460  13.239  22.972  0.00  0.00     0.015 A 
ATOM      7  O   UNL d   1     -50.029  13.083  23.440  0.00  0.00    -0.288 OA
ATOM      8  N   UNL d   1     -49.082  15.333  23.004  0.00  0.00    -0.208 NA
ATOM      9  C   UNL d   1     -50.184  14.501  23.384  0.00  0.00     0.044 A 
ATOM     10  C   UNL d   1     -49.876  15.249  23.241  0.00  0.00     0.087 A 
ATOM     11  O   UNL d   1     -47.823  14.732  22.680  0.00  0.00    -0.265 OA
ATOM     12  N   UNL d   1     -49.870  11.662  23.496  0.00  0.00    -0.121 N 
ATOM     13  C   UNL d   1     -50.340  15.920  23.328  0.00  0.00     0.021 C 
ENDROOT
BRANCH   6  14
ATOM     14  C   UNL d   1     -47.671  13.314  22.737  0.00  0.00     0.004 A 
ATOM     15  C   UNL d   1     -47.088  13.468  23.309  0.00  0.00     0.021 A 
ATOM     16  C   UNL d   1     -46.301  13.542  23.078  0.00  0.00     0.099 A 
ATOM     17  N   UNL d   1     -46.093  13.464  22.278  0.00  0.00    -0.242 NA
ATOM     18  C   UNL d   1     -46.684  13.310  21.709  0.00  0.00     0.099 A 
ATOM     19  C   UNL d   1     -47.472  13.235  21.946  0.00  0.00     0.021 A 
ENDBRANCH   6  14
BRANCH   2  20
ATOM     20  C   UNL d   1     -48.300  11.822  23.027  0.00  0.00     0.299 C 
ATOM     21  O   UNL d   1     -48.235  11.450  22.293  0.00  0.00    -0.259 OA
BRANCH  20  22
ATOM     22  O   UNL d   1     -47.884  11.516  23.684  0.00  0.00    -0.296 OA
ATOM     23  C   UNL d   1     -47.686  10.720  23.698  0.00  0.00     0.185 C 
ENDBRANCH  20  22
ENDBRANCH   2  20
TORSDOF 3
ENDMDL
MODEL 6
REMARK VINA RESULT:      -7.7      0.922      3.108
REMARK  3 active torsions:
REMARK  status: ('A' for Active; 'I' for Inactive)
REMARK    1  A    between atoms: C_10  and  C_2 
REMARK    2  A    between atoms: C_13  and  C_6 
REMARK    3  A    between atoms: O_17  and  C_10 
ROOT
ATOM      1  C   UNL d   1     -48.647  12.589  23.221  0.00  0.00     0.081 A 
ATOM      2  C   UNL d   1     -47.226  12.618  23.217  0.00  0.00     0.106 A 
ATOM      3  C   UNL d   1     -47.210  11.852  23.536  0.00  0.00     0.208 A 
ATOM      4  C   UNL d   1     -48.634  11.833  23.536  0.00  0.00     0.108 A 
ATOM      5  C   UNL d   1     -49.377  12.962  23.061  0.00  0.00     0.281 A 
ATOM      6  C   UNL d   1     -47.947  12.982  23.061  0.00  0.00     0.015 A 
ATOM      7  O   UNL d   1     -47.916  11.465  23.694  0.00  0.00    -0.288 OA
ATOM      8  N   UNL d   1     -50.087  12.569  23.220  0.00  0.00    -0.208 NA
ATOM      9  C   UNL d   1     -49.344  11.440  23.696  0.00  0.00     0.044 A 
ATOM     10  C   UNL d   1     -50.066  11.801  23.541  0.00  0.00     0.087 A 
ATOM     11  O   UNL d   1     -49.386  13.724  22.743  0.00  0.00    -0.265 OA
ATOM     12  N   UNL d   1     -46.486  11.494  23.690  0.00  0.00    -0.121 N 
ATOM     13  C   UNL d   1     -50.772  11.414  23.698  0.00  0.00     0.021 C 
ENDROOT
BRANCH   6  14
ATOM     14  C   UNL d   1     -47.959  13.746  22.742  0.00  0.00     0.004 A 
ATOM     15  C   UNL d   1     -47.896  14.400  23.250  0.00  0.00     0.021 A 
ATOM     16  C   UNL d   1     -47.908  15.162  22.936  0.00  0.00     0.099 A 
ATOM     17  N   UNL d   1     -47.981  15.273  22.116  0.00  0.00    -0.242 NA
ATOM     18  C   UNL d   1     -48.043  14.610  21.612  0.00  0.00     0.099 A 
ATOM     19  C   UNL d   1     -48.031  13.849  21.932  0.00  0.00     0.021 A 
ENDBRANCH   6  14
BRANCH   2  20
ATOM     20  C   UNL d   1     -46.520  13.013  23.056  0.00  0.00     0.299 C 
ATOM     21  O   UNL d   1     -46.190  13.524  23.614  0.00  0.00    -0.259 OA
BRANCH  20  22
ATOM     22  O   UNL d   1     -46.136  12.895  22.324  0.00  0.00    -0.296 OA
ATOM     23  C   UNL d   1     -45.327  13.020  22.272  0.00  0.00     0.185 C 
ENDBRANCH  20  22
ENDBRANCH   2  20
TORSDOF 3
ENDMDL
MODEL 7
REMARK VINA RESULT:      -7.6      0.958      2.342
REMARK  3 active torsions:
REMARK  status: ('A' for Active; 'I' for Inactive)
REMARK    1  A    between atoms: C_10  and  C_2 
REMARK    2  A    between atoms: C_13  and  C_6 
REMARK    3  A    between atoms: O_17  and  C_10 
ROOT
ATOM      1  C   UNL d   1     -47.690  12.305  23.235  0.00  0.00     0.081 A 
ATOM      2  C   UNL d   1     -49.110  12.369  23.234  0.00  0.00     0.106 A 
ATOM      3  C   UNL d   1     -49.144  11.600  23.546  0.00  0.00     0.208 A 
ATOM      4  C   UNL d   1     -47.721  11.547  23.543  0.00  0.00     0.108 A 
ATOM      5  C   UNL d   1     -46.952  12.662  23.078  0.00  0.00     0.281 A 
ATOM      6  C   UNL d   1     -48.381  12.717  23.080  0.00  0.00     0.015 A 
ATOM      7  O   UNL d   1     -48.448  11.195  23.698  0.00  0.00    -0.288 OA
ATOM      8  N   UNL d   1     -46.252  12.250  23.233  0.00  0.00    -0.208 NA
ATOM      9  C   UNL d   1     -47.021  11.135  23.698  0.00  0.00     0.044 A 
ATOM     10  C   UNL d   1     -46.290  11.480  23.545  0.00  0.00     0.087 A 
ATOM     11  O   UNL d   1     -46.925  13.427  22.767  0.00  0.00    -0.265 OA
ATOM     12  N   UNL d   1     -49.877  11.258  23.697  0.00  0.00    -0.121 N 
ATOM     13  C   UNL d   1     -45.594  11.075  23.698  0.00  0.00     0.021 C 
ENDROOT
BRANCH   6  14
ATOM     14  C   UNL d   1     -48.351  13.483  22.769  0.00  0.00     0.004 A 
ATOM     15  C   UNL d   1     -48.333  13.588  21.945  0.00  0.00     0.021 A 
ATOM     16  C   UNL d   1     -48.303  14.350  21.632  0.00  0.00     0.099 A 
ATOM     17  N   UNL d   1     -48.292  15.007  22.139  0.00  0.00    -0.242 NA
ATOM     18  C   UNL d   1     -48.310  14.894  22.966  0.00  0.00     0.099 A 
ATOM     19  C   UNL d   1     -48.340  14.128  23.274  0.00  0.00     0.021 A 
ENDBRANCH   6  14
BRANCH   2  20
ATOM     20  C   UNL d   1     -49.807  12.782  23.078  0.00  0.00     0.299 C 
ATOM     21  O   UNL d   1     -50.085  13.349  23.610  0.00  0.00    -0.259 OA
BRANCH  20  22
ATOM     22  O   UNL d   1     -50.234  12.626  22.378  0.00  0.00    -0.296 OA
ATOM     23  C   UNL d   1     -51.053  12.680  22.387  0.00  0.00     0.185 C 
ENDBRANCH  20  22
ENDBRANCH   2  20
TORSDOF 3
ENDMDL
