MODEL 1
REMARK VINA RESULT:      66.5      0.000      0.000
REMARK  2 active torsions:
REMARK  status: ('A' for Active; 'I' for Inactive)
REMARK    1  A    between atoms: C_10  and  C_4 
REMARK       I    between atoms: N_12  and  C_10 
REMARK       I    between atoms: C_11  and  N_13 
REMARK    2  A    between atoms: C_14  and  C_11 
ROOT
ATOM      1  C   UNL d   1      46.420 -19.441  42.016  0.00  0.00     0.154 A 
ATOM      2  C   UNL d   1      46.221 -18.649  42.119  0.00  0.00     0.093 A 
ATOM      3  N   UNL d   1      46.552 -19.925  42.682  0.00  0.00    -0.211 NA
ATOM      4  C   UNL d   1      46.265 -18.898  40.807  0.00  0.00     0.122 A 
ATOM      5  N   UNL d   1      46.447 -19.595  41.209  0.00  0.00    -0.285 N 
ATOM      6  C   UNL d   1      46.152 -18.331  42.880  0.00  0.00     0.269 A 
ATOM      7  N   UNL d   1      46.281 -18.805  43.539  0.00  0.00    -0.259 N 
ATOM      8  C   UNL d   1      46.483 -19.610  43.443  0.00  0.00     0.140 A 
ATOM      9  C   UNL d   1      46.126 -18.315  41.375  0.00  0.00     0.030 A 
ATOM     10  C   UNL d   1      46.213 -18.491  44.299  0.00  0.00     0.084 A 
ATOM     11  O   UNL d   1      45.952 -17.533  42.980  0.00  0.00    -0.266 OA
ATOM     12  C   UNL d   1      46.613 -20.084  44.092  0.00  0.00     0.064 A 
ATOM     13  C   UNL d   1      46.344 -18.972  44.953  0.00  0.00     0.018 A 
ATOM     14  C   UNL d   1      46.546 -19.777  44.848  0.00  0.00    -0.008 A 
ATOM     15  C   UNL d   1      46.626 -20.325  40.862  0.00  0.00     0.101 C 
ENDROOT
BRANCH   4  16
ATOM     16  C   UNL d   1      46.228 -18.800  39.986  0.00  0.00     0.281 C 
ATOM     17  N   UNL d   1      45.774 -18.193  39.666  0.00  0.00    -0.268 N 
ATOM     18  C   UNL d   1      45.737 -18.095  38.845  0.00  0.00     0.102 A 
ATOM     19  C   UNL d   1      45.355 -17.681  40.158  0.00  0.00     0.102 A 
ATOM     20  C   UNL d   1      45.282 -17.486  38.516  0.00  0.00     0.102 A 
ATOM     21  N   UNL d   1      44.867 -16.979  39.012  0.00  0.00    -0.267 N 
ATOM     22  C   UNL d   1      44.412 -16.370  38.687  0.00  0.00     0.288 C 
ATOM     23  C   UNL d   1      44.911 -17.086  39.832  0.00  0.00     0.102 A 
ATOM     24  O   UNL d   1      43.997 -15.863  39.183  0.00  0.00    -0.264 OA
ATOM     25  O   UNL d   1      46.646 -19.311  39.494  0.00  0.00    -0.265 OA
BRANCH  22  26
ATOM     26  C   UNL d   1      44.384 -16.283  37.865  0.00  0.00     0.156 A 
ATOM     27  O   UNL d   1      43.774 -16.550  37.376  0.00  0.00    -0.300 OA
ATOM     28  C   UNL d   1      43.958 -16.355  36.605  0.00  0.00     0.123 A 
ATOM     29  C   UNL d   1      44.686 -15.963  36.599  0.00  0.00     0.029 A 
ATOM     30  C   UNL d   1      44.945 -15.921  37.381  0.00  0.00     0.032 A 
ENDBRANCH  22  26
ENDBRANCH   4  16
TORSDOF 2
ENDMDL
