MODEL 1
REMARK VINA RESULT:       3.5      0.000      0.000
REMARK  5 active torsions:
REMARK  status: ('A' for Active; 'I' for Inactive)
REMARK    1  A    between atoms: C_6  and  N_1 
REMARK    2  A    between atoms: C_5  and  C_3 
REMARK    3  A    between atoms: C_11  and  C_4 
REMARK    4  A    between atoms: N_13  and  C_6 
REMARK    5  A    between atoms: O_23  and  C_19 
ROOT
ATOM      1  N   UNL d   1     -42.894-122.705 -50.422  0.00  0.00    -0.203 N 
ATOM      2  N   UNL d   1     -42.891-122.578 -51.252  0.00  0.00    -0.163 NA
ATOM      3  C   UNL d   1     -42.139-122.832 -50.158  0.00  0.00     0.088 A 
ATOM      4  C   UNL d   1     -42.110-122.632 -51.484  0.00  0.00     0.103 A 
ATOM      5  C   UNL d   1     -41.649-122.786 -50.824  0.00  0.00     0.040 A 
ENDROOT
BRANCH   3   6
ATOM      6  C   UNL d   1     -41.890-122.975 -49.409  0.00  0.00     0.029 A 
ATOM      7  C   UNL d   1     -41.404-122.429 -49.023  0.00  0.00     0.060 A 
ATOM      8  C   UNL d   1     -41.157-122.577 -48.272  0.00  0.00     0.023 A 
ATOM      9 CL   UNL d   1     -41.181-121.735 -49.420  0.00  0.00    -0.082 Cl
ATOM     10  C   UNL d   1     -41.383-123.271 -47.880  0.00  0.00     0.059 A 
ATOM     11  C   UNL d   1     -41.847-123.794 -48.247  0.00  0.00     0.011 A 
ATOM     12 CL   UNL d   1     -41.134-123.430 -47.111  0.00  0.00    -0.082 Cl
ATOM     13  C   UNL d   1     -42.108-123.652 -49.023  0.00  0.00     0.003 A 
ENDBRANCH   3   6
BRANCH   1  14
ATOM     14  C   UNL d   1     -43.594-122.697 -49.953  0.00  0.00     0.222 C 
ATOM     15  S   UNL d   1     -43.944-123.418 -49.714  0.00  0.00    -0.037 SA
BRANCH  14  16
ATOM     16  N   UNL d   1     -43.925-121.981 -49.736  0.00  0.00    -0.214 NA
ATOM     17  C   UNL d   1     -44.705-121.789 -49.952  0.00  0.00     0.122 C 
ENDBRANCH  14  16
ENDBRANCH   1  14
BRANCH   4  18
ATOM     18  C   UNL d   1     -41.875-122.542 -52.250  0.00  0.00     0.019 A 
ATOM     19  C   UNL d   1     -41.491-123.162 -52.636  0.00  0.00     0.004 A 
ATOM     20  C   UNL d   1     -41.243-123.089 -53.416  0.00  0.00     0.024 A 
ATOM     21  C   UNL d   1     -41.388-122.365 -53.822  0.00  0.00     0.094 A 
ATOM     22  C   UNL d   1     -41.772-121.746 -53.435  0.00  0.00     0.024 A 
ATOM     23  C   UNL d   1     -42.017-121.832 -52.648  0.00  0.00     0.004 A 
BRANCH  21  24
ATOM     24  O   UNL d   1     -41.140-122.275 -54.622  0.00  0.00    -0.328 OA
ATOM     25  C   UNL d   1     -41.502-122.713 -55.220  0.00  0.00     0.181 C 
ENDBRANCH  21  24
ENDBRANCH   4  18
TORSDOF 5
ENDMDL
MODEL 2
REMARK VINA RESULT:       5.6      1.594      2.208
REMARK  5 active torsions:
REMARK  status: ('A' for Active; 'I' for Inactive)
REMARK    1  A    between atoms: C_6  and  N_1 
REMARK    2  A    between atoms: C_5  and  C_3 
REMARK    3  A    between atoms: C_11  and  C_4 
REMARK    4  A    between atoms: N_13  and  C_6 
REMARK    5  A    between atoms: O_23  and  C_19 
ROOT
ATOM      1  N   UNL d   1     -41.580-121.669 -51.599  0.00  0.00    -0.203 N 
ATOM      2  N   UNL d   1     -41.541-121.528 -52.426  0.00  0.00    -0.163 NA
ATOM      3  C   UNL d   1     -41.942-122.380 -51.455  0.00  0.00     0.088 A 
ATOM      4  C   UNL d   1     -41.891-122.175 -52.780  0.00  0.00     0.103 A 
ATOM      5  C   UNL d   1     -42.136-122.695 -52.195  0.00  0.00     0.040 A 
ENDROOT
BRANCH   3   6
ATOM      6  C   UNL d   1     -42.094-122.728 -50.749  0.00  0.00     0.029 A 
ATOM      7  C   UNL d   1     -42.819-122.605 -50.374  0.00  0.00     0.060 A 
ATOM      8  C   UNL d   1     -42.967-122.957 -49.665  0.00  0.00     0.023 A 
ATOM      9 CL   UNL d   1     -43.385-122.118 -50.737  0.00  0.00    -0.082 Cl
ATOM     10  C   UNL d   1     -42.398-123.443 -49.307  0.00  0.00     0.059 A 
ATOM     11  C   UNL d   1     -41.704-123.562 -49.664  0.00  0.00     0.011 A 
ATOM     12 CL   UNL d   1     -42.542-123.807 -48.582  0.00  0.00    -0.082 Cl
ATOM     13  C   UNL d   1     -41.541-123.203 -50.395  0.00  0.00     0.003 A 
ENDBRANCH   3   6
BRANCH   1  14
ATOM     14  C   UNL d   1     -41.280-121.134 -51.021  0.00  0.00     0.222 C 
ATOM     15  S   UNL d   1     -41.138-121.400 -50.242  0.00  0.00    -0.037 SA
BRANCH  14  16
ATOM     16  N   UNL d   1     -41.129-120.357 -51.231  0.00  0.00    -0.214 NA
ATOM     17  C   UNL d   1     -41.123-119.755 -50.657  0.00  0.00     0.122 C 
ENDBRANCH  14  16
ENDBRANCH   1  14
BRANCH   4  18
ATOM     18  C   UNL d   1     -41.962-122.250 -53.579  0.00  0.00     0.019 A 
ATOM     19  C   UNL d   1     -42.623-121.938 -53.962  0.00  0.00     0.004 A 
ATOM     20  C   UNL d   1     -42.714-122.004 -54.776  0.00  0.00     0.024 A 
ATOM     21  C   UNL d   1     -42.117-122.400 -55.221  0.00  0.00     0.094 A 
ATOM     22  C   UNL d   1     -41.457-122.711 -54.837  0.00  0.00     0.024 A 
ATOM     23  C   UNL d   1     -41.377-122.638 -54.015  0.00  0.00     0.004 A 
BRANCH  21  24
ATOM     24  O   UNL d   1     -42.197-122.475 -56.055  0.00  0.00    -0.328 OA
ATOM     25  C   UNL d   1     -42.315-121.806 -56.524  0.00  0.00     0.181 C 
ENDBRANCH  21  24
ENDBRANCH   4  18
TORSDOF 5
ENDMDL
