MODEL 1
REMARK VINA RESULT:      70.3      0.000      0.000
REMARK  3 active torsions:
REMARK  status: ('A' for Active; 'I' for Inactive)
REMARK       I    between atoms: C_4  and  N_1 
REMARK    1  A    between atoms: C_7  and  C_3 
REMARK    2  A    between atoms: C_9  and  C_4 
REMARK    3  A    between atoms: C_8  and  C_5 
ROOT
ATOM      1  N   UNL d   1      60.286  48.816  50.953  0.00  0.00    -0.191 N 
ATOM      2  N   UNL d   1      59.678  48.807  50.407  0.00  0.00    -0.163 NA
ATOM      3  C   UNL d   1      60.015  49.284  51.601  0.00  0.00     0.110 A 
ATOM      4  C   UNL d   1      61.006  48.453  50.893  0.00  0.00     0.303 C 
ATOM      5  C   UNL d   1      59.044  49.251  50.693  0.00  0.00     0.103 A 
ATOM      6  C   UNL d   1      59.250  49.540  51.420  0.00  0.00     0.042 A 
ATOM      7  O   UNL d   1      61.574  48.537  51.545  0.00  0.00    -0.263 OA
ENDROOT
BRANCH   3   8
ATOM      8  C   UNL d   1      60.442  49.451  52.287  0.00  0.00     0.118 A 
ATOM      9  O   UNL d   1      60.122  49.546  53.028  0.00  0.00    -0.304 OA
ATOM     10  C   UNL d   1      60.746  49.708  53.561  0.00  0.00     0.123 A 
ATOM     11  C   UNL d   1      61.447  49.708  53.126  0.00  0.00     0.029 A 
ATOM     12  C   UNL d   1      61.245  49.546  52.330  0.00  0.00     0.028 A 
ENDBRANCH   3   8
BRANCH   4  13
ATOM     13  C   UNL d   1      61.221  48.010  50.241  0.00  0.00     0.158 A 
ATOM     14  O   UNL d   1      61.335  48.283  49.475  0.00  0.00    -0.300 OA
ATOM     15  C   UNL d   1      61.546  47.654  48.994  0.00  0.00     0.123 A 
ATOM     16  C   UNL d   1      61.563  46.979  49.461  0.00  0.00     0.029 A 
ATOM     17  C   UNL d   1      61.363  47.192  50.236  0.00  0.00     0.032 A 
ENDBRANCH   4  13
BRANCH   5  18
ATOM     18  C   UNL d   1      58.327  49.363  50.283  0.00  0.00     0.019 A 
ATOM     19  C   UNL d   1      57.657  49.451  50.712  0.00  0.00     0.002 A 
ATOM     20  C   UNL d   1      56.931  49.564  50.339  0.00  0.00     0.007 A 
ATOM     21  C   UNL d   1      56.900  49.586  49.524  0.00  0.00     0.035 A 
ATOM     22  C   UNL d   1      57.587  49.497  49.061  0.00  0.00     0.007 A 
ATOM     23 BR   UNL d   1      56.171  49.700  49.156  0.00  0.00    -0.049 Br
ATOM     24  C   UNL d   1      58.324  49.381  49.463  0.00  0.00     0.002 A 
ENDBRANCH   5  18
TORSDOF 3
ENDMDL
