MODEL 1
REMARK VINA RESULT:      -7.4      0.000      0.000
REMARK  5 active torsions:
REMARK  status: ('A' for Active; 'I' for Inactive)
REMARK    1  A    between atoms: C_9  and  N_2 
REMARK    2  A    between atoms: C_8  and  O_11 
REMARK    3  A    between atoms: C_12  and  C_9 
REMARK    4  A    between atoms: O_11  and  C_15 
REMARK    5  A    between atoms: C_15  and  C_12 
ROOT
ATOM      1  C   UNL d   1     -46.798  13.753  22.602  0.00  0.00     0.087 C 
ENDROOT
BRANCH   1   2
ATOM      2  N   UNL d   1     -46.349  13.080  22.772  0.00  0.00    -0.251 N 
ATOM      3  C   UNL d   1     -45.547  13.144  22.571  0.00  0.00     0.378 A 
ATOM      4  O   UNL d   1     -45.162  12.444  22.766  0.00  0.00    -0.258 OA
ATOM      5  O   UNL d   1     -45.193  13.811  22.227  0.00  0.00    -0.237 OA
ATOM      6  C   UNL d   1     -45.740  11.929  23.098  0.00  0.00     0.121 A 
ATOM      7  C   UNL d   1     -45.686  11.160  23.393  0.00  0.00     0.026 A 
ATOM      8  C   UNL d   1     -46.460  12.322  23.099  0.00  0.00     0.092 A 
ATOM      9  C   UNL d   1     -46.363  10.786  23.691  0.00  0.00     0.002 A 
ATOM     10  C   UNL d   1     -47.084  11.180  23.692  0.00  0.00     0.002 A 
ATOM     11  C   UNL d   1     -47.137  11.953  23.395  0.00  0.00     0.020 A 
ENDBRANCH   1   2
BRANCH   1  12
ATOM     12  C   UNL d   1     -47.590  13.677  22.415  0.00  0.00     0.046 C 
BRANCH  12  13
ATOM     13  C   UNL d   1     -48.098  14.323  22.515  0.00  0.00     0.124 C 
BRANCH  13  14
ATOM     14  O   UNL d   1     -48.817  14.342  22.111  0.00  0.00    -0.304 OA
BRANCH  14  15
ATOM     15  C   UNL d   1     -49.465  14.741  22.443  0.00  0.00     0.111 A 
ATOM     16  C   UNL d   1     -50.233  14.545  22.217  0.00  0.00     0.080 A 
ATOM     17 CL   UNL d   1     -50.367  13.952  21.659  0.00  0.00    -0.080 Cl
ATOM     18  C   UNL d   1     -50.873  14.942  22.549  0.00  0.00     0.013 A 
ATOM     19  C   UNL d   1     -50.748  15.530  23.102  0.00  0.00     0.001 A 
ATOM     20  C   UNL d   1     -49.979  15.733  23.334  0.00  0.00     0.002 A 
ATOM     21  C   UNL d   1     -49.339  15.335  23.002  0.00  0.00     0.026 A 
ENDBRANCH  14  15
ENDBRANCH  13  14
ENDBRANCH  12  13
ENDBRANCH   1  12
TORSDOF 5
ENDMDL
MODEL 2
REMARK VINA RESULT:      -7.1      1.714      4.872
REMARK  5 active torsions:
REMARK  status: ('A' for Active; 'I' for Inactive)
REMARK    1  A    between atoms: C_9  and  N_2 
REMARK    2  A    between atoms: C_8  and  O_11 
REMARK    3  A    between atoms: C_12  and  C_9 
REMARK    4  A    between atoms: O_11  and  C_15 
REMARK    5  A    between atoms: C_15  and  C_12 
ROOT
ATOM      1  C   UNL d   1     -48.835  13.816  22.087  0.00  0.00     0.087 C 
ENDROOT
BRANCH   1   2
ATOM      2  N   UNL d   1     -49.555  14.142  22.333  0.00  0.00    -0.251 N 
ATOM      3  C   UNL d   1     -50.225  13.757  22.034  0.00  0.00     0.378 A 
ATOM      4  O   UNL d   1     -50.900  14.131  22.316  0.00  0.00    -0.258 OA
ATOM      5  O   UNL d   1     -50.213  13.099  21.529  0.00  0.00    -0.237 OA
ATOM      6  C   UNL d   1     -50.645  14.767  22.806  0.00  0.00     0.121 A 
ATOM      7  C   UNL d   1     -51.064  15.332  23.237  0.00  0.00     0.026 A 
ATOM      8  C   UNL d   1     -49.824  14.768  22.811  0.00  0.00     0.092 A 
ATOM      9  C   UNL d   1     -50.652  15.901  23.676  0.00  0.00     0.002 A 
ATOM     10  C   UNL d   1     -49.831  15.902  23.682  0.00  0.00     0.002 A 
ATOM     11  C   UNL d   1     -49.410  15.334  23.248  0.00  0.00     0.020 A 
ENDBRANCH   1   2
BRANCH   1  12
ATOM     12  C   UNL d   1     -48.308  13.528  22.641  0.00  0.00     0.046 C 
BRANCH  12  13
ATOM     13  C   UNL d   1     -47.534  13.344  22.412  0.00  0.00     0.124 C 
BRANCH  13  14
ATOM     14  O   UNL d   1     -47.029  12.971  22.947  0.00  0.00    -0.304 OA
BRANCH  14  15
ATOM     15  C   UNL d   1     -46.240  12.822  22.734  0.00  0.00     0.111 A 
ATOM     16  C   UNL d   1     -45.858  12.145  23.005  0.00  0.00     0.080 A 
ATOM     17 CL   UNL d   1     -46.252  11.606  23.490  0.00  0.00    -0.080 Cl
ATOM     18  C   UNL d   1     -45.076  12.001  22.791  0.00  0.00     0.013 A 
ATOM     19  C   UNL d   1     -44.679  12.530  22.312  0.00  0.00     0.001 A 
ATOM     20  C   UNL d   1     -45.057  13.213  22.036  0.00  0.00     0.002 A 
ATOM     21  C   UNL d   1     -45.840  13.357  22.250  0.00  0.00     0.026 A 
ENDBRANCH  14  15
ENDBRANCH  13  14
ENDBRANCH  12  13
ENDBRANCH   1  12
TORSDOF 5
ENDMDL
MODEL 3
REMARK VINA RESULT:      -6.3      1.934      5.012
REMARK  5 active torsions:
REMARK  status: ('A' for Active; 'I' for Inactive)
REMARK    1  A    between atoms: C_9  and  N_2 
REMARK    2  A    between atoms: C_8  and  O_11 
REMARK    3  A    between atoms: C_12  and  C_9 
REMARK    4  A    between atoms: O_11  and  C_15 
REMARK    5  A    between atoms: C_15  and  C_12 
ROOT
ATOM      1  C   UNL d   1     -48.970  12.387  23.016  0.00  0.00     0.087 C 
ENDROOT
BRANCH   1   2
ATOM      2  N   UNL d   1     -49.642  12.860  23.108  0.00  0.00    -0.251 N 
ATOM      3  C   UNL d   1     -50.325  12.445  23.328  0.00  0.00     0.378 A 
ATOM      4  O   UNL d   1     -50.951  12.973  23.400  0.00  0.00    -0.258 OA
ATOM      5  O   UNL d   1     -50.367  11.625  23.454  0.00  0.00    -0.237 OA
ATOM      6  C   UNL d   1     -50.651  13.738  23.221  0.00  0.00     0.121 A 
ATOM      7  C   UNL d   1     -51.012  14.480  23.201  0.00  0.00     0.026 A 
ATOM      8  C   UNL d   1     -49.853  13.662  23.043  0.00  0.00     0.092 A 
ATOM      9  C   UNL d   1     -50.565  15.149  23.001  0.00  0.00     0.002 A 
ATOM     10  C   UNL d   1     -49.767  15.073  22.823  0.00  0.00     0.002 A 
ATOM     11  C   UNL d   1     -49.405  14.327  22.843  0.00  0.00     0.020 A 
ENDBRANCH   1   2
BRANCH   1  12
ATOM     12  C   UNL d   1     -48.298  12.547  23.452  0.00  0.00     0.046 C 
BRANCH  12  13
ATOM     13  C   UNL d   1     -47.636  12.054  23.379  0.00  0.00     0.124 C 
BRANCH  13  14
ATOM     14  O   UNL d   1     -46.883  12.388  23.325  0.00  0.00    -0.304 OA
BRANCH  14  15
ATOM     15  C   UNL d   1     -46.214  11.896  23.325  0.00  0.00     0.111 A 
ATOM     16  C   UNL d   1     -45.520  12.142  22.956  0.00  0.00     0.080 A 
ATOM     17 CL   UNL d   1     -45.480  12.876  22.582  0.00  0.00    -0.080 Cl
ATOM     18  C   UNL d   1     -44.858  11.652  22.957  0.00  0.00     0.013 A 
ATOM     19  C   UNL d   1     -44.890  10.923  23.325  0.00  0.00     0.001 A 
ATOM     20  C   UNL d   1     -45.585  10.669  23.698  0.00  0.00     0.002 A 
ATOM     21  C   UNL d   1     -46.246  11.160  23.696  0.00  0.00     0.026 A 
ENDBRANCH  14  15
ENDBRANCH  13  14
ENDBRANCH  12  13
ENDBRANCH   1  12
TORSDOF 5
ENDMDL
MODEL 4
REMARK VINA RESULT:      -6.1      8.814      9.852
REMARK  5 active torsions:
REMARK  status: ('A' for Active; 'I' for Inactive)
REMARK    1  A    between atoms: C_9  and  N_2 
REMARK    2  A    between atoms: C_8  and  O_11 
REMARK    3  A    between atoms: C_12  and  C_9 
REMARK    4  A    between atoms: O_11  and  C_15 
REMARK    5  A    between atoms: C_15  and  C_12 
ROOT
ATOM      1  C   UNL d   1     -39.642  14.164  19.118  0.00  0.00     0.087 C 
ENDROOT
BRANCH   1   2
ATOM      2  N   UNL d   1     -39.829  14.481  18.377  0.00  0.00    -0.251 N 
ATOM      3  C   UNL d   1     -40.570  14.254  18.085  0.00  0.00     0.378 A 
ATOM      4  O   UNL d   1     -40.690  14.602  17.350  0.00  0.00    -0.258 OA
ATOM      5  O   UNL d   1     -41.105  13.753  18.475  0.00  0.00    -0.237 OA
ATOM      6  C   UNL d   1     -40.004  15.060  17.179  0.00  0.00     0.121 A 
ATOM      7  C   UNL d   1     -39.804  15.529  16.530  0.00  0.00     0.026 A 
ATOM      8  C   UNL d   1     -39.483  14.981  17.809  0.00  0.00     0.092 A 
ATOM      9  C   UNL d   1     -39.073  15.921  16.517  0.00  0.00     0.002 A 
ATOM     10  C   UNL d   1     -38.553  15.842  17.147  0.00  0.00     0.002 A 
ATOM     11  C   UNL d   1     -38.755  15.370  17.799  0.00  0.00     0.020 A 
ENDBRANCH   1   2
BRANCH   1  12
ATOM     12  C   UNL d   1     -39.719  14.625  19.789  0.00  0.00     0.046 C 
BRANCH  12  13
ATOM     13  C   UNL d   1     -39.398  14.361  20.505  0.00  0.00     0.124 C 
BRANCH  13  14
ATOM     14  O   UNL d   1     -39.554  14.778  21.199  0.00  0.00    -0.304 OA
BRANCH  14  15
ATOM     15  C   UNL d   1     -39.222  14.522  21.917  0.00  0.00     0.111 A 
ATOM     16  C   UNL d   1     -39.038  15.067  22.506  0.00  0.00     0.080 A 
ATOM     17 CL   UNL d   1     -39.180  15.872  22.392  0.00  0.00    -0.080 Cl
ATOM     18  C   UNL d   1     -38.709  14.810  23.216  0.00  0.00     0.013 A 
ATOM     19  C   UNL d   1     -38.566  14.015  23.335  0.00  0.00     0.001 A 
ATOM     20  C   UNL d   1     -38.748  13.461  22.748  0.00  0.00     0.002 A 
ATOM     21  C   UNL d   1     -39.077  13.719  22.038  0.00  0.00     0.026 A 
ENDBRANCH  14  15
ENDBRANCH  13  14
ENDBRANCH  12  13
ENDBRANCH   1  12
TORSDOF 5
ENDMDL
MODEL 5
REMARK VINA RESULT:      -6.0      1.172      1.926
REMARK  5 active torsions:
REMARK  status: ('A' for Active; 'I' for Inactive)
REMARK    1  A    between atoms: C_9  and  N_2 
REMARK    2  A    between atoms: C_8  and  O_11 
REMARK    3  A    between atoms: C_12  and  C_9 
REMARK    4  A    between atoms: O_11  and  C_15 
REMARK    5  A    between atoms: C_15  and  C_12 
ROOT
ATOM      1  C   UNL d   1     -46.944  12.906  23.040  0.00  0.00     0.087 C 
ENDROOT
BRANCH   1   2
ATOM      2  N   UNL d   1     -46.205  12.554  22.922  0.00  0.00    -0.251 N 
ATOM      3  C   UNL d   1     -46.124  11.804  23.265  0.00  0.00     0.378 A 
ATOM      4  O   UNL d   1     -45.371  11.515  23.109  0.00  0.00    -0.258 OA
ATOM      5  O   UNL d   1     -46.713  11.410  23.697  0.00  0.00    -0.237 OA
ATOM      6  C   UNL d   1     -44.970  12.100  22.655  0.00  0.00     0.121 A 
ATOM      7  C   UNL d   1     -44.208  12.125  22.339  0.00  0.00     0.026 A 
ATOM      8  C   UNL d   1     -45.484  12.731  22.545  0.00  0.00     0.092 A 
ATOM      9  C   UNL d   1     -43.964  12.790  21.909  0.00  0.00     0.002 A 
ATOM     10  C   UNL d   1     -44.478  13.420  21.798  0.00  0.00     0.002 A 
ATOM     11  C   UNL d   1     -45.244  13.395  22.117  0.00  0.00     0.020 A 
ENDBRANCH   1   2
BRANCH   1  12
ATOM     12  C   UNL d   1     -47.488  12.927  22.431  0.00  0.00     0.046 C 
BRANCH  12  13
ATOM     13  C   UNL d   1     -48.232  13.267  22.558  0.00  0.00     0.124 C 
BRANCH  13  14
ATOM     14  O   UNL d   1     -48.889  12.972  22.157  0.00  0.00    -0.304 OA
BRANCH  14  15
ATOM     15  C   UNL d   1     -49.599  13.404  22.155  0.00  0.00     0.111 A 
ATOM     16  C   UNL d   1     -50.322  13.013  22.114  0.00  0.00     0.080 A 
ATOM     17 CL   UNL d   1     -50.352  12.189  22.076  0.00  0.00    -0.080 Cl
ATOM     18  C   UNL d   1     -51.023  13.444  22.112  0.00  0.00     0.013 A 
ATOM     19  C   UNL d   1     -51.002  14.260  22.150  0.00  0.00     0.001 A 
ATOM     20  C   UNL d   1     -50.278  14.660  22.191  0.00  0.00     0.002 A 
ATOM     21  C   UNL d   1     -49.577  14.228  22.193  0.00  0.00     0.026 A 
ENDBRANCH  14  15
ENDBRANCH  13  14
ENDBRANCH  12  13
ENDBRANCH   1  12
TORSDOF 5
ENDMDL
MODEL 6
REMARK VINA RESULT:      -5.7      8.962      9.912
REMARK  5 active torsions:
REMARK  status: ('A' for Active; 'I' for Inactive)
REMARK    1  A    between atoms: C_9  and  N_2 
REMARK    2  A    between atoms: C_8  and  O_11 
REMARK    3  A    between atoms: C_12  and  C_9 
REMARK    4  A    between atoms: O_11  and  C_15 
REMARK    5  A    between atoms: C_15  and  C_12 
ROOT
ATOM      1  C   UNL d   1     -39.443  13.932  19.047  0.00  0.00     0.087 C 
ENDROOT
BRANCH   1   2
ATOM      2  N   UNL d   1     -39.569  14.261  18.299  0.00  0.00    -0.251 N 
ATOM      3  C   UNL d   1     -39.084  13.952  17.702  0.00  0.00     0.378 A 
ATOM      4  O   UNL d   1     -39.262  14.321  16.990  0.00  0.00    -0.258 OA
ATOM      5  O   UNL d   1     -38.510  13.362  17.811  0.00  0.00    -0.237 OA
ATOM      6  C   UNL d   1     -39.876  14.876  17.146  0.00  0.00     0.121 A 
ATOM      7  C   UNL d   1     -40.278  15.403  16.654  0.00  0.00     0.026 A 
ATOM      8  C   UNL d   1     -40.058  14.835  17.945  0.00  0.00     0.092 A 
ATOM      9  C   UNL d   1     -40.868  15.891  16.973  0.00  0.00     0.002 A 
ATOM     10  C   UNL d   1     -41.050  15.850  17.772  0.00  0.00     0.002 A 
ATOM     11  C   UNL d   1     -40.645  15.320  18.265  0.00  0.00     0.020 A 
ENDBRANCH   1   2
BRANCH   1  12
ATOM     12  C   UNL d   1     -39.193  14.407  19.663  0.00  0.00     0.046 C 
BRANCH  12  13
ATOM     13  C   UNL d   1     -39.081  14.077  20.414  0.00  0.00     0.124 C 
BRANCH  13  14
ATOM     14  O   UNL d   1     -38.972  14.572  21.065  0.00  0.00    -0.304 OA
BRANCH  14  15
ATOM     15  C   UNL d   1     -38.789  14.245  21.806  0.00  0.00     0.111 A 
ATOM     16  C   UNL d   1     -38.820  14.711  22.484  0.00  0.00     0.080 A 
ATOM     17 CL   UNL d   1     -39.032  15.507  22.437  0.00  0.00    -0.080 Cl
ATOM     18  C   UNL d   1     -38.637  14.382  23.217  0.00  0.00     0.013 A 
ATOM     19  C   UNL d   1     -38.426  13.595  23.272  0.00  0.00     0.001 A 
ATOM     20  C   UNL d   1     -38.394  13.120  22.594  0.00  0.00     0.002 A 
ATOM     21  C   UNL d   1     -38.576  13.449  21.861  0.00  0.00     0.026 A 
ENDBRANCH  14  15
ENDBRANCH  13  14
ENDBRANCH  12  13
ENDBRANCH   1  12
TORSDOF 5
ENDMDL
MODEL 7
REMARK VINA RESULT:      -5.7      8.497     10.131
REMARK  5 active torsions:
REMARK  status: ('A' for Active; 'I' for Inactive)
REMARK    1  A    between atoms: C_9  and  N_2 
REMARK    2  A    between atoms: C_8  and  O_11 
REMARK    3  A    between atoms: C_12  and  C_9 
REMARK    4  A    between atoms: O_11  and  C_15 
REMARK    5  A    between atoms: C_15  and  C_12 
ROOT
ATOM      1  C   UNL d   1     -39.319  14.538  19.791  0.00  0.00     0.087 C 
ENDROOT
BRANCH   1   2
ATOM      2  N   UNL d   1     -39.410  14.335  20.588  0.00  0.00    -0.251 N 
ATOM      3  C   UNL d   1     -40.128  14.578  20.923  0.00  0.00     0.378 A 
ATOM      4  O   UNL d   1     -40.151  14.346  21.712  0.00  0.00    -0.258 OA
ATOM      5  O   UNL d   1     -40.727  14.991  20.524  0.00  0.00    -0.237 OA
ATOM      6  C   UNL d   1     -39.428  13.947  21.873  0.00  0.00     0.121 A 
ATOM      7  C   UNL d   1     -39.136  13.594  22.559  0.00  0.00     0.026 A 
ATOM      8  C   UNL d   1     -38.981  13.944  21.184  0.00  0.00     0.092 A 
ATOM      9  C   UNL d   1     -38.388  13.236  22.550  0.00  0.00     0.002 A 
ATOM     10  C   UNL d   1     -37.941  13.233  21.861  0.00  0.00     0.002 A 
ATOM     11  C   UNL d   1     -38.235  13.588  21.172  0.00  0.00     0.020 A 
ENDBRANCH   1   2
BRANCH   1  12
ATOM     12  C   UNL d   1     -39.405  13.966  19.214  0.00  0.00     0.046 C 
BRANCH  12  13
ATOM     13  C   UNL d   1     -39.178  14.134  18.436  0.00  0.00     0.124 C 
BRANCH  13  14
ATOM     14  O   UNL d   1     -39.018  13.514  17.915  0.00  0.00    -0.304 OA
BRANCH  14  15
ATOM     15  C   UNL d   1     -38.736  13.679  17.152  0.00  0.00     0.111 A 
ATOM     16  C   UNL d   1     -38.218  13.158  16.780  0.00  0.00     0.080 A 
ATOM     17 CL   UNL d   1     -37.974  12.467  17.158  0.00  0.00    -0.080 Cl
ATOM     18  C   UNL d   1     -37.941  13.325  16.023  0.00  0.00     0.013 A 
ATOM     19  C   UNL d   1     -38.178  14.007  15.641  0.00  0.00     0.001 A 
ATOM     20  C   UNL d   1     -38.698  14.536  16.009  0.00  0.00     0.002 A 
ATOM     21  C   UNL d   1     -38.976  14.368  16.767  0.00  0.00     0.026 A 
ENDBRANCH  14  15
ENDBRANCH  13  14
ENDBRANCH  12  13
ENDBRANCH   1  12
TORSDOF 5
ENDMDL
MODEL 8
REMARK VINA RESULT:      -5.3      8.335     10.181
REMARK  5 active torsions:
REMARK  status: ('A' for Active; 'I' for Inactive)
REMARK    1  A    between atoms: C_9  and  N_2 
REMARK    2  A    between atoms: C_8  and  O_11 
REMARK    3  A    between atoms: C_12  and  C_9 
REMARK    4  A    between atoms: O_11  and  C_15 
REMARK    5  A    between atoms: C_15  and  C_12 
ROOT
ATOM      1  C   UNL d   1     -39.197  13.637  18.188  0.00  0.00     0.087 C 
ENDROOT
BRANCH   1   2
ATOM      2  N   UNL d   1     -38.789  13.566  17.472  0.00  0.00    -0.251 N 
ATOM      3  C   UNL d   1     -38.398  12.841  17.371  0.00  0.00     0.378 A 
ATOM      4  O   UNL d   1     -38.016  12.839  16.643  0.00  0.00    -0.258 OA
ATOM      5  O   UNL d   1     -38.396  12.219  17.920  0.00  0.00    -0.237 OA
ATOM      6  C   UNL d   1     -38.172  13.582  16.280  0.00  0.00     0.121 A 
ATOM      7  C   UNL d   1     -37.940  13.899  15.554  0.00  0.00     0.026 A 
ATOM      8  C   UNL d   1     -38.643  14.020  16.790  0.00  0.00     0.092 A 
ATOM      9  C   UNL d   1     -38.184  14.662  15.342  0.00  0.00     0.002 A 
ATOM     10  C   UNL d   1     -38.656  15.100  15.853  0.00  0.00     0.002 A 
ATOM     11  C   UNL d   1     -38.889  14.781  16.582  0.00  0.00     0.020 A 
ENDBRANCH   1   2
BRANCH   1  12
ATOM     12  C   UNL d   1     -38.888  14.097  18.788  0.00  0.00     0.046 C 
BRANCH  12  13
ATOM     13  C   UNL d   1     -39.373  14.324  19.420  0.00  0.00     0.124 C 
BRANCH  13  14
ATOM     14  O   UNL d   1     -39.192  15.005  19.849  0.00  0.00    -0.304 OA
BRANCH  14  15
ATOM     15  C   UNL d   1     -39.744  15.313  20.386  0.00  0.00     0.111 A 
ATOM     16  C   UNL d   1     -39.509  15.530  21.145  0.00  0.00     0.080 A 
ATOM     17 CL   UNL d   1     -38.722  15.445  21.381  0.00  0.00    -0.080 Cl
ATOM     18  C   UNL d   1     -40.060  15.835  21.676  0.00  0.00     0.013 A 
ATOM     19  C   UNL d   1     -40.840  15.922  21.450  0.00  0.00     0.001 A 
ATOM     20  C   UNL d   1     -41.084  15.706  20.689  0.00  0.00     0.002 A 
ATOM     21  C   UNL d   1     -40.532  15.401  20.158  0.00  0.00     0.026 A 
ENDBRANCH  14  15
ENDBRANCH  13  14
ENDBRANCH  12  13
ENDBRANCH   1  12
TORSDOF 5
ENDMDL
MODEL 9
REMARK VINA RESULT:      -5.3      8.955      9.408
REMARK  5 active torsions:
REMARK  status: ('A' for Active; 'I' for Inactive)
REMARK    1  A    between atoms: C_9  and  N_2 
REMARK    2  A    between atoms: C_8  and  O_11 
REMARK    3  A    between atoms: C_12  and  C_9 
REMARK    4  A    between atoms: O_11  and  C_15 
REMARK    5  A    between atoms: C_15  and  C_12 
ROOT
ATOM      1  C   UNL d   1     -39.467  14.396  20.555  0.00  0.00     0.087 C 
ENDROOT
BRANCH   1   2
ATOM      2  N   UNL d   1     -39.048  14.411  21.267  0.00  0.00    -0.251 N 
ATOM      3  C   UNL d   1     -38.504  13.792  21.357  0.00  0.00     0.378 A 
ATOM      4  O   UNL d   1     -38.124  13.869  22.083  0.00  0.00    -0.258 OA
ATOM      5  O   UNL d   1     -38.367  13.191  20.801  0.00  0.00    -0.237 OA
ATOM      6  C   UNL d   1     -38.440  14.555  22.455  0.00  0.00     0.121 A 
ATOM      7  C   UNL d   1     -38.278  14.908  23.183  0.00  0.00     0.026 A 
ATOM      8  C   UNL d   1     -39.002  14.880  21.953  0.00  0.00     0.092 A 
ATOM      9  C   UNL d   1     -38.686  15.595  23.405  0.00  0.00     0.002 A 
ATOM     10  C   UNL d   1     -39.248  15.921  22.903  0.00  0.00     0.002 A 
ATOM     11  C   UNL d   1     -39.410  15.565  22.171  0.00  0.00     0.020 A 
ENDBRANCH   1   2
BRANCH   1  12
ATOM     12  C   UNL d   1     -39.218  14.853  19.925  0.00  0.00     0.046 C 
BRANCH  12  13
ATOM     13  C   UNL d   1     -39.735  14.998  19.295  0.00  0.00     0.124 C 
BRANCH  13  14
ATOM     14  O   UNL d   1     -39.437  15.290  18.583  0.00  0.00    -0.304 OA
BRANCH  14  15
ATOM     15  C   UNL d   1     -39.960  15.499  17.973  0.00  0.00     0.111 A 
ATOM     16  C   UNL d   1     -39.673  15.671  17.220  0.00  0.00     0.080 A 
ATOM     17 CL   UNL d   1     -38.863  15.637  17.063  0.00  0.00    -0.080 Cl
ATOM     18  C   UNL d   1     -40.194  15.878  16.618  0.00  0.00     0.013 A 
ATOM     19  C   UNL d   1     -40.997  15.914  16.767  0.00  0.00     0.001 A 
ATOM     20  C   UNL d   1     -41.293  15.743  17.521  0.00  0.00     0.002 A 
ATOM     21  C   UNL d   1     -40.771  15.536  18.123  0.00  0.00     0.026 A 
ENDBRANCH  14  15
ENDBRANCH  13  14
ENDBRANCH  12  13
ENDBRANCH   1  12
TORSDOF 5
ENDMDL
