MODEL 1
REMARK VINA RESULT:      -9.1      0.000      0.000
REMARK  6 active torsions:
REMARK  status: ('A' for Active; 'I' for Inactive)
REMARK    1  A    between atoms: C_7  and  N_1 
REMARK    2  A    between atoms: S_10  and  C_2 
REMARK    3  A    between atoms: C_22  and  S_10 
REMARK    4  A    between atoms: C_13  and  C_22 
REMARK       I    between atoms: N_17  and  C_13 
REMARK    5  A    between atoms: C_14  and  C_23 
REMARK    6  A    between atoms: C_23  and  N_17 
ROOT
ATOM      1  N   UNL d   1      52.725  33.806  53.787  0.00  0.00    -0.254 N 
ATOM      2  C   UNL d   1      53.189  33.125  53.727  0.00  0.00     0.183 A 
ATOM      3  N   UNL d   1      53.902  33.069  54.135  0.00  0.00    -0.201 NA
ATOM      4  C   UNL d   1      52.989  34.430  54.265  0.00  0.00     0.271 A 
ATOM      5  C   UNL d   1      53.696  34.368  54.668  0.00  0.00     0.115 A 
ATOM      6  C   UNL d   1      54.153  33.690  54.604  0.00  0.00     0.192 A 
ATOM      7  N   UNL d   1      54.781  34.534  55.417  0.00  0.00    -0.145 NA
ATOM      8  N   UNL d   1      54.825  33.793  55.069  0.00  0.00    -0.128 NA
ATOM      9  C   UNL d   1      54.080  34.897  55.171  0.00  0.00     0.130 A 
ATOM     10  O   UNL d   1      52.526  35.113  54.327  0.00  0.00    -0.266 OA
ENDROOT
BRANCH   2  11
ATOM     11  S   UNL d   1      52.936  32.493  53.251  0.00  0.00    -0.044 SA
BRANCH  11  12
ATOM     12  C   UNL d   1      53.448  31.868  53.095  0.00  0.00     0.101 C 
BRANCH  12  13
ATOM     13  C   UNL d   1      53.159  31.096  53.044  0.00  0.00     0.286 C 
ATOM     14  N   UNL d   1      53.356  30.546  53.631  0.00  0.00    -0.204 NA
ATOM     15  O   UNL d   1      52.677  30.870  52.413  0.00  0.00    -0.265 OA
BRANCH  14  16
ATOM     16  C   UNL d   1      53.068  29.774  53.583  0.00  0.00     0.127 C 
BRANCH  16  17
ATOM     17  C   UNL d   1      53.203  29.245  54.205  0.00  0.00     0.119 A 
ATOM     18  O   UNL d   1      52.871  29.278  54.952  0.00  0.00    -0.304 OA
ATOM     19  C   UNL d   1      53.158  28.644  55.396  0.00  0.00     0.123 A 
ATOM     20  C   UNL d   1      53.670  28.217  54.922  0.00  0.00     0.029 A 
ATOM     21  C   UNL d   1      53.703  28.580  54.188  0.00  0.00     0.028 A 
ENDBRANCH  16  17
ENDBRANCH  14  16
ENDBRANCH  12  13
ENDBRANCH  11  12
ENDBRANCH   2  11
BRANCH   1  22
ATOM     22  C   UNL d   1      52.018  33.862  53.381  0.00  0.00     0.075 A 
ATOM     23  C   UNL d   1      51.992  34.248  52.648  0.00  0.00     0.051 A 
ATOM     24 BR   UNL d   1      52.676  34.573  52.332  0.00  0.00    -0.048 Br
ATOM     25  C   UNL d   1      51.279  34.304  52.240  0.00  0.00     0.008 A 
ATOM     26  C   UNL d   1      50.591  33.977  52.561  0.00  0.00     0.001 A 
ATOM     27  C   UNL d   1      50.622  33.592  53.292  0.00  0.00     0.002 A 
ATOM     28  C   UNL d   1      51.334  33.536  53.701  0.00  0.00     0.018 A 
ENDBRANCH   1  22
TORSDOF 6
ENDMDL
MODEL 2
REMARK VINA RESULT:      -9.0      1.633      4.792
REMARK  6 active torsions:
REMARK  status: ('A' for Active; 'I' for Inactive)
REMARK    1  A    between atoms: C_7  and  N_1 
REMARK    2  A    between atoms: S_10  and  C_2 
REMARK    3  A    between atoms: C_22  and  S_10 
REMARK    4  A    between atoms: C_13  and  C_22 
REMARK       I    between atoms: N_17  and  C_13 
REMARK    5  A    between atoms: C_14  and  C_23 
REMARK    6  A    between atoms: C_23  and  N_17 
ROOT
ATOM      1  N   UNL d   1      53.434  32.033  53.838  0.00  0.00    -0.254 N 
ATOM      2  C   UNL d   1      52.829  32.196  53.299  0.00  0.00     0.183 A 
ATOM      3  N   UNL d   1      52.445  31.584  52.905  0.00  0.00    -0.201 NA
ATOM      4  C   UNL d   1      53.647  31.243  53.974  0.00  0.00     0.271 A 
ATOM      5  C   UNL d   1      53.262  30.640  53.579  0.00  0.00     0.115 A 
ATOM      6  C   UNL d   1      52.662  30.808  53.045  0.00  0.00     0.192 A 
ATOM      7  N   UNL d   1      52.816  29.489  53.089  0.00  0.00    -0.145 NA
ATOM      8  N   UNL d   1      52.386  30.094  52.742  0.00  0.00    -0.128 NA
ATOM      9  C   UNL d   1      53.363  29.822  53.611  0.00  0.00     0.130 A 
ATOM     10  O   UNL d   1      54.252  31.075  54.513  0.00  0.00    -0.266 OA
ENDROOT
BRANCH   2  11
ATOM     11  S   UNL d   1      52.607  32.983  53.155  0.00  0.00    -0.044 SA
BRANCH  11  12
ATOM     12  C   UNL d   1      51.971  33.144  52.656  0.00  0.00     0.101 C 
BRANCH  12  13
ATOM     13  C   UNL d   1      51.654  33.904  52.619  0.00  0.00     0.286 C 
ATOM     14  N   UNL d   1      50.833  34.007  52.657  0.00  0.00    -0.204 NA
ATOM     15  O   UNL d   1      52.148  34.562  52.545  0.00  0.00    -0.265 OA
BRANCH  14  16
ATOM     16  C   UNL d   1      50.512  34.767  52.620  0.00  0.00     0.127 C 
BRANCH  16  17
ATOM     17  C   UNL d   1      49.707  34.866  52.454  0.00  0.00     0.119 A 
ATOM     18  O   UNL d   1      49.324  34.658  51.762  0.00  0.00    -0.304 OA
ATOM     19  C   UNL d   1      48.525  34.854  51.833  0.00  0.00     0.123 A 
ATOM     20  C   UNL d   1      48.414  35.185  52.573  0.00  0.00     0.029 A 
ATOM     21  C   UNL d   1      49.136  35.196  52.962  0.00  0.00     0.028 A 
ENDBRANCH  16  17
ENDBRANCH  14  16
ENDBRANCH  12  13
ENDBRANCH  11  12
ENDBRANCH   2  11
BRANCH   1  22
ATOM     22  C   UNL d   1      53.815  32.640  54.230  0.00  0.00     0.075 A 
ATOM     23  C   UNL d   1      54.536  32.929  53.941  0.00  0.00     0.051 A 
ATOM     24 BR   UNL d   1      54.866  32.604  53.263  0.00  0.00    -0.048 Br
ATOM     25  C   UNL d   1      54.921  33.541  54.336  0.00  0.00     0.008 A 
ATOM     26  C   UNL d   1      54.587  33.866  55.019  0.00  0.00     0.001 A 
ATOM     27  C   UNL d   1      53.867  33.575  55.303  0.00  0.00     0.002 A 
ATOM     28  C   UNL d   1      53.482  32.963  54.909  0.00  0.00     0.018 A 
ENDBRANCH   1  22
TORSDOF 6
ENDMDL
MODEL 3
REMARK VINA RESULT:      -8.6      1.181      2.567
REMARK  6 active torsions:
REMARK  status: ('A' for Active; 'I' for Inactive)
REMARK    1  A    between atoms: C_7  and  N_1 
REMARK    2  A    between atoms: S_10  and  C_2 
REMARK    3  A    between atoms: C_22  and  S_10 
REMARK    4  A    between atoms: C_13  and  C_22 
REMARK       I    between atoms: N_17  and  C_13 
REMARK    5  A    between atoms: C_14  and  C_23 
REMARK    6  A    between atoms: C_23  and  N_17 
ROOT
ATOM      1  N   UNL d   1      52.900  33.534  53.460  0.00  0.00    -0.254 N 
ATOM      2  C   UNL d   1      52.488  32.871  53.188  0.00  0.00     0.183 A 
ATOM      3  N   UNL d   1      51.715  32.942  52.916  0.00  0.00    -0.201 NA
ATOM      4  C   UNL d   1      52.521  34.271  53.452  0.00  0.00     0.271 A 
ATOM      5  C   UNL d   1      51.754  34.336  53.181  0.00  0.00     0.115 A 
ATOM      6  C   UNL d   1      51.350  33.674  52.913  0.00  0.00     0.192 A 
ATOM      7  N   UNL d   1      50.540  34.722  52.803  0.00  0.00    -0.145 NA
ATOM      8  N   UNL d   1      50.598  33.914  52.679  0.00  0.00    -0.128 NA
ATOM      9  C   UNL d   1      51.257  34.991  53.115  0.00  0.00     0.130 A 
ATOM     10  O   UNL d   1      52.931  34.938  53.723  0.00  0.00    -0.266 OA
ENDROOT
BRANCH   2  11
ATOM     11  S   UNL d   1      52.858  32.127  53.191  0.00  0.00    -0.044 SA
BRANCH  11  12
ATOM     12  C   UNL d   1      52.445  31.465  52.927  0.00  0.00     0.101 C 
BRANCH  12  13
ATOM     13  C   UNL d   1      52.809  30.725  52.916  0.00  0.00     0.286 C 
ATOM     14  N   UNL d   1      52.879  30.292  53.618  0.00  0.00    -0.204 NA
ATOM     15  O   UNL d   1      53.105  30.414  52.210  0.00  0.00    -0.265 OA
BRANCH  14  16
ATOM     16  C   UNL d   1      53.244  29.551  53.610  0.00  0.00     0.127 C 
BRANCH  16  17
ATOM     17  C   UNL d   1      53.308  29.117  54.312  0.00  0.00     0.119 A 
ATOM     18  O   UNL d   1      53.349  28.302  54.379  0.00  0.00    -0.304 OA
ATOM     19  C   UNL d   1      53.409  28.106  55.178  0.00  0.00     0.123 A 
ATOM     20  C   UNL d   1      53.405  28.802  55.608  0.00  0.00     0.029 A 
ATOM     21  C   UNL d   1      53.343  29.428  55.083  0.00  0.00     0.028 A 
ENDBRANCH  16  17
ENDBRANCH  14  16
ENDBRANCH  12  13
ENDBRANCH  11  12
ENDBRANCH   2  11
BRANCH   1  22
ATOM     22  C   UNL d   1      53.668  33.463  53.730  0.00  0.00     0.075 A 
ATOM     23  C   UNL d   1      53.822  33.476  54.544  0.00  0.00     0.051 A 
ATOM     24 BR   UNL d   1      53.202  33.561  55.077  0.00  0.00    -0.048 Br
ATOM     25  C   UNL d   1      54.596  33.405  54.817  0.00  0.00     0.008 A 
ATOM     26  C   UNL d   1      55.217  33.320  54.278  0.00  0.00     0.001 A 
ATOM     27  C   UNL d   1      55.059  33.307  53.467  0.00  0.00     0.002 A 
ATOM     28  C   UNL d   1      54.286  33.379  53.194  0.00  0.00     0.018 A 
ENDBRANCH   1  22
TORSDOF 6
ENDMDL
MODEL 4
REMARK VINA RESULT:      -8.2      1.737      4.328
REMARK  6 active torsions:
REMARK  status: ('A' for Active; 'I' for Inactive)
REMARK    1  A    between atoms: C_7  and  N_1 
REMARK    2  A    between atoms: S_10  and  C_2 
REMARK    3  A    between atoms: C_22  and  S_10 
REMARK    4  A    between atoms: C_13  and  C_22 
REMARK       I    between atoms: N_17  and  C_13 
REMARK    5  A    between atoms: C_14  and  C_23 
REMARK    6  A    between atoms: C_23  and  N_17 
ROOT
ATOM      1  N   UNL d   1      53.281  32.637  54.006  0.00  0.00    -0.254 N 
ATOM      2  C   UNL d   1      52.967  33.368  53.784  0.00  0.00     0.183 A 
ATOM      3  N   UNL d   1      53.225  34.061  54.146  0.00  0.00    -0.201 NA
ATOM      4  C   UNL d   1      53.861  32.613  54.599  0.00  0.00     0.271 A 
ATOM      5  C   UNL d   1      54.113  33.304  54.954  0.00  0.00     0.115 A 
ATOM      6  C   UNL d   1      53.798  34.027  54.730  0.00  0.00     0.192 A 
ATOM      7  N   UNL d   1      54.696  34.249  55.684  0.00  0.00    -0.145 NA
ATOM      8  N   UNL d   1      54.159  34.612  55.182  0.00  0.00    -0.128 NA
ATOM      9  C   UNL d   1      54.672  33.434  55.547  0.00  0.00     0.130 A 
ATOM     10  O   UNL d   1      54.178  31.882  54.824  0.00  0.00    -0.266 OA
ENDROOT
BRANCH   2  11
ATOM     11  S   UNL d   1      52.385  33.405  53.192  0.00  0.00    -0.044 SA
BRANCH  11  12
ATOM     12  C   UNL d   1      52.024  34.124  53.018  0.00  0.00     0.101 C 
BRANCH  12  13
ATOM     13  C   UNL d   1      51.400  34.156  52.479  0.00  0.00     0.286 C 
ATOM     14  N   UNL d   1      50.656  34.419  52.730  0.00  0.00    -0.204 NA
ATOM     15  O   UNL d   1      51.512  33.927  51.693  0.00  0.00    -0.265 OA
BRANCH  14  16
ATOM     16  C   UNL d   1      50.030  34.452  52.193  0.00  0.00     0.127 C 
BRANCH  16  17
ATOM     17  C   UNL d   1      49.347  34.879  52.384  0.00  0.00     0.119 A 
ATOM     18  O   UNL d   1      49.183  35.242  53.099  0.00  0.00    -0.304 OA
ATOM     19  C   UNL d   1      48.444  35.605  53.048  0.00  0.00     0.123 A 
ATOM     20  C   UNL d   1      48.148  35.466  52.298  0.00  0.00     0.029 A 
ATOM     21  C   UNL d   1      48.697  35.020  51.884  0.00  0.00     0.028 A 
ENDBRANCH  16  17
ENDBRANCH  14  16
ENDBRANCH  12  13
ENDBRANCH  11  12
ENDBRANCH   2  11
BRANCH   1  22
ATOM     22  C   UNL d   1      53.024  31.949  53.647  0.00  0.00     0.075 A 
ATOM     23  C   UNL d   1      53.505  31.572  53.088  0.00  0.00     0.051 A 
ATOM     24 BR   UNL d   1      54.237  31.889  52.895  0.00  0.00    -0.048 Br
ATOM     25  C   UNL d   1      53.246  30.879  52.725  0.00  0.00     0.008 A 
ATOM     26  C   UNL d   1      52.508  30.561  52.921  0.00  0.00     0.001 A 
ATOM     27  C   UNL d   1      52.032  30.941  53.480  0.00  0.00     0.002 A 
ATOM     28  C   UNL d   1      52.291  31.634  53.842  0.00  0.00     0.018 A 
ENDBRANCH   1  22
TORSDOF 6
ENDMDL
