MODEL 1
REMARK VINA RESULT:      67.7      0.000      0.000
REMARK  6 active torsions:
REMARK  status: ('A' for Active; 'I' for Inactive)
REMARK       I    between atoms: N_2  and  C_1 
REMARK    1  A    between atoms: C_5  and  C_1 
REMARK    2  A    between atoms: C_3  and  N_2 
REMARK    3  A    between atoms: O_16  and  C_6 
REMARK    4  A    between atoms: O_17  and  C_11 
REMARK    5  A    between atoms: O_18  and  C_12 
REMARK    6  A    between atoms: C_19  and  O_18 
ROOT
ATOM      1  C   UNL d   1      61.097  46.942  50.626  0.00  0.00     0.279 C 
ATOM      2  N   UNL d   1      61.273  47.695  50.331  0.00  0.00    -0.206 NA
ATOM      3  O   UNL d   1      60.712  46.861  51.344  0.00  0.00    -0.265 OA
ENDROOT
BRANCH   1   4
ATOM      4  C   UNL d   1      61.317  46.256  50.183  0.00  0.00     0.058 A 
ATOM      5  C   UNL d   1      60.948  45.535  50.343  0.00  0.00     0.007 A 
ATOM      6  C   UNL d   1      61.160  44.874  49.916  0.00  0.00     0.025 A 
ATOM      7  C   UNL d   1      61.742  44.930  49.327  0.00  0.00     0.100 A 
ATOM      8  C   UNL d   1      62.101  45.653  49.178  0.00  0.00     0.025 A 
ATOM      9  C   UNL d   1      61.889  46.314  49.605  0.00  0.00     0.007 A 
BRANCH   7  10
ATOM     10  O   UNL d   1      61.961  44.248  48.887  0.00  0.00    -0.305 OA
BRANCH  10  11
ATOM     11  C   UNL d   1      62.031  43.522  49.273  0.00  0.00     0.123 C 
ATOM     12  C   UNL d   1      62.763  43.138  49.286  0.00  0.00     0.029 C 
ENDBRANCH  10  11
ENDBRANCH   7  10
ENDBRANCH   1   4
BRANCH   2  13
ATOM     13  C   UNL d   1      61.061  48.356  50.758  0.00  0.00     0.109 A 
ATOM     14  C   UNL d   1      61.187  48.364  51.570  0.00  0.00     0.045 A 
ATOM     15  C   UNL d   1      60.976  49.023  52.001  0.00  0.00     0.096 A 
ATOM     16  C   UNL d   1      60.636  49.688  51.636  0.00  0.00     0.026 A 
ATOM     17  C   UNL d   1      60.515  49.674  50.837  0.00  0.00     0.028 A 
ATOM     18  C   UNL d   1      60.723  49.011  50.380  0.00  0.00     0.112 A 
BRANCH  15  19
ATOM     19  O   UNL d   1      61.112  49.011  52.819  0.00  0.00    -0.328 OA
ATOM     20  C   UNL d   1      61.009  49.708  53.260  0.00  0.00     0.181 C 
ENDBRANCH  15  19
BRANCH  18  21
ATOM     21  O   UNL d   1      60.595  49.011  49.572  0.00  0.00    -0.327 OA
ATOM     22  C   UNL d   1      60.333  49.707  49.200  0.00  0.00     0.181 C 
ENDBRANCH  18  21
ENDBRANCH   2  13
TORSDOF 6
ENDMDL
MODEL 2
REMARK VINA RESULT:      69.2      1.237      1.896
REMARK  6 active torsions:
REMARK  status: ('A' for Active; 'I' for Inactive)
REMARK       I    between atoms: N_2  and  C_1 
REMARK    1  A    between atoms: C_5  and  C_1 
REMARK    2  A    between atoms: C_3  and  N_2 
REMARK    3  A    between atoms: O_16  and  C_6 
REMARK    4  A    between atoms: O_17  and  C_11 
REMARK    5  A    between atoms: O_18  and  C_12 
REMARK    6  A    between atoms: C_19  and  O_18 
ROOT
ATOM      1  C   UNL d   1      60.707  47.468  50.566  0.00  0.00     0.279 C 
ATOM      2  N   UNL d   1      60.796  48.291  50.555  0.00  0.00    -0.206 NA
ATOM      3  O   UNL d   1      60.086  47.126  50.974  0.00  0.00    -0.265 OA
ENDROOT
BRANCH   1   4
ATOM      4  C   UNL d   1      61.263  46.981  50.153  0.00  0.00     0.058 A 
ATOM      5  C   UNL d   1      61.182  46.161  50.183  0.00  0.00     0.007 A 
ATOM      6  C   UNL d   1      61.717  45.692  49.785  0.00  0.00     0.025 A 
ATOM      7  C   UNL d   1      62.336  46.040  49.356  0.00  0.00     0.100 A 
ATOM      8  C   UNL d   1      62.405  46.858  49.335  0.00  0.00     0.025 A 
ATOM      9  C   UNL d   1      61.870  47.327  49.732  0.00  0.00     0.007 A 
BRANCH   7  10
ATOM     10  O   UNL d   1      62.888  45.556  48.946  0.00  0.00    -0.305 OA
BRANCH  10  11
ATOM     11  C   UNL d   1      63.043  44.794  49.222  0.00  0.00     0.123 C 
ATOM     12  C   UNL d   1      62.711  44.146  48.832  0.00  0.00     0.029 C 
ENDBRANCH  10  11
ENDBRANCH   7  10
ENDBRANCH   1   4
BRANCH   2  13
ATOM     13  C   UNL d   1      60.261  48.760  50.952  0.00  0.00     0.109 A 
ATOM     14  C   UNL d   1      59.477  48.770  50.704  0.00  0.00     0.045 A 
ATOM     15  C   UNL d   1      58.939  49.238  51.098  0.00  0.00     0.096 A 
ATOM     16  C   UNL d   1      59.166  49.706  51.748  0.00  0.00     0.026 A 
ATOM     17  C   UNL d   1      59.938  49.691  51.986  0.00  0.00     0.028 A 
ATOM     18  C   UNL d   1      60.502  49.220  51.597  0.00  0.00     0.112 A 
BRANCH  15  19
ATOM     19  O   UNL d   1      58.153  49.234  50.832  0.00  0.00    -0.328 OA
ATOM     20  C   UNL d   1      57.950  49.669  50.155  0.00  0.00     0.181 C 
ENDBRANCH  15  19
BRANCH  18  21
ATOM     21  O   UNL d   1      61.279  49.216  51.850  0.00  0.00    -0.327 OA
ATOM     22  C   UNL d   1      61.505  49.698  52.489  0.00  0.00     0.181 C 
ENDBRANCH  18  21
ENDBRANCH   2  13
TORSDOF 6
ENDMDL
