MODEL 1
REMARK VINA RESULT:      -8.0      0.000      0.000
REMARK  5 active torsions:
REMARK  status: ('A' for Active; 'I' for Inactive)
REMARK    1  A    between atoms: C_8  and  N_1 
REMARK    2  A    between atoms: C_6  and  C_2 
REMARK    3  A    between atoms: C_9  and  C_6 
REMARK    4  A    between atoms: C_7  and  C_9 
REMARK    5  A    between atoms: C_14  and  C_8 
ROOT
ATOM      1  N   UNL d   1     -47.586  12.728  22.453  0.00  0.00    -0.289 N 
ATOM      2  C   UNL d   1     -46.888  12.483  22.809  0.00  0.00     0.148 A 
ATOM      3  N   UNL d   1     -46.458  13.180  23.031  0.00  0.00    -0.227 NA
ATOM      4  C   UNL d   1     -47.622  13.561  22.437  0.00  0.00     0.083 A 
ATOM      5  C   UNL d   1     -46.897  13.820  22.809  0.00  0.00     0.099 A 
ATOM      6  C   UNL d   1     -48.182  14.095  22.153  0.00  0.00     0.019 A 
ATOM      7  C   UNL d   1     -46.775  14.659  22.874  0.00  0.00     0.021 A 
ATOM      8  C   UNL d   1     -48.043  14.878  22.226  0.00  0.00     0.002 A 
ATOM      9  C   UNL d   1     -47.350  15.156  22.581  0.00  0.00     0.002 A 
ENDROOT
BRANCH   1  10
ATOM     10  C   UNL d   1     -48.042  12.106  22.218  0.00  0.00     0.082 C 
BRANCH  10  11
ATOM     11  C   UNL d   1     -48.760  11.982  22.588  0.00  0.00     0.018 A 
ATOM     12  C   UNL d   1     -48.804  11.515  23.265  0.00  0.00     0.002 A 
ATOM     13  C   UNL d   1     -49.561  11.397  23.637  0.00  0.00     0.000 A 
ATOM     14  C   UNL d   1     -50.243  11.743  23.329  0.00  0.00     0.000 A 
ATOM     15  C   UNL d   1     -50.198  12.211  22.652  0.00  0.00     0.000 A 
ATOM     16  C   UNL d   1     -50.946  11.617  23.698  0.00  0.00     0.000 C 
ATOM     17  C   UNL d   1     -49.472  12.333  22.281  0.00  0.00     0.002 A 
ENDBRANCH  10  11
ENDBRANCH   1  10
BRANCH   2  18
ATOM     18  C   UNL d   1     -46.464  11.809  23.024  0.00  0.00     0.039 C 
BRANCH  18  19
ATOM     19  C   UNL d   1     -45.750  11.886  23.414  0.00  0.00     0.028 C 
BRANCH  19  20
ATOM     20  C   UNL d   1     -45.228  11.245  23.449  0.00  0.00     0.100 A 
ATOM     21  O   UNL d   1     -44.428  11.248  23.247  0.00  0.00    -0.305 OA
ATOM     22  C   UNL d   1     -44.134  10.485  23.373  0.00  0.00     0.123 A 
ATOM     23  C   UNL d   1     -44.743  10.004  23.651  0.00  0.00     0.029 A 
ATOM     24  C   UNL d   1     -45.425  10.490  23.696  0.00  0.00     0.027 A 
ENDBRANCH  19  20
ENDBRANCH  18  19
ENDBRANCH   2  18
TORSDOF 5
ENDMDL
MODEL 2
REMARK VINA RESULT:      -7.9      1.110      1.442
REMARK  5 active torsions:
REMARK  status: ('A' for Active; 'I' for Inactive)
REMARK    1  A    between atoms: C_8  and  N_1 
REMARK    2  A    between atoms: C_6  and  C_2 
REMARK    3  A    between atoms: C_9  and  C_6 
REMARK    4  A    between atoms: C_7  and  C_9 
REMARK    5  A    between atoms: C_14  and  C_8 
ROOT
ATOM      1  N   UNL d   1     -47.974  13.467  22.278  0.00  0.00    -0.289 N 
ATOM      2  C   UNL d   1     -47.179  13.534  22.472  0.00  0.00     0.148 A 
ATOM      3  N   UNL d   1     -47.032  14.349  22.659  0.00  0.00    -0.227 NA
ATOM      4  C   UNL d   1     -48.346  14.211  22.333  0.00  0.00     0.083 A 
ATOM      5  C   UNL d   1     -47.727  14.750  22.575  0.00  0.00     0.099 A 
ATOM      6  C   UNL d   1     -49.120  14.465  22.203  0.00  0.00     0.019 A 
ATOM      7  C   UNL d   1     -47.945  15.565  22.679  0.00  0.00     0.021 A 
ATOM      8  C   UNL d   1     -49.297  15.237  22.308  0.00  0.00     0.002 A 
ATOM      9  C   UNL d   1     -48.719  15.779  22.542  0.00  0.00     0.002 A 
ENDROOT
BRANCH   1  10
ATOM     10  C   UNL d   1     -48.178  12.710  22.089  0.00  0.00     0.082 C 
BRANCH  10  11
ATOM     11  C   UNL d   1     -48.795  12.356  22.492  0.00  0.00     0.018 A 
ATOM     12  C   UNL d   1     -48.705  12.137  23.281  0.00  0.00     0.002 A 
ATOM     13  C   UNL d   1     -49.359  11.769  23.684  0.00  0.00     0.000 A 
ATOM     14  C   UNL d   1     -50.074  11.633  23.295  0.00  0.00     0.000 A 
ATOM     15  C   UNL d   1     -50.163  11.853  22.506  0.00  0.00     0.000 A 
ATOM     16  C   UNL d   1     -50.676  11.284  23.698  0.00  0.00     0.000 C 
ATOM     17  C   UNL d   1     -49.538  12.210  22.104  0.00  0.00     0.002 A 
ENDBRANCH  10  11
ENDBRANCH   1  10
BRANCH   2  18
ATOM     18  C   UNL d   1     -46.484  13.096  22.549  0.00  0.00     0.039 C 
BRANCH  18  19
ATOM     19  C   UNL d   1     -45.794  13.369  22.207  0.00  0.00     0.028 C 
BRANCH  19  20
ATOM     20  C   UNL d   1     -45.110  12.904  22.233  0.00  0.00     0.100 A 
ATOM     21  O   UNL d   1     -44.949  12.290  22.760  0.00  0.00    -0.305 OA
ATOM     22  C   UNL d   1     -44.201  11.989  22.575  0.00  0.00     0.123 A 
ATOM     23  C   UNL d   1     -43.892  12.410  21.936  0.00  0.00     0.029 A 
ATOM     24  C   UNL d   1     -44.470  12.981  21.729  0.00  0.00     0.027 A 
ENDBRANCH  19  20
ENDBRANCH  18  19
ENDBRANCH   2  18
TORSDOF 5
ENDMDL
MODEL 3
REMARK VINA RESULT:      -7.4      1.600      2.953
REMARK  5 active torsions:
REMARK  status: ('A' for Active; 'I' for Inactive)
REMARK    1  A    between atoms: C_8  and  N_1 
REMARK    2  A    between atoms: C_6  and  C_2 
REMARK    3  A    between atoms: C_9  and  C_6 
REMARK    4  A    between atoms: C_7  and  C_9 
REMARK    5  A    between atoms: C_14  and  C_8 
ROOT
ATOM      1  N   UNL d   1     -48.652  12.956  22.495  0.00  0.00    -0.289 N 
ATOM      2  C   UNL d   1     -47.844  12.818  22.545  0.00  0.00     0.148 A 
ATOM      3  N   UNL d   1     -47.736  12.095  22.975  0.00  0.00    -0.227 NA
ATOM      4  C   UNL d   1     -49.071  12.346  22.879  0.00  0.00     0.083 A 
ATOM      5  C   UNL d   1     -48.467  11.815  23.173  0.00  0.00     0.099 A 
ATOM      6  C   UNL d   1     -49.874  12.202  22.998  0.00  0.00     0.019 A 
ATOM      7  C   UNL d   1     -48.731  11.127  23.597  0.00  0.00     0.021 A 
ATOM      8  C   UNL d   1     -50.095  11.548  23.400  0.00  0.00     0.002 A 
ATOM      9  C   UNL d   1     -49.533  11.019  23.695  0.00  0.00     0.002 A 
ENDROOT
BRANCH   1  10
ATOM     10  C   UNL d   1     -48.820  13.635  22.094  0.00  0.00     0.082 C 
BRANCH  10  11
ATOM     11  C   UNL d   1     -49.285  14.201  22.456  0.00  0.00     0.018 A 
ATOM     12  C   UNL d   1     -50.072  14.299  22.231  0.00  0.00     0.002 A 
ATOM     13  C   UNL d   1     -50.542  14.893  22.619  0.00  0.00     0.000 A 
ATOM     14  C   UNL d   1     -50.220  15.367  23.212  0.00  0.00     0.000 A 
ATOM     15  C   UNL d   1     -49.433  15.269  23.437  0.00  0.00     0.000 A 
ATOM     16  C   UNL d   1     -50.684  15.922  23.564  0.00  0.00     0.000 C 
ATOM     17  C   UNL d   1     -48.966  14.697  23.069  0.00  0.00     0.002 A 
ENDBRANCH  10  11
ENDBRANCH   1  10
BRANCH   2  18
ATOM     18  C   UNL d   1     -47.111  13.130  22.328  0.00  0.00     0.039 C 
BRANCH  18  19
ATOM     19  C   UNL d   1     -46.435  12.880  22.711  0.00  0.00     0.028 C 
BRANCH  19  20
ATOM     20  C   UNL d   1     -45.692  13.048  22.388  0.00  0.00     0.100 A 
ATOM     21  O   UNL d   1     -45.220  13.705  22.550  0.00  0.00    -0.305 OA
ATOM     22  C   UNL d   1     -44.529  13.636  22.100  0.00  0.00     0.123 A 
ATOM     23  C   UNL d   1     -44.564  12.941  21.658  0.00  0.00     0.029 A 
ATOM     24  C   UNL d   1     -45.297  12.579  21.846  0.00  0.00     0.027 A 
ENDBRANCH  19  20
ENDBRANCH  18  19
ENDBRANCH   2  18
TORSDOF 5
ENDMDL
MODEL 4
REMARK VINA RESULT:      -6.8      8.847      9.995
REMARK  5 active torsions:
REMARK  status: ('A' for Active; 'I' for Inactive)
REMARK    1  A    between atoms: C_8  and  N_1 
REMARK    2  A    between atoms: C_6  and  C_2 
REMARK    3  A    between atoms: C_9  and  C_6 
REMARK    4  A    between atoms: C_7  and  C_9 
REMARK    5  A    between atoms: C_14  and  C_8 
ROOT
ATOM      1  N   UNL d   1     -38.843  14.429  18.109  0.00  0.00    -0.289 N 
ATOM      2  C   UNL d   1     -38.898  14.122  18.869  0.00  0.00     0.148 A 
ATOM      3  N   UNL d   1     -38.628  13.318  18.839  0.00  0.00    -0.227 NA
ATOM      4  C   UNL d   1     -38.546  13.849  17.588  0.00  0.00     0.083 A 
ATOM      5  C   UNL d   1     -38.419  13.158  18.076  0.00  0.00     0.099 A 
ATOM      6  C   UNL d   1     -38.381  13.850  16.780  0.00  0.00     0.019 A 
ATOM      7  C   UNL d   1     -38.112  12.465  17.690  0.00  0.00     0.021 A 
ATOM      8  C   UNL d   1     -38.093  13.184  16.443  0.00  0.00     0.002 A 
ATOM      9  C   UNL d   1     -37.961  12.503  16.891  0.00  0.00     0.002 A 
ENDROOT
BRANCH   1  10
ATOM     10  C   UNL d   1     -39.087  15.196  18.072  0.00  0.00     0.082 C 
BRANCH  10  11
ATOM     11  C   UNL d   1     -39.764  15.373  17.651  0.00  0.00     0.018 A 
ATOM     12  C   UNL d   1     -39.712  15.743  16.916  0.00  0.00     0.002 A 
ATOM     13  C   UNL d   1     -40.428  15.920  16.492  0.00  0.00     0.000 A 
ATOM     14  C   UNL d   1     -41.166  15.727  16.806  0.00  0.00     0.000 A 
ATOM     15  C   UNL d   1     -41.218  15.358  17.541  0.00  0.00     0.000 A 
ATOM     16  C   UNL d   1     -41.828  15.905  16.386  0.00  0.00     0.000 C 
ATOM     17  C   UNL d   1     -40.532  15.180  17.963  0.00  0.00     0.002 A 
ENDBRANCH  10  11
ENDBRANCH   1  10
BRANCH   2  18
ATOM     18  C   UNL d   1     -39.119  14.317  19.639  0.00  0.00     0.039 C 
BRANCH  18  19
ATOM     19  C   UNL d   1     -38.584  14.229  20.250  0.00  0.00     0.028 C 
BRANCH  19  20
ATOM     20  C   UNL d   1     -38.799  14.439  21.021  0.00  0.00     0.100 A 
ATOM     21  O   UNL d   1     -39.006  15.192  21.288  0.00  0.00    -0.305 OA
ATOM     22  C   UNL d   1     -39.176  15.134  22.095  0.00  0.00     0.123 A 
ATOM     23  C   UNL d   1     -39.078  14.351  22.336  0.00  0.00     0.029 A 
ATOM     24  C   UNL d   1     -38.841  13.924  21.654  0.00  0.00     0.027 A 
ENDBRANCH  19  20
ENDBRANCH  18  19
ENDBRANCH   2  18
TORSDOF 5
ENDMDL
MODEL 5
REMARK VINA RESULT:      -6.4      8.583      9.973
REMARK  5 active torsions:
REMARK  status: ('A' for Active; 'I' for Inactive)
REMARK    1  A    between atoms: C_8  and  N_1 
REMARK    2  A    between atoms: C_6  and  C_2 
REMARK    3  A    between atoms: C_9  and  C_6 
REMARK    4  A    between atoms: C_7  and  C_9 
REMARK    5  A    between atoms: C_14  and  C_8 
ROOT
ATOM      1  N   UNL d   1     -39.289  15.313  18.214  0.00  0.00    -0.289 N 
ATOM      2  C   UNL d   1     -39.506  15.468  18.990  0.00  0.00     0.148 A 
ATOM      3  N   UNL d   1     -40.314  15.727  18.982  0.00  0.00    -0.227 NA
ATOM      4  C   UNL d   1     -39.931  15.463  17.702  0.00  0.00     0.083 A 
ATOM      5  C   UNL d   1     -40.565  15.724  18.214  0.00  0.00     0.099 A 
ATOM      6  C   UNL d   1     -40.025  15.404  16.886  0.00  0.00     0.019 A 
ATOM      7  C   UNL d   1     -41.304  15.921  17.843  0.00  0.00     0.021 A 
ATOM      8  C   UNL d   1     -40.731  15.596  16.562  0.00  0.00     0.002 A 
ATOM      9  C   UNL d   1     -41.360  15.850  17.034  0.00  0.00     0.002 A 
ENDROOT
BRANCH   1  10
ATOM     10  C   UNL d   1     -38.526  15.061  18.156  0.00  0.00     0.082 C 
BRANCH  10  11
ATOM     11  C   UNL d   1     -38.382  14.293  17.919  0.00  0.00     0.018 A 
ATOM     12  C   UNL d   1     -38.087  14.137  17.165  0.00  0.00     0.002 A 
ATOM     13  C   UNL d   1     -37.943  13.330  16.936  0.00  0.00     0.000 A 
ATOM     14  C   UNL d   1     -38.095  12.709  17.456  0.00  0.00     0.000 A 
ATOM     15  C   UNL d   1     -38.390  12.864  18.210  0.00  0.00     0.000 A 
ATOM     16  C   UNL d   1     -37.951  11.955  17.216  0.00  0.00     0.000 C 
ATOM     17  C   UNL d   1     -38.534  13.641  18.445  0.00  0.00     0.002 A 
ENDBRANCH  10  11
ENDBRANCH   1  10
BRANCH   2  18
ATOM     18  C   UNL d   1     -39.219  15.461  19.764  0.00  0.00     0.039 C 
BRANCH  18  19
ATOM     19  C   UNL d   1     -39.737  15.557  20.389  0.00  0.00     0.028 C 
BRANCH  19  20
ATOM     20  C   UNL d   1     -39.464  15.482  21.166  0.00  0.00     0.100 A 
ATOM     21  O   UNL d   1     -38.864  15.921  21.524  0.00  0.00    -0.305 OA
ATOM     22  C   UNL d   1     -38.785  15.653  22.302  0.00  0.00     0.123 A 
ATOM     23  C   UNL d   1     -39.331  15.049  22.435  0.00  0.00     0.029 A 
ATOM     24  C   UNL d   1     -39.752  14.950  21.717  0.00  0.00     0.027 A 
ENDBRANCH  19  20
ENDBRANCH  18  19
ENDBRANCH   2  18
TORSDOF 5
ENDMDL
MODEL 6
REMARK VINA RESULT:      -6.2      7.779      9.564
REMARK  5 active torsions:
REMARK  status: ('A' for Active; 'I' for Inactive)
REMARK    1  A    between atoms: C_8  and  N_1 
REMARK    2  A    between atoms: C_6  and  C_2 
REMARK    3  A    between atoms: C_9  and  C_6 
REMARK    4  A    between atoms: C_7  and  C_9 
REMARK    5  A    between atoms: C_14  and  C_8 
ROOT
ATOM      1  N   UNL d   1     -39.230  14.926  20.293  0.00  0.00    -0.289 N 
ATOM      2  C   UNL d   1     -39.330  14.581  19.554  0.00  0.00     0.148 A 
ATOM      3  N   UNL d   1     -40.140  14.696  19.327  0.00  0.00    -0.227 NA
ATOM      4  C   UNL d   1     -39.949  15.261  20.551  0.00  0.00     0.083 A 
ATOM      5  C   UNL d   1     -40.506  15.101  19.922  0.00  0.00     0.099 A 
ATOM      6  C   UNL d   1     -40.167  15.668  21.234  0.00  0.00     0.019 A 
ATOM      7  C   UNL d   1     -41.302  15.381  20.030  0.00  0.00     0.021 A 
ATOM      8  C   UNL d   1     -40.922  15.921  21.310  0.00  0.00     0.002 A 
ATOM      9  C   UNL d   1     -41.480  15.780  20.718  0.00  0.00     0.002 A 
ENDROOT
BRANCH   1  10
ATOM     10  C   UNL d   1     -38.476  14.849  20.565  0.00  0.00     0.082 C 
BRANCH  10  11
ATOM     11  C   UNL d   1     -38.344  14.411  21.242  0.00  0.00     0.018 A 
ATOM     12  C   UNL d   1     -38.405  13.590  21.225  0.00  0.00     0.002 A 
ATOM     13  C   UNL d   1     -38.264  13.150  21.940  0.00  0.00     0.000 A 
ATOM     14  C   UNL d   1     -38.070  13.535  22.643  0.00  0.00     0.000 A 
ATOM     15  C   UNL d   1     -38.009  14.356  22.660  0.00  0.00     0.000 A 
ATOM     16  C   UNL d   1     -37.941  13.097  23.305  0.00  0.00     0.000 C 
ATOM     17  C   UNL d   1     -38.142  14.795  21.974  0.00  0.00     0.002 A 
ENDBRANCH  10  11
ENDBRANCH   1  10
BRANCH   2  18
ATOM     18  C   UNL d   1     -38.927  14.168  18.965  0.00  0.00     0.039 C 
BRANCH  18  19
ATOM     19  C   UNL d   1     -39.224  14.154  18.204  0.00  0.00     0.028 C 
BRANCH  19  20
ATOM     20  C   UNL d   1     -38.832  13.726  17.615  0.00  0.00     0.100 A 
ATOM     21  O   UNL d   1     -38.620  12.928  17.642  0.00  0.00    -0.305 OA
ATOM     22  C   UNL d   1     -38.240  12.745  16.931  0.00  0.00     0.123 A 
ATOM     23  C   UNL d   1     -38.211  13.421  16.459  0.00  0.00     0.029 A 
ATOM     24  C   UNL d   1     -38.585  14.030  16.897  0.00  0.00     0.027 A 
ENDBRANCH  19  20
ENDBRANCH  18  19
ENDBRANCH   2  18
TORSDOF 5
ENDMDL
MODEL 7
REMARK VINA RESULT:      -5.7      0.613      2.775
REMARK  5 active torsions:
REMARK  status: ('A' for Active; 'I' for Inactive)
REMARK    1  A    between atoms: C_8  and  N_1 
REMARK    2  A    between atoms: C_6  and  C_2 
REMARK    3  A    between atoms: C_9  and  C_6 
REMARK    4  A    between atoms: C_7  and  C_9 
REMARK    5  A    between atoms: C_14  and  C_8 
ROOT
ATOM      1  N   UNL d   1     -47.647  12.136  22.614  0.00  0.00    -0.289 N 
ATOM      2  C   UNL d   1     -47.150  11.688  23.091  0.00  0.00     0.148 A 
ATOM      3  N   UNL d   1     -47.642  11.205  23.586  0.00  0.00    -0.227 NA
ATOM      4  C   UNL d   1     -48.444  11.958  22.785  0.00  0.00     0.083 A 
ATOM      5  C   UNL d   1     -48.411  11.367  23.402  0.00  0.00     0.099 A 
ATOM      6  C   UNL d   1     -49.159  12.235  22.482  0.00  0.00     0.019 A 
ATOM      7  C   UNL d   1     -49.153  11.073  23.695  0.00  0.00     0.021 A 
ATOM      8  C   UNL d   1     -49.843  11.942  22.775  0.00  0.00     0.002 A 
ATOM      9  C   UNL d   1     -49.840  11.370  23.372  0.00  0.00     0.002 A 
ENDROOT
BRANCH   1  10
ATOM     10  C   UNL d   1     -47.236  12.620  22.118  0.00  0.00     0.082 C 
BRANCH  10  11
ATOM     11  C   UNL d   1     -47.240  13.424  22.259  0.00  0.00     0.018 A 
ATOM     12  C   UNL d   1     -46.589  13.790  22.607  0.00  0.00     0.002 A 
ATOM     13  C   UNL d   1     -46.611  14.629  22.746  0.00  0.00     0.000 A 
ATOM     14  C   UNL d   1     -47.273  15.075  22.538  0.00  0.00     0.000 A 
ATOM     15  C   UNL d   1     -47.925  14.710  22.190  0.00  0.00     0.000 A 
ATOM     16  C   UNL d   1     -47.270  15.867  22.680  0.00  0.00     0.000 C 
ATOM     17  C   UNL d   1     -47.916  13.897  22.050  0.00  0.00     0.002 A 
ENDBRANCH  10  11
ENDBRANCH   1  10
BRANCH   2  18
ATOM     18  C   UNL d   1     -46.355  11.544  23.256  0.00  0.00     0.039 C 
BRANCH  18  19
ATOM     19  C   UNL d   1     -46.112  10.791  23.457  0.00  0.00     0.028 C 
BRANCH  19  20
ATOM     20  C   UNL d   1     -45.305  10.620  23.522  0.00  0.00     0.100 A 
ATOM     21  O   UNL d   1     -44.699  11.155  23.689  0.00  0.00    -0.305 OA
ATOM     22  C   UNL d   1     -43.988  10.734  23.698  0.00  0.00     0.123 A 
ATOM     23  C   UNL d   1     -44.142   9.940  23.538  0.00  0.00     0.029 A 
ATOM     24  C   UNL d   1     -44.972   9.879  23.429  0.00  0.00     0.027 A 
ENDBRANCH  19  20
ENDBRANCH  18  19
ENDBRANCH   2  18
TORSDOF 5
ENDMDL
