MODEL 1
REMARK VINA RESULT:      45.3      0.000      0.000
REMARK  4 active torsions:
REMARK  status: ('A' for Active; 'I' for Inactive)
REMARK    1  A    between atoms: C_4  and  S_1 
REMARK    2  A    between atoms: N_5  and  S_1 
REMARK    3  A    between atoms: C_3  and  C_12 
REMARK    4  A    between atoms: C_12  and  N_5 
ROOT
ATOM      1  S   UNL d   1     -55.605-102.018 -40.365  0.00  0.00     0.285 S 
ATOM      2  O   UNL d   1     -56.020-101.315 -40.242  0.00  0.00    -0.198 OA
ATOM      3  O   UNL d   1     -55.182-102.730 -40.499  0.00  0.00    -0.198 OA
ENDROOT
BRANCH   1   4
ATOM      4  C   UNL d   1     -55.712-102.228 -39.577  0.00  0.00     0.105 A 
ATOM      5  C   UNL d   1     -55.148-101.994 -39.006  0.00  0.00     0.013 A 
ATOM      6  C   UNL d   1     -55.276-102.217 -38.221  0.00  0.00     0.001 A 
ATOM      7  C   UNL d   1     -54.712-101.983 -37.655  0.00  0.00     0.000 A 
ATOM      8  C   UNL d   1     -55.936-102.654 -38.000  0.00  0.00     0.000 A 
ATOM      9  C   UNL d   1     -54.830-102.200 -36.866  0.00  0.00     0.000 A 
ATOM     10  C   UNL d   1     -55.489-102.638 -36.641  0.00  0.00     0.000 A 
ATOM     11  C   UNL d   1     -56.040-102.862 -37.217  0.00  0.00     0.000 A 
ATOM     12  C   UNL d   1     -56.475-102.873 -38.568  0.00  0.00     0.001 A 
ATOM     13  C   UNL d   1     -56.368-102.663 -39.356  0.00  0.00     0.013 A 
ENDBRANCH   1   4
BRANCH   1  14
ATOM     14  N   UNL d   1     -55.492-101.813 -41.166  0.00  0.00    -0.155 NA
BRANCH  14  15
ATOM     15  C   UNL d   1     -54.930-102.202 -41.624  0.00  0.00     0.132 C 
BRANCH  15  16
ATOM     16  C   UNL d   1     -54.860-102.036 -42.438  0.00  0.00     0.108 A 
ATOM     17  N   UNL d   1     -54.869-101.288 -42.774  0.00  0.00    -0.237 NA
ATOM     18  C   UNL d   1     -54.784-101.374 -43.600  0.00  0.00     0.111 A 
ATOM     19  C   UNL d   1     -54.763-100.757 -44.160  0.00  0.00     0.028 C 
ATOM     20  S   UNL d   1     -54.724-102.182 -43.757  0.00  0.00    -0.066 SA
ATOM     21  C   UNL d   1     -54.771-102.591 -43.038  0.00  0.00     0.058 A 
ENDBRANCH  15  16
ENDBRANCH  14  15
ENDBRANCH   1  14
TORSDOF 4
ENDMDL
