MODEL 1
REMARK VINA RESULT:      -3.9      0.000      0.000
REMARK  4 active torsions:
REMARK  status: ('A' for Active; 'I' for Inactive)
REMARK    1  A    between atoms: C_7  and  C_1 
REMARK    2  A    between atoms: C_8  and  C_7 
REMARK       I    between atoms: N_9  and  C_8 
REMARK    3  A    between atoms: C_14  and  N_9 
REMARK    4  A    between atoms: C_15  and  C_14 
ROOT
ATOM      1  C   UNL d   1      57.541  -0.295  31.804  0.00  0.00     0.032 A 
ATOM      2  C   UNL d   1      57.131  -0.167  32.511  0.00  0.00     0.025 A 
ATOM      3  C   UNL d   1      58.200   0.190  31.705  0.00  0.00     0.123 A 
ATOM      4  O   UNL d   1      58.168   0.682  32.481  0.00  0.00    -0.305 OA
ATOM      5  C   UNL d   1      56.455  -0.517  32.834  0.00  0.00     0.002 A 
ATOM      6  C   UNL d   1      57.517   0.435  32.928  0.00  0.00     0.100 A 
ATOM      7  C   UNL d   1      56.164  -0.274  33.562  0.00  0.00     0.000 A 
ATOM      8  C   UNL d   1      57.224   0.681  33.664  0.00  0.00     0.025 A 
ATOM      9  C   UNL d   1      56.551   0.328  33.979  0.00  0.00     0.002 A 
ATOM     10  C   UNL d   1      56.070  -1.116  32.419  0.00  0.00     0.000 A 
ATOM     11  C   UNL d   1      55.500  -0.624  33.873  0.00  0.00     0.000 A 
ATOM     12  C   UNL d   1      55.397  -1.469  32.734  0.00  0.00     0.000 A 
ATOM     13  C   UNL d   1      55.115  -1.215  33.470  0.00  0.00     0.000 A 
ENDROOT
BRANCH   1  14
ATOM     14  C   UNL d   1      57.345  -0.848  31.221  0.00  0.00     0.065 C 
BRANCH  14  15
ATOM     15  C   UNL d   1      57.696  -0.805  30.474  0.00  0.00     0.279 C 
ATOM     16  N   UNL d   1      58.075  -1.466  30.159  0.00  0.00    -0.206 NA
ATOM     17  O   UNL d   1      57.668  -0.109  30.044  0.00  0.00    -0.265 OA
BRANCH  16  18
ATOM     18  C   UNL d   1      58.423  -1.429  29.421  0.00  0.00     0.102 C 
BRANCH  18  19
ATOM     19  C   UNL d   1      58.817  -2.086  29.108  0.00  0.00     0.019 A 
ATOM     20  C   UNL d   1      59.601  -2.013  28.881  0.00  0.00     0.002 A 
ATOM     21  C   UNL d   1      59.999  -2.662  28.569  0.00  0.00     0.000 A 
ATOM     22  C   UNL d   1      59.612  -3.384  28.485  0.00  0.00     0.000 A 
ATOM     23  C   UNL d   1      58.814  -3.451  28.719  0.00  0.00     0.000 A 
ATOM     24  C   UNL d   1      58.425  -2.800  29.029  0.00  0.00     0.002 A 
ENDBRANCH  18  19
ENDBRANCH  16  18
ENDBRANCH  14  15
ENDBRANCH   1  14
TORSDOF 4
ENDMDL
MODEL 2
REMARK VINA RESULT:      -3.8      1.418      5.229
REMARK  4 active torsions:
REMARK  status: ('A' for Active; 'I' for Inactive)
REMARK    1  A    between atoms: C_7  and  C_1 
REMARK    2  A    between atoms: C_8  and  C_7 
REMARK       I    between atoms: N_9  and  C_8 
REMARK    3  A    between atoms: C_14  and  N_9 
REMARK    4  A    between atoms: C_15  and  C_14 
ROOT
ATOM      1  C   UNL d   1      58.425  -0.674  29.973  0.00  0.00     0.032 A 
ATOM      2  C   UNL d   1      59.062  -0.893  29.492  0.00  0.00     0.025 A 
ATOM      3  C   UNL d   1      57.840  -1.251  30.038  0.00  0.00     0.123 A 
ATOM      4  O   UNL d   1      58.193  -1.913  29.509  0.00  0.00    -0.305 OA
ATOM      5  C   UNL d   1      59.756  -0.499  29.274  0.00  0.00     0.002 A 
ATOM      6  C   UNL d   1      58.919  -1.656  29.206  0.00  0.00     0.100 A 
ATOM      7  C   UNL d   1      60.303  -0.858  28.778  0.00  0.00     0.000 A 
ATOM      8  C   UNL d   1      59.471  -2.019  28.705  0.00  0.00     0.025 A 
ATOM      9  C   UNL d   1      60.160  -1.622  28.492  0.00  0.00     0.002 A 
ATOM     10  C   UNL d   1      59.899   0.261  29.558  0.00  0.00     0.000 A 
ATOM     11  C   UNL d   1      60.982  -0.465  28.569  0.00  0.00     0.000 A 
ATOM     12  C   UNL d   1      60.587   0.659  29.346  0.00  0.00     0.000 A 
ATOM     13  C   UNL d   1      61.130   0.285  28.845  0.00  0.00     0.000 A 
ENDROOT
BRANCH   1  14
ATOM     14  C   UNL d   1      58.341   0.046  30.371  0.00  0.00     0.065 C 
BRANCH  14  15
ATOM     15  C   UNL d   1      57.599   0.283  30.648  0.00  0.00     0.279 C 
ATOM     16  N   UNL d   1      57.431   0.246  31.455  0.00  0.00    -0.206 NA
ATOM     17  O   UNL d   1      57.030   0.553  30.126  0.00  0.00    -0.265 OA
BRANCH  16  18
ATOM     18  C   UNL d   1      56.700   0.478  31.734  0.00  0.00     0.102 C 
BRANCH  18  19
ATOM     19  C   UNL d   1      56.512   0.400  32.537  0.00  0.00     0.019 A 
ATOM     20  C   UNL d   1      55.807   0.039  32.751  0.00  0.00     0.002 A 
ATOM     21  C   UNL d   1      55.615  -0.041  33.546  0.00  0.00     0.000 A 
ATOM     22  C   UNL d   1      56.127   0.240  34.128  0.00  0.00     0.000 A 
ATOM     23  C   UNL d   1      56.842   0.606  33.901  0.00  0.00     0.000 A 
ATOM     24  C   UNL d   1      57.026   0.682  33.107  0.00  0.00     0.002 A 
ENDBRANCH  18  19
ENDBRANCH  16  18
ENDBRANCH  14  15
ENDBRANCH   1  14
TORSDOF 4
ENDMDL
MODEL 3
REMARK VINA RESULT:      -3.0      8.654      9.787
REMARK  4 active torsions:
REMARK  status: ('A' for Active; 'I' for Inactive)
REMARK    1  A    between atoms: C_7  and  C_1 
REMARK    2  A    between atoms: C_8  and  C_7 
REMARK       I    between atoms: N_9  and  C_8 
REMARK    3  A    between atoms: C_14  and  N_9 
REMARK    4  A    between atoms: C_15  and  C_14 
ROOT
ATOM      1  C   UNL d   1      59.966  -9.810  31.429  0.00  0.00     0.032 A 
ATOM      2  C   UNL d   1      59.467  -9.811  30.769  0.00  0.00     0.025 A 
ATOM      3  C   UNL d   1      60.770  -9.808  31.243  0.00  0.00     0.123 A 
ATOM      4  O   UNL d   1      60.732  -9.808  30.325  0.00  0.00    -0.305 OA
ATOM      5  C   UNL d   1      58.643  -9.813  30.694  0.00  0.00     0.002 A 
ATOM      6  C   UNL d   1      59.939  -9.810  30.089  0.00  0.00     0.100 A 
ATOM      7  C   UNL d   1      58.291  -9.814  29.953  0.00  0.00     0.000 A 
ATOM      8  C   UNL d   1      59.583  -9.811  29.340  0.00  0.00     0.025 A 
ATOM      9  C   UNL d   1      58.763  -9.813  29.272  0.00  0.00     0.002 A 
ATOM     10  C   UNL d   1      58.174  -9.815  31.371  0.00  0.00     0.000 A 
ATOM     11  C   UNL d   1      57.481  -9.816  29.887  0.00  0.00     0.000 A 
ATOM     12  C   UNL d   1      57.354  -9.817  31.304  0.00  0.00     0.000 A 
ATOM     13  C   UNL d   1      57.011  -9.818  30.550  0.00  0.00     0.000 A 
ENDROOT
BRANCH   1  14
ATOM     14  C   UNL d   1      59.726  -9.811  32.221  0.00  0.00     0.065 C 
BRANCH  14  15
ATOM     15  C   UNL d   1      60.267  -9.625  32.818  0.00  0.00     0.279 C 
ATOM     16  N   UNL d   1      59.995  -9.356  33.549  0.00  0.00    -0.206 NA
ATOM     17  O   UNL d   1      61.070  -9.706  32.687  0.00  0.00    -0.265 OA
BRANCH  16  18
ATOM     18  C   UNL d   1      60.524  -9.171  34.142  0.00  0.00     0.102 C 
BRANCH  18  19
ATOM     19  C   UNL d   1      60.265  -8.804  34.838  0.00  0.00     0.019 A 
ATOM     20  C   UNL d   1      59.601  -9.094  35.221  0.00  0.00     0.002 A 
ATOM     21  C   UNL d   1      59.338  -8.733  35.912  0.00  0.00     0.000 A 
ATOM     22  C   UNL d   1      59.740  -8.083  36.220  0.00  0.00     0.000 A 
ATOM     23  C   UNL d   1      60.416  -7.795  35.823  0.00  0.00     0.000 A 
ATOM     24  C   UNL d   1      60.671  -8.159  35.136  0.00  0.00     0.002 A 
ENDBRANCH  18  19
ENDBRANCH  16  18
ENDBRANCH  14  15
ENDBRANCH   1  14
TORSDOF 4
ENDMDL
