MODEL 1
REMARK VINA RESULT:     -10.5      0.000      0.000
REMARK  5 active torsions:
REMARK  status: ('A' for Active; 'I' for Inactive)
REMARK    1  A    between atoms: C_13  and  N_2 
REMARK    2  A    between atoms: C_10  and  N_4 
REMARK    3  A    between atoms: C_11  and  C_10 
REMARK       I    between atoms: N_15  and  C_11 
REMARK    4  A    between atoms: C_16  and  N_15 
REMARK    5  A    between atoms: O_21  and  C_19 
ROOT
ATOM      1  C   UNL d   1      52.937  34.412  54.042  0.00  0.00     0.172 A 
ATOM      2  N   UNL d   1      51.968  34.003  53.059  0.00  0.00    -0.226 N 
ATOM      3  C   UNL d   1      52.425  33.303  52.926  0.00  0.00     0.342 A 
ATOM      4  N   UNL d   1      53.114  33.177  53.347  0.00  0.00    -0.252 N 
ATOM      5  C   UNL d   1      53.371  33.724  53.901  0.00  0.00     0.098 A 
ATOM      6  C   UNL d   1      52.233  34.548  53.617  0.00  0.00     0.292 A 
ATOM      7  O   UNL d   1      53.315  34.857  54.616  0.00  0.00    -0.301 OA
ATOM      8  C   UNL d   1      54.018  33.767  54.404  0.00  0.00     0.041 A 
ATOM      9  C   UNL d   1      53.971  34.462  54.833  0.00  0.00     0.102 A 
ATOM     10  O   UNL d   1      52.170  32.734  52.360  0.00  0.00    -0.245 OA
ATOM     11  O   UNL d   1      51.791  35.244  53.757  0.00  0.00    -0.264 OA
ATOM     12  C   UNL d   1      54.655  33.243  54.521  0.00  0.00     0.004 A 
ATOM     13  C   UNL d   1      54.559  34.648  55.388  0.00  0.00     0.025 A 
ATOM     14  C   UNL d   1      55.244  33.429  55.077  0.00  0.00     0.000 A 
ATOM     15  C   UNL d   1      55.183  34.127  55.498  0.00  0.00     0.002 A 
ENDROOT
BRANCH   4  16
ATOM     16  C   UNL d   1      53.569  32.479  53.215  0.00  0.00     0.147 C 
BRANCH  16  17
ATOM     17  C   UNL d   1      53.236  31.723  53.415  0.00  0.00     0.297 C 
ATOM     18  N   UNL d   1      53.590  31.044  53.148  0.00  0.00    -0.207 NA
ATOM     19  O   UNL d   1      52.554  31.697  53.879  0.00  0.00    -0.264 OA
BRANCH  18  20
ATOM     20  C   UNL d   1      53.270  30.322  53.341  0.00  0.00     0.087 A 
ATOM     21  C   UNL d   1      53.599  29.886  53.971  0.00  0.00     0.043 A 
ATOM     22  C   UNL d   1      53.278  29.151  54.173  0.00  0.00     0.096 A 
ATOM     23  C   UNL d   1      52.629  28.851  53.744  0.00  0.00     0.024 A 
ATOM     24  C   UNL d   1      52.306  29.289  53.118  0.00  0.00     0.004 A 
ATOM     25  C   UNL d   1      52.627  30.018  52.921  0.00  0.00     0.019 A 
BRANCH  22  26
ATOM     26  O   UNL d   1      53.600  28.705  54.803  0.00  0.00    -0.328 OA
ATOM     27  C   UNL d   1      53.242  28.727  55.544  0.00  0.00     0.181 C 
ENDBRANCH  22  26
ENDBRANCH  18  20
ENDBRANCH  16  17
ENDBRANCH   4  16
BRANCH   2  28
ATOM     28  C   UNL d   1      51.264  34.145  52.637  0.00  0.00     0.071 A 
ATOM     29  C   UNL d   1      51.293  34.324  51.833  0.00  0.00     0.018 A 
ATOM     30  C   UNL d   1      50.584  34.466  51.420  0.00  0.00     0.002 A 
ATOM     31  C   UNL d   1      49.875  34.426  51.809  0.00  0.00     0.000 A 
ATOM     32  C   UNL d   1      49.845  34.246  52.612  0.00  0.00     0.002 A 
ATOM     33  C   UNL d   1      50.540  34.108  53.018  0.00  0.00     0.018 A 
ENDBRANCH   2  28
TORSDOF 5
ENDMDL
MODEL 2
REMARK VINA RESULT:      -8.9      1.211      4.381
REMARK  5 active torsions:
REMARK  status: ('A' for Active; 'I' for Inactive)
REMARK    1  A    between atoms: C_13  and  N_2 
REMARK    2  A    between atoms: C_10  and  N_4 
REMARK    3  A    between atoms: C_11  and  C_10 
REMARK       I    between atoms: N_15  and  C_11 
REMARK    4  A    between atoms: C_16  and  N_15 
REMARK    5  A    between atoms: O_21  and  C_19 
ROOT
ATOM      1  C   UNL d   1      53.365  33.053  54.361  0.00  0.00     0.172 A 
ATOM      2  N   UNL d   1      52.984  31.967  53.496  0.00  0.00    -0.226 N 
ATOM      3  C   UNL d   1      52.629  32.530  52.974  0.00  0.00     0.342 A 
ATOM      4  N   UNL d   1      52.650  33.327  53.155  0.00  0.00    -0.252 N 
ATOM      5  C   UNL d   1      53.014  33.590  53.841  0.00  0.00     0.098 A 
ATOM      6  C   UNL d   1      53.347  32.239  54.184  0.00  0.00     0.292 A 
ATOM      7  O   UNL d   1      53.684  33.461  54.995  0.00  0.00    -0.301 OA
ATOM      8  C   UNL d   1      53.130  34.329  54.178  0.00  0.00     0.041 A 
ATOM      9  C   UNL d   1      53.540  34.235  54.881  0.00  0.00     0.102 A 
ATOM     10  O   UNL d   1      52.253  32.271  52.267  0.00  0.00    -0.245 OA
ATOM     11  O   UNL d   1      53.702  31.692  54.708  0.00  0.00    -0.264 OA
ATOM     12  C   UNL d   1      52.906  35.089  53.922  0.00  0.00     0.004 A 
ATOM     13  C   UNL d   1      53.733  34.898  55.341  0.00  0.00     0.025 A 
ATOM     14  C   UNL d   1      53.100  35.753  54.382  0.00  0.00     0.000 A 
ATOM     15  C   UNL d   1      53.510  35.642  55.081  0.00  0.00     0.002 A 
ENDROOT
BRANCH   4  16
ATOM     16  C   UNL d   1      52.296  33.889  52.634  0.00  0.00     0.147 C 
BRANCH  16  17
ATOM     17  C   UNL d   1      51.449  33.941  52.595  0.00  0.00     0.297 C 
ATOM     18  N   UNL d   1      51.102  34.479  52.098  0.00  0.00    -0.207 NA
ATOM     19  O   UNL d   1      50.995  33.438  53.067  0.00  0.00    -0.264 OA
BRANCH  18  20
ATOM     20  C   UNL d   1      50.291  34.528  52.062  0.00  0.00     0.087 A 
ATOM     21  C   UNL d   1      49.880  34.932  52.665  0.00  0.00     0.043 A 
ATOM     22  C   UNL d   1      49.055  34.985  52.635  0.00  0.00     0.096 A 
ATOM     23  C   UNL d   1      48.641  34.633  52.002  0.00  0.00     0.024 A 
ATOM     24  C   UNL d   1      49.055  34.233  51.406  0.00  0.00     0.004 A 
ATOM     25  C   UNL d   1      49.873  34.182  51.439  0.00  0.00     0.019 A 
BRANCH  22  26
ATOM     26  O   UNL d   1      48.634  35.388  53.234  0.00  0.00    -0.328 OA
ATOM     27  C   UNL d   1      48.096  35.978  53.029  0.00  0.00     0.181 C 
ENDBRANCH  22  26
ENDBRANCH  18  20
ENDBRANCH  16  17
ENDBRANCH   4  16
BRANCH   2  28
ATOM     28  C   UNL d   1      52.970  31.152  53.325  0.00  0.00     0.071 A 
ATOM     29  C   UNL d   1      53.609  30.800  52.942  0.00  0.00     0.018 A 
ATOM     30  C   UNL d   1      53.587  29.984  52.775  0.00  0.00     0.002 A 
ATOM     31  C   UNL d   1      52.942  29.545  52.990  0.00  0.00     0.000 A 
ATOM     32  C   UNL d   1      52.302  29.896  53.372  0.00  0.00     0.002 A 
ATOM     33  C   UNL d   1      52.324  30.696  53.536  0.00  0.00     0.018 A 
ENDBRANCH   2  28
TORSDOF 5
ENDMDL
MODEL 3
REMARK VINA RESULT:      -8.4      0.680      3.157
REMARK  5 active torsions:
REMARK  status: ('A' for Active; 'I' for Inactive)
REMARK    1  A    between atoms: C_13  and  N_2 
REMARK    2  A    between atoms: C_10  and  N_4 
REMARK    3  A    between atoms: C_11  and  C_10 
REMARK       I    between atoms: N_15  and  C_11 
REMARK    4  A    between atoms: C_16  and  N_15 
REMARK    5  A    between atoms: O_21  and  C_19 
ROOT
ATOM      1  C   UNL d   1      52.349  34.397  53.750  0.00  0.00     0.172 A 
ATOM      2  N   UNL d   1      53.592  33.811  54.179  0.00  0.00    -0.226 N 
ATOM      3  C   UNL d   1      53.450  33.166  53.651  0.00  0.00     0.342 A 
ATOM      4  N   UNL d   1      52.773  33.151  53.193  0.00  0.00    -0.252 N 
ATOM      5  C   UNL d   1      52.225  33.760  53.240  0.00  0.00     0.098 A 
ATOM      6  C   UNL d   1      53.036  34.419  54.220  0.00  0.00     0.292 A 
ATOM      7  O   UNL d   1      51.721  34.920  53.686  0.00  0.00    -0.301 OA
ATOM      8  C   UNL d   1      51.509  33.913  52.868  0.00  0.00     0.041 A 
ATOM      9  C   UNL d   1      51.214  34.623  53.150  0.00  0.00     0.102 A 
ATOM     10  O   UNL d   1      54.005  32.536  53.596  0.00  0.00    -0.245 OA
ATOM     11  O   UNL d   1      53.166  35.062  54.738  0.00  0.00    -0.264 OA
ATOM     12  C   UNL d   1      51.085  33.480  52.297  0.00  0.00     0.004 A 
ATOM     13  C   UNL d   1      50.491  34.914  52.867  0.00  0.00     0.025 A 
ATOM     14  C   UNL d   1      50.361  33.771  52.013  0.00  0.00     0.000 A 
ATOM     15  C   UNL d   1      50.080  34.482  52.304  0.00  0.00     0.002 A 
ENDROOT
BRANCH   4  16
ATOM     16  C   UNL d   1      52.631  32.507  52.667  0.00  0.00     0.147 C 
BRANCH  16  17
ATOM     17  C   UNL d   1      52.531  31.726  52.986  0.00  0.00     0.297 C 
ATOM     18  N   UNL d   1      52.972  31.113  52.692  0.00  0.00    -0.207 NA
ATOM     19  O   UNL d   1      51.983  31.609  53.591  0.00  0.00    -0.264 OA
BRANCH  18  20
ATOM     20  C   UNL d   1      52.875  30.366  52.998  0.00  0.00     0.087 A 
ATOM     21  C   UNL d   1      53.367  30.115  53.623  0.00  0.00     0.043 A 
ATOM     22  C   UNL d   1      53.273  29.357  53.939  0.00  0.00     0.096 A 
ATOM     23  C   UNL d   1      52.688  28.849  53.631  0.00  0.00     0.024 A 
ATOM     24  C   UNL d   1      52.202  29.104  53.010  0.00  0.00     0.004 A 
ATOM     25  C   UNL d   1      52.297  29.856  52.698  0.00  0.00     0.019 A 
BRANCH  22  26
ATOM     26  O   UNL d   1      53.762  29.095  54.566  0.00  0.00    -0.328 OA
ATOM     27  C   UNL d   1      53.420  28.782  55.247  0.00  0.00     0.181 C 
ENDBRANCH  22  26
ENDBRANCH  18  20
ENDBRANCH  16  17
ENDBRANCH   4  16
BRANCH   2  28
ATOM     28  C   UNL d   1      54.277  33.839  54.652  0.00  0.00     0.071 A 
ATOM     29  C   UNL d   1      54.985  34.121  54.337  0.00  0.00     0.018 A 
ATOM     30  C   UNL d   1      55.665  34.146  54.816  0.00  0.00     0.002 A 
ATOM     31  C   UNL d   1      55.627  33.894  55.585  0.00  0.00     0.000 A 
ATOM     32  C   UNL d   1      54.920  33.613  55.901  0.00  0.00     0.002 A 
ATOM     33  C   UNL d   1      54.252  33.588  55.431  0.00  0.00     0.018 A 
ENDBRANCH   2  28
TORSDOF 5
ENDMDL
