MODEL 1
REMARK VINA RESULT:      -8.6      0.000      0.000
REMARK  5 active torsions:
REMARK  status: ('A' for Active; 'I' for Inactive)
REMARK    1  A    between atoms: N_2  and  S_1 
REMARK    2  A    between atoms: C_5  and  S_1 
REMARK    3  A    between atoms: S_8  and  C_3 
REMARK    4  A    between atoms: C_13  and  S_8 
REMARK    5  A    between atoms: C_15  and  C_13 
ROOT
ATOM      1  N   UNL d   1      53.382  31.669  53.377  0.00  0.00    -0.208 N 
ATOM      2  C   UNL d   1      53.042  32.413  53.527  0.00  0.00     0.189 A 
ATOM      3  N   UNL d   1      53.495  32.792  54.107  0.00  0.00    -0.219 NA
ATOM      4  C   UNL d   1      54.049  31.591  53.868  0.00  0.00     0.114 A 
ATOM      5  C   UNL d   1      54.114  32.282  54.315  0.00  0.00     0.121 A 
ENDROOT
BRANCH   1   6
ATOM      6  S   UNL d   1      53.103  31.109  52.833  0.00  0.00     0.273 S 
ATOM      7  O   UNL d   1      52.822  30.755  52.140  0.00  0.00    -0.200 OA
ATOM      8  O   UNL d   1      53.064  31.716  52.284  0.00  0.00    -0.200 OA
BRANCH   6   9
ATOM      9  C   UNL d   1      53.137  30.485  53.374  0.00  0.00     0.104 A 
ATOM     10  C   UNL d   1      53.847  30.094  53.494  0.00  0.00     0.015 A 
ATOM     11  C   UNL d   1      53.878  29.473  54.032  0.00  0.00     0.030 A 
ATOM     12  C   UNL d   1      53.198  29.249  54.445  0.00  0.00     0.140 A 
ATOM     13  C   UNL d   1      52.487  29.642  54.322  0.00  0.00     0.030 A 
ATOM     14  F   UNL d   1      53.230  28.624  54.986  0.00  0.00    -0.204 F 
ATOM     15  C   UNL d   1      52.457  30.267  53.781  0.00  0.00     0.015 A 
ENDBRANCH   6   9
ENDBRANCH   1   6
BRANCH   2  16
ATOM     16  S   UNL d   1      52.363  32.723  53.157  0.00  0.00    -0.049 SA
BRANCH  16  17
ATOM     17  C   UNL d   1      52.109  33.487  53.340  0.00  0.00     0.038 C 
BRANCH  17  18
ATOM     18  C   UNL d   1      51.424  33.790  52.978  0.00  0.00     0.007 A 
ATOM     19  C   UNL d   1      51.464  34.138  52.225  0.00  0.00     0.001 A 
ATOM     20  C   UNL d   1      50.792  34.439  51.864  0.00  0.00     0.000 A 
ATOM     21  C   UNL d   1      50.068  34.394  52.256  0.00  0.00     0.000 A 
ATOM     22  C   UNL d   1      50.023  34.047  53.007  0.00  0.00     0.000 A 
ATOM     23  C   UNL d   1      49.388  34.694  51.900  0.00  0.00     0.000 C 
ATOM     24  C   UNL d   1      50.701  33.747  53.366  0.00  0.00     0.001 A 
ENDBRANCH  17  18
ENDBRANCH  16  17
ENDBRANCH   2  16
TORSDOF 5
ENDMDL
MODEL 2
REMARK VINA RESULT:      -7.9      2.018      4.515
REMARK  5 active torsions:
REMARK  status: ('A' for Active; 'I' for Inactive)
REMARK    1  A    between atoms: N_2  and  S_1 
REMARK    2  A    between atoms: C_5  and  S_1 
REMARK    3  A    between atoms: S_8  and  C_3 
REMARK    4  A    between atoms: C_13  and  S_8 
REMARK    5  A    between atoms: C_15  and  C_13 
ROOT
ATOM      1  N   UNL d   1      53.062  33.195  53.064  0.00  0.00    -0.208 N 
ATOM      2  C   UNL d   1      52.701  32.446  53.039  0.00  0.00     0.189 A 
ATOM      3  N   UNL d   1      51.954  32.531  52.691  0.00  0.00    -0.219 NA
ATOM      4  C   UNL d   1      52.533  33.743  52.729  0.00  0.00     0.114 A 
ATOM      5  C   UNL d   1      51.855  33.332  52.501  0.00  0.00     0.121 A 
ENDROOT
BRANCH   1   6
ATOM      6  S   UNL d   1      53.814  33.360  53.369  0.00  0.00     0.273 S 
ATOM      7  O   UNL d   1      54.630  33.342  53.511  0.00  0.00    -0.200 OA
ATOM      8  O   UNL d   1      54.105  32.779  52.870  0.00  0.00    -0.200 OA
BRANCH   6   9
ATOM      9  C   UNL d   1      53.540  33.950  53.879  0.00  0.00     0.104 A 
ATOM     10  C   UNL d   1      53.362  34.691  53.577  0.00  0.00     0.015 A 
ATOM     11  C   UNL d   1      53.089  35.278  54.086  0.00  0.00     0.030 A 
ATOM     12  C   UNL d   1      52.997  35.116  54.892  0.00  0.00     0.140 A 
ATOM     13  C   UNL d   1      53.176  34.371  55.191  0.00  0.00     0.030 A 
ATOM     14  F   UNL d   1      52.722  35.705  55.402  0.00  0.00    -0.204 F 
ATOM     15  C   UNL d   1      53.450  33.783  54.678  0.00  0.00     0.015 A 
ENDBRANCH   6   9
ENDBRANCH   1   6
BRANCH   2  16
ATOM     16  S   UNL d   1      53.034  31.735  53.316  0.00  0.00    -0.049 SA
BRANCH  16  17
ATOM     17  C   UNL d   1      52.625  31.024  53.216  0.00  0.00     0.038 C 
BRANCH  17  18
ATOM     18  C   UNL d   1      52.878  30.343  53.620  0.00  0.00     0.007 A 
ATOM     19  C   UNL d   1      52.818  30.296  54.447  0.00  0.00     0.001 A 
ATOM     20  C   UNL d   1      53.067  29.626  54.849  0.00  0.00     0.000 A 
ATOM     21  C   UNL d   1      53.381  28.992  54.426  0.00  0.00     0.000 A 
ATOM     22  C   UNL d   1      53.443  29.035  53.601  0.00  0.00     0.000 A 
ATOM     23  C   UNL d   1      53.633  28.316  54.823  0.00  0.00     0.000 C 
ATOM     24  C   UNL d   1      53.192  29.709  53.201  0.00  0.00     0.001 A 
ENDBRANCH  17  18
ENDBRANCH  16  17
ENDBRANCH   2  16
TORSDOF 5
ENDMDL
MODEL 3
REMARK VINA RESULT:      -7.7      2.156      2.875
REMARK  5 active torsions:
REMARK  status: ('A' for Active; 'I' for Inactive)
REMARK    1  A    between atoms: N_2  and  S_1 
REMARK    2  A    between atoms: C_5  and  S_1 
REMARK    3  A    between atoms: S_8  and  C_3 
REMARK    4  A    between atoms: C_13  and  S_8 
REMARK    5  A    between atoms: C_15  and  C_13 
ROOT
ATOM      1  N   UNL d   1      52.827  33.427  53.140  0.00  0.00    -0.208 N 
ATOM      2  C   UNL d   1      52.020  33.289  52.995  0.00  0.00     0.189 A 
ATOM      3  N   UNL d   1      51.917  32.479  52.861  0.00  0.00    -0.219 NA
ATOM      4  C   UNL d   1      53.223  32.697  53.094  0.00  0.00     0.114 A 
ATOM      5  C   UNL d   1      52.660  32.118  52.923  0.00  0.00     0.121 A 
ENDROOT
BRANCH   1   6
ATOM      6  S   UNL d   1      53.172  34.164  53.300  0.00  0.00     0.273 S 
ATOM      7  O   UNL d   1      53.382  34.963  53.254  0.00  0.00    -0.200 OA
ATOM      8  O   UNL d   1      52.773  34.453  52.645  0.00  0.00    -0.200 OA
BRANCH   6   9
ATOM      9  C   UNL d   1      53.582  33.891  53.964  0.00  0.00     0.104 A 
ATOM     10  C   UNL d   1      53.259  33.998  54.709  0.00  0.00     0.015 A 
ATOM     11  C   UNL d   1      53.669  33.725  55.368  0.00  0.00     0.030 A 
ATOM     12  C   UNL d   1      54.398  33.349  55.275  0.00  0.00     0.140 A 
ATOM     13  C   UNL d   1      54.721  33.243  54.526  0.00  0.00     0.030 A 
ATOM     14  F   UNL d   1      54.810  33.075  55.938  0.00  0.00    -0.204 F 
ATOM     15  C   UNL d   1      54.307  33.517  53.864  0.00  0.00     0.015 A 
ENDBRANCH   6   9
ENDBRANCH   1   6
BRANCH   2  16
ATOM     16  S   UNL d   1      51.420  33.867  52.987  0.00  0.00    -0.049 SA
BRANCH  16  17
ATOM     17  C   UNL d   1      50.629  33.636  52.930  0.00  0.00     0.038 C 
BRANCH  17  18
ATOM     18  C   UNL d   1      50.041  34.210  52.806  0.00  0.00     0.007 A 
ATOM     19  C   UNL d   1      49.682  34.291  52.061  0.00  0.00     0.001 A 
ATOM     20  C   UNL d   1      49.101  34.856  51.934  0.00  0.00     0.000 A 
ATOM     21  C   UNL d   1      48.871  35.349  52.554  0.00  0.00     0.000 A 
ATOM     22  C   UNL d   1      49.228  35.271  53.298  0.00  0.00     0.000 A 
ATOM     23  C   UNL d   1      48.289  35.918  52.434  0.00  0.00     0.000 C 
ATOM     24  C   UNL d   1      49.810  34.703  53.422  0.00  0.00     0.001 A 
ENDBRANCH  17  18
ENDBRANCH  16  17
ENDBRANCH   2  16
TORSDOF 5
ENDMDL
MODEL 4
REMARK VINA RESULT:      -6.7      1.806      4.364
REMARK  5 active torsions:
REMARK  status: ('A' for Active; 'I' for Inactive)
REMARK    1  A    between atoms: N_2  and  S_1 
REMARK    2  A    between atoms: C_5  and  S_1 
REMARK    3  A    between atoms: S_8  and  C_3 
REMARK    4  A    between atoms: C_13  and  S_8 
REMARK    5  A    between atoms: C_15  and  C_13 
ROOT
ATOM      1  N   UNL d   1      52.865  33.576  53.414  0.00  0.00    -0.208 N 
ATOM      2  C   UNL d   1      53.194  33.018  53.935  0.00  0.00     0.189 A 
ATOM      3  N   UNL d   1      53.431  33.415  54.622  0.00  0.00    -0.219 NA
ATOM      4  C   UNL d   1      52.900  34.321  53.782  0.00  0.00     0.114 A 
ATOM      5  C   UNL d   1      53.248  34.217  54.524  0.00  0.00     0.121 A 
ENDROOT
BRANCH   1   6
ATOM      6  S   UNL d   1      52.558  33.414  52.661  0.00  0.00     0.273 S 
ATOM      7  O   UNL d   1      52.487  33.164  51.875  0.00  0.00    -0.200 OA
ATOM      8  O   UNL d   1      53.293  33.109  52.466  0.00  0.00    -0.200 OA
BRANCH   6   9
ATOM      9  C   UNL d   1      51.810  33.718  52.839  0.00  0.00     0.104 A 
ATOM     10  C   UNL d   1      51.661  34.515  52.721  0.00  0.00     0.015 A 
ATOM     11  C   UNL d   1      50.916  34.816  52.899  0.00  0.00     0.030 A 
ATOM     12  C   UNL d   1      50.327  34.315  53.192  0.00  0.00     0.140 A 
ATOM     13  C   UNL d   1      50.479  33.515  53.309  0.00  0.00     0.030 A 
ATOM     14  F   UNL d   1      49.579  34.618  53.370  0.00  0.00    -0.204 F 
ATOM     15  C   UNL d   1      51.229  33.215  53.130  0.00  0.00     0.015 A 
ENDBRANCH   6   9
ENDBRANCH   1   6
BRANCH   2  16
ATOM     16  S   UNL d   1      53.270  32.201  53.791  0.00  0.00    -0.049 SA
BRANCH  16  17
ATOM     17  C   UNL d   1      53.682  31.727  54.327  0.00  0.00     0.038 C 
BRANCH  17  18
ATOM     18  C   UNL d   1      53.573  30.903  54.316  0.00  0.00     0.007 A 
ATOM     19  C   UNL d   1      53.726  30.467  53.625  0.00  0.00     0.001 A 
ATOM     20  C   UNL d   1      53.620  29.654  53.609  0.00  0.00     0.000 A 
ATOM     21  C   UNL d   1      53.358  29.266  54.288  0.00  0.00     0.000 A 
ATOM     22  C   UNL d   1      53.205  29.698  54.979  0.00  0.00     0.000 A 
ATOM     23  C   UNL d   1      53.249  28.450  54.280  0.00  0.00     0.000 C 
ATOM     24  C   UNL d   1      53.312  30.513  54.990  0.00  0.00     0.001 A 
ENDBRANCH  17  18
ENDBRANCH  16  17
ENDBRANCH   2  16
TORSDOF 5
ENDMDL
