MODEL 1
REMARK VINA RESULT:      -4.0      0.000      0.000
REMARK  4 active torsions:
REMARK  status: ('A' for Active; 'I' for Inactive)
REMARK    1  A    between atoms: C_2  and  S_1 
REMARK    2  A    between atoms: N_4  and  S_1 
REMARK    3  A    between atoms: O_12  and  C_5 
REMARK    4  A    between atoms: O_13  and  C_7 
ROOT
ATOM      1  C   UNL d   1      57.920   0.043  30.920  0.00  0.00     0.128 A 
ATOM      2  C   UNL d   1      57.820  -0.225  30.147  0.00  0.00     0.040 A 
ATOM      3  C   UNL d   1      58.622   0.405  31.146  0.00  0.00     0.107 A 
ATOM      4  C   UNL d   1      59.230   0.500  30.599  0.00  0.00     0.034 A 
ATOM      5  C   UNL d   1      58.428  -0.130  29.600  0.00  0.00     0.101 A 
ATOM      6  C   UNL d   1      59.138   0.234  29.823  0.00  0.00     0.059 A 
ATOM      7 BR   UNL d   1      59.744   0.329  29.278  0.00  0.00    -0.047 Br
ENDROOT
BRANCH   1   8
ATOM      8  S   UNL d   1      57.309  -0.052  31.471  0.00  0.00     0.273 S 
ATOM      9  O   UNL d   1      56.984   0.668  31.235  0.00  0.00    -0.200 OA
ATOM     10  O   UNL d   1      57.635  -0.776  31.707  0.00  0.00    -0.200 OA
BRANCH   8  11
ATOM     11  N   UNL d   1      56.700  -0.147  32.018  0.00  0.00    -0.229 N 
ATOM     12  C   UNL d   1      56.308   0.541  32.244  0.00  0.00     0.092 A 
ATOM     13  C   UNL d   1      55.684   0.632  32.775  0.00  0.00     0.020 A 
ATOM     14  C   UNL d   1      55.291   0.055  33.216  0.00  0.00     0.002 A 
ATOM     15  C   UNL d   1      55.435  -0.759  33.228  0.00  0.00     0.002 A 
ATOM     16  C   UNL d   1      55.996  -1.192  32.811  0.00  0.00     0.020 A 
ATOM     17  C   UNL d   1      56.562  -0.927  32.271  0.00  0.00     0.092 A 
ENDBRANCH   8  11
ENDBRANCH   1   8
BRANCH   3  18
ATOM     18  O   UNL d   1      58.717   0.669  31.915  0.00  0.00    -0.327 OA
ATOM     19  C   UNL d   1      59.463   0.656  32.268  0.00  0.00     0.181 C 
ENDBRANCH   3  18
BRANCH   5  20
ATOM     20  O   UNL d   1      58.333  -0.395  28.831  0.00  0.00    -0.328 OA
ATOM     21  C   UNL d   1      58.636  -1.122  28.607  0.00  0.00     0.181 C 
ENDBRANCH   5  20
TORSDOF 4
ENDMDL
MODEL 2
REMARK VINA RESULT:      -2.5      1.914      3.753
REMARK  4 active torsions:
REMARK  status: ('A' for Active; 'I' for Inactive)
REMARK    1  A    between atoms: C_2  and  S_1 
REMARK    2  A    between atoms: N_4  and  S_1 
REMARK    3  A    between atoms: O_12  and  C_5 
REMARK    4  A    between atoms: O_13  and  C_7 
ROOT
ATOM      1  C   UNL d   1      56.712   0.152  32.522  0.00  0.00     0.128 A 
ATOM      2  C   UNL d   1      55.918  -0.048  32.624  0.00  0.00     0.040 A 
ATOM      3  C   UNL d   1      57.141   0.477  33.143  0.00  0.00     0.107 A 
ATOM      4  C   UNL d   1      56.778   0.604  33.870  0.00  0.00     0.034 A 
ATOM      5  C   UNL d   1      55.555   0.080  33.351  0.00  0.00     0.101 A 
ATOM      6  C   UNL d   1      55.984   0.407  33.981  0.00  0.00     0.059 A 
ATOM      7 BR   UNL d   1      55.622   0.534  34.706  0.00  0.00    -0.047 Br
ENDROOT
BRANCH   1   8
ATOM      8  S   UNL d   1      57.078   0.024  31.790  0.00  0.00     0.273 S 
ATOM      9  O   UNL d   1      56.686   0.679  31.479  0.00  0.00    -0.200 OA
ATOM     10  O   UNL d   1      57.472  -0.634  32.102  0.00  0.00    -0.200 OA
BRANCH   8  11
ATOM     11  N   UNL d   1      57.442  -0.104  31.061  0.00  0.00    -0.229 N 
ATOM     12  C   UNL d   1      57.473   0.546  30.556  0.00  0.00     0.092 A 
ATOM     13  C   UNL d   1      57.795   0.599  29.799  0.00  0.00     0.020 A 
ATOM     14  C   UNL d   1      58.170   0.014  29.353  0.00  0.00     0.002 A 
ATOM     15  C   UNL d   1      58.311  -0.773  29.566  0.00  0.00     0.002 A 
ATOM     16  C   UNL d   1      58.116  -1.163  30.263  0.00  0.00     0.020 A 
ATOM     17  C   UNL d   1      57.730  -0.872  30.933  0.00  0.00     0.092 A 
ENDBRANCH   8  11
ENDBRANCH   1   8
BRANCH   3  18
ATOM     18  O   UNL d   1      57.928   0.674  33.037  0.00  0.00    -0.327 OA
ATOM     19  C   UNL d   1      58.446   0.668  33.680  0.00  0.00     0.181 C 
ENDBRANCH   3  18
BRANCH   5  20
ATOM     20  O   UNL d   1      54.768  -0.117  33.456  0.00  0.00    -0.328 OA
ATOM     21  C   UNL d   1      54.190   0.462  33.408  0.00  0.00     0.181 C 
ENDBRANCH   5  20
TORSDOF 4
ENDMDL
MODEL 3
REMARK VINA RESULT:      -2.3      1.693      3.638
REMARK  4 active torsions:
REMARK  status: ('A' for Active; 'I' for Inactive)
REMARK    1  A    between atoms: C_2  and  S_1 
REMARK    2  A    between atoms: N_4  and  S_1 
REMARK    3  A    between atoms: O_12  and  C_5 
REMARK    4  A    between atoms: O_13  and  C_7 
ROOT
ATOM      1  C   UNL d   1      57.338  -0.102  31.684  0.00  0.00     0.128 A 
ATOM      2  C   UNL d   1      56.610  -0.461  31.831  0.00  0.00     0.040 A 
ATOM      3  C   UNL d   1      57.726   0.307  32.282  0.00  0.00     0.107 A 
ATOM      4  C   UNL d   1      57.388   0.358  33.031  0.00  0.00     0.034 A 
ATOM      5  C   UNL d   1      56.272  -0.409  32.579  0.00  0.00     0.101 A 
ATOM      6  C   UNL d   1      56.659   0.002  33.186  0.00  0.00     0.059 A 
ATOM      7 BR   UNL d   1      56.322   0.053  33.931  0.00  0.00    -0.047 Br
ENDROOT
BRANCH   1   8
ATOM      8  S   UNL d   1      57.679  -0.154  30.931  0.00  0.00     0.273 S 
ATOM      9  O   UNL d   1      57.590   0.660  30.835  0.00  0.00    -0.200 OA
ATOM     10  O   UNL d   1      57.769  -0.971  31.028  0.00  0.00    -0.200 OA
BRANCH   8  11
ATOM     11  N   UNL d   1      58.018  -0.205  30.182  0.00  0.00    -0.229 N 
ATOM     12  C   UNL d   1      58.390  -0.918  30.003  0.00  0.00     0.092 A 
ATOM     13  C   UNL d   1      58.776  -1.142  29.311  0.00  0.00     0.020 A 
ATOM     14  C   UNL d   1      58.890  -0.708  28.617  0.00  0.00     0.002 A 
ATOM     15  C   UNL d   1      58.639   0.063  28.455  0.00  0.00     0.002 A 
ATOM     16  C   UNL d   1      58.220   0.582  28.936  0.00  0.00     0.020 A 
ATOM     17  C   UNL d   1      57.940   0.470  29.704  0.00  0.00     0.092 A 
ENDBRANCH   8  11
ENDBRANCH   1   8
BRANCH   3  18
ATOM     18  O   UNL d   1      58.448   0.662  32.134  0.00  0.00    -0.327 OA
ATOM     19  C   UNL d   1      59.028   0.682  32.720  0.00  0.00     0.181 C 
ENDBRANCH   3  18
BRANCH   5  20
ATOM     20  O   UNL d   1      55.550  -0.764  32.728  0.00  0.00    -0.328 OA
ATOM     21  C   UNL d   1      55.514  -1.563  32.906  0.00  0.00     0.181 C 
ENDBRANCH   5  20
TORSDOF 4
ENDMDL
MODEL 4
REMARK VINA RESULT:      -1.5      1.853      4.030
REMARK  4 active torsions:
REMARK  status: ('A' for Active; 'I' for Inactive)
REMARK    1  A    between atoms: C_2  and  S_1 
REMARK    2  A    between atoms: N_4  and  S_1 
REMARK    3  A    between atoms: O_12  and  C_5 
REMARK    4  A    between atoms: O_13  and  C_7 
ROOT
ATOM      1  C   UNL d   1      58.024  -0.823  30.444  0.00  0.00     0.128 A 
ATOM      2  C   UNL d   1      57.702  -1.097  31.152  0.00  0.00     0.040 A 
ATOM      3  C   UNL d   1      57.884  -0.052  30.196  0.00  0.00     0.107 A 
ATOM      4  C   UNL d   1      57.421   0.449  30.656  0.00  0.00     0.034 A 
ATOM      5  C   UNL d   1      57.240  -0.596  31.612  0.00  0.00     0.101 A 
ATOM      6  C   UNL d   1      57.095   0.182  31.367  0.00  0.00     0.059 A 
ATOM      7 BR   UNL d   1      56.634   0.682  31.825  0.00  0.00    -0.047 Br
ENDROOT
BRANCH   1   8
ATOM      8  S   UNL d   1      58.490  -1.327  29.981  0.00  0.00     0.273 S 
ATOM      9  O   UNL d   1      59.156  -0.878  30.162  0.00  0.00    -0.200 OA
ATOM     10  O   UNL d   1      57.820  -1.779  29.799  0.00  0.00    -0.200 OA
BRANCH   8  11
ATOM     11  N   UNL d   1      58.953  -1.829  29.520  0.00  0.00    -0.229 N 
ATOM     12  C   UNL d   1      58.576  -2.501  29.228  0.00  0.00     0.092 A 
ATOM     13  C   UNL d   1      58.882  -3.103  28.756  0.00  0.00     0.020 A 
ATOM     14  C   UNL d   1      59.646  -3.189  28.455  0.00  0.00     0.002 A 
ATOM     15  C   UNL d   1      60.291  -2.681  28.558  0.00  0.00     0.002 A 
ATOM     16  C   UNL d   1      60.332  -1.977  28.980  0.00  0.00     0.020 A 
ATOM     17  C   UNL d   1      59.742  -1.591  29.410  0.00  0.00     0.092 A 
ENDBRANCH   8  11
ENDBRANCH   1   8
BRANCH   3  18
ATOM     18  O   UNL d   1      58.204   0.216  29.493  0.00  0.00    -0.327 OA
ATOM     19  C   UNL d   1      57.751   0.677  28.981  0.00  0.00     0.181 C 
ENDBRANCH   3  18
BRANCH   5  20
ATOM     20  O   UNL d   1      56.919  -0.865  32.316  0.00  0.00    -0.328 OA
ATOM     21  C   UNL d   1      56.148  -1.139  32.337  0.00  0.00     0.181 C 
ENDBRANCH   5  20
TORSDOF 4
ENDMDL
MODEL 5
REMARK VINA RESULT:      -1.4      1.526      2.002
REMARK  4 active torsions:
REMARK  status: ('A' for Active; 'I' for Inactive)
REMARK    1  A    between atoms: C_2  and  S_1 
REMARK    2  A    between atoms: N_4  and  S_1 
REMARK    3  A    between atoms: O_12  and  C_5 
REMARK    4  A    between atoms: O_13  and  C_7 
ROOT
ATOM      1  C   UNL d   1      58.569  -1.330  29.966  0.00  0.00     0.128 A 
ATOM      2  C   UNL d   1      58.376  -2.033  29.579  0.00  0.00     0.040 A 
ATOM      3  C   UNL d   1      59.305  -0.983  29.851  0.00  0.00     0.107 A 
ATOM      4  C   UNL d   1      59.852  -1.336  29.348  0.00  0.00     0.034 A 
ATOM      5  C   UNL d   1      58.924  -2.386  29.075  0.00  0.00     0.101 A 
ATOM      6  C   UNL d   1      59.667  -2.039  28.957  0.00  0.00     0.059 A 
ATOM      7 BR   UNL d   1      60.212  -2.390  28.455  0.00  0.00    -0.047 Br
ENDROOT
BRANCH   1   8
ATOM      8  S   UNL d   1      58.019  -0.975  30.472  0.00  0.00     0.273 S 
ATOM      9  O   UNL d   1      57.659  -0.612  29.826  0.00  0.00    -0.200 OA
ATOM     10  O   UNL d   1      58.380  -1.340  31.122  0.00  0.00    -0.200 OA
BRANCH   8  11
ATOM     11  N   UNL d   1      57.471  -0.622  30.976  0.00  0.00    -0.229 N 
ATOM     12  C   UNL d   1      57.317   0.176  30.838  0.00  0.00     0.092 A 
ATOM     13  C   UNL d   1      56.804   0.681  31.239  0.00  0.00     0.020 A 
ATOM     14  C   UNL d   1      56.313   0.519  31.883  0.00  0.00     0.002 A 
ATOM     15  C   UNL d   1      56.221  -0.201  32.280  0.00  0.00     0.002 A 
ATOM     16  C   UNL d   1      56.588  -0.922  32.136  0.00  0.00     0.020 A 
ATOM     17  C   UNL d   1      57.145  -1.117  31.558  0.00  0.00     0.092 A 
ENDBRANCH   8  11
ENDBRANCH   1   8
BRANCH   3  18
ATOM     18  O   UNL d   1      59.492  -0.286  30.237  0.00  0.00    -0.327 OA
ATOM     19  C   UNL d   1      60.236   0.057  30.134  0.00  0.00     0.181 C 
ENDBRANCH   3  18
BRANCH   5  20
ATOM     20  O   UNL d   1      58.736  -3.082  28.690  0.00  0.00    -0.328 OA
ATOM     21  C   UNL d   1      58.749  -3.793  29.096  0.00  0.00     0.181 C 
ENDBRANCH   5  20
TORSDOF 4
ENDMDL
