MODEL 1
REMARK VINA RESULT:      -5.8      0.000      0.000
REMARK  8 active torsions:
REMARK  status: ('A' for Active; 'I' for Inactive)
REMARK    1  A    between atoms: C_6  and  N_1 
REMARK    2  A    between atoms: S_10  and  C_2 
REMARK    3  A    between atoms: C_12  and  C_3 
REMARK    4  A    between atoms: C_7  and  C_8 
REMARK    5  A    between atoms: C_21  and  S_10 
REMARK    6  A    between atoms: O_15  and  C_12 
REMARK    7  A    between atoms: C_13  and  C_21 
REMARK    8  A    between atoms: C_16  and  O_15 
ROOT
ATOM      1  N   UNL d   1     -39.809  15.423  18.078  0.00  0.00    -0.268 N 
ATOM      2  C   UNL d   1     -40.584  15.692  17.803  0.00  0.00     0.198 A 
ATOM      3  C   UNL d   1     -39.793  15.485  18.941  0.00  0.00     0.196 A 
ATOM      4  N   UNL d   1     -41.053  15.922  18.503  0.00  0.00    -0.122 NA
ATOM      5  N   UNL d   1     -40.555  15.790  19.200  0.00  0.00    -0.126 NA
ENDROOT
BRANCH   3   6
ATOM      6  C   UNL d   1     -39.125  15.275  19.451  0.00  0.00     0.162 C 
BRANCH   6   7
ATOM      7  O   UNL d   1     -39.271  15.025  20.268  0.00  0.00    -0.300 OA
BRANCH   7   8
ATOM      8  C   UNL d   1     -38.846  15.147  20.964  0.00  0.00     0.118 A 
ATOM      9  C   UNL d   1     -38.910  14.602  21.578  0.00  0.00     0.104 A 
ATOM     10  N   UNL d   1     -39.395  13.938  21.497  0.00  0.00    -0.242 NA
ATOM     11  C   UNL d   1     -38.484  14.721  22.282  0.00  0.00     0.020 A 
ATOM     12  C   UNL d   1     -39.452  13.398  22.120  0.00  0.00     0.099 A 
ATOM     13  C   UNL d   1     -39.030  13.522  22.808  0.00  0.00     0.021 A 
ATOM     14  C   UNL d   1     -38.550  14.178  22.888  0.00  0.00     0.003 A 
ATOM     15  C   UNL d   1     -38.004  15.377  22.362  0.00  0.00     0.002 A 
ATOM     16  C   UNL d   1     -37.940  15.922  21.748  0.00  0.00     0.002 A 
ATOM     17  C   UNL d   1     -38.368  15.804  21.040  0.00  0.00     0.026 A 
ENDBRANCH   7   8
ENDBRANCH   6   7
ENDBRANCH   3   6
BRANCH   1  18
ATOM     18  C   UNL d   1     -39.195  15.156  17.603  0.00  0.00     0.067 A 
ATOM     19  C   UNL d   1     -39.104  14.356  17.466  0.00  0.00     0.021 A 
ATOM     20  C   UNL d   1     -38.496  14.083  16.997  0.00  0.00     0.073 A 
ATOM     21  C   UNL d   1     -37.967  14.622  16.654  0.00  0.00     0.004 A 
ATOM     22  C   UNL d   1     -38.062  15.430  16.795  0.00  0.00     0.001 A 
ATOM     23  C   UNL d   1     -38.669  15.693  17.264  0.00  0.00     0.018 A 
BRANCH  20  24
ATOM     24  C   UNL d   1     -38.404  13.266  16.858  0.00  0.00     0.419 C 
ATOM     25  F   UNL d   1     -38.319  12.516  16.728  0.00  0.00    -0.166 F 
ATOM     26  F   UNL d   1     -38.294  12.607  17.429  0.00  0.00    -0.166 F 
ATOM     27  F   UNL d   1     -38.391  12.829  16.093  0.00  0.00    -0.166 F 
ENDBRANCH  20  24
ENDBRANCH   1  18
BRANCH   2  28
ATOM     28  S   UNL d   1     -40.845  15.725  16.985  0.00  0.00    -0.064 SA
BRANCH  28  29
ATOM     29  C   UNL d   1     -41.665  15.921  16.790  0.00  0.00     0.162 C 
BRANCH  29  30
ATOM     30  C   UNL d   1     -41.967  15.808  15.993  0.00  0.00     0.197 C 
ATOM     31  O   UNL d   1     -42.817  15.881  15.838  0.00  0.00    -0.647 OA
ATOM     32  O   UNL d   1     -41.425  15.622  15.349  0.00  0.00    -0.647 OA
ENDBRANCH  29  30
ENDBRANCH  28  29
ENDBRANCH   2  28
TORSDOF 8
ENDMDL
MODEL 2
REMARK VINA RESULT:      -5.8      8.444      9.583
REMARK  8 active torsions:
REMARK  status: ('A' for Active; 'I' for Inactive)
REMARK    1  A    between atoms: C_6  and  N_1 
REMARK    2  A    between atoms: S_10  and  C_2 
REMARK    3  A    between atoms: C_12  and  C_3 
REMARK    4  A    between atoms: C_7  and  C_8 
REMARK    5  A    between atoms: C_21  and  S_10 
REMARK    6  A    between atoms: O_15  and  C_12 
REMARK    7  A    between atoms: C_13  and  C_21 
REMARK    8  A    between atoms: C_16  and  O_15 
ROOT
ATOM      1  N   UNL d   1     -47.767  13.590  22.956  0.00  0.00    -0.268 N 
ATOM      2  C   UNL d   1     -48.013  14.416  23.023  0.00  0.00     0.198 A 
ATOM      3  C   UNL d   1     -46.911  13.574  22.826  0.00  0.00     0.196 A 
ATOM      4  N   UNL d   1     -47.303  14.916  22.933  0.00  0.00    -0.122 NA
ATOM      5  N   UNL d   1     -46.628  14.386  22.812  0.00  0.00    -0.126 NA
ENDROOT
BRANCH   3   6
ATOM      6  C   UNL d   1     -46.428  12.861  22.727  0.00  0.00     0.162 C 
BRANCH   6   7
ATOM      7  O   UNL d   1     -45.589  12.937  22.521  0.00  0.00    -0.300 OA
BRANCH   7   8
ATOM      8  C   UNL d   1     -44.962  12.404  22.564  0.00  0.00     0.118 A 
ATOM      9  C   UNL d   1     -44.272  12.554  22.141  0.00  0.00     0.104 A 
ATOM     10  N   UNL d   1     -44.208  13.234  21.676  0.00  0.00    -0.242 NA
ATOM     11  C   UNL d   1     -43.638  12.019  22.182  0.00  0.00     0.020 A 
ATOM     12  C   UNL d   1     -43.511  13.375  21.256  0.00  0.00     0.099 A 
ATOM     13  C   UNL d   1     -42.892  12.844  21.301  0.00  0.00     0.021 A 
ATOM     14  C   UNL d   1     -42.955  12.171  21.760  0.00  0.00     0.003 A 
ATOM     15  C   UNL d   1     -43.701  11.346  22.641  0.00  0.00     0.002 A 
ATOM     16  C   UNL d   1     -44.390  11.195  23.065  0.00  0.00     0.002 A 
ATOM     17  C   UNL d   1     -45.029  11.732  23.025  0.00  0.00     0.026 A 
ENDBRANCH   7   8
ENDBRANCH   6   7
ENDBRANCH   3   6
BRANCH   1  18
ATOM     18  C   UNL d   1     -48.258  12.934  23.006  0.00  0.00     0.067 A 
ATOM     19  C   UNL d   1     -48.810  12.793  22.421  0.00  0.00     0.021 A 
ATOM     20  C   UNL d   1     -49.301  12.144  22.464  0.00  0.00     0.073 A 
ATOM     21  C   UNL d   1     -49.241  11.623  23.107  0.00  0.00     0.004 A 
ATOM     22  C   UNL d   1     -48.682  11.770  23.696  0.00  0.00     0.001 A 
ATOM     23  C   UNL d   1     -48.196  12.418  23.646  0.00  0.00     0.018 A 
BRANCH  20  24
ATOM     24  C   UNL d   1     -49.865  12.000  21.866  0.00  0.00     0.419 C 
ATOM     25  F   UNL d   1     -50.381  11.867  21.316  0.00  0.00    -0.166 F 
ATOM     26  F   UNL d   1     -50.741  12.065  21.891  0.00  0.00    -0.166 F 
ATOM     27  F   UNL d   1     -49.740  11.740  21.034  0.00  0.00    -0.166 F 
ENDBRANCH  20  24
ENDBRANCH   1  18
BRANCH   2  28
ATOM     28  S   UNL d   1     -48.815  14.694  23.154  0.00  0.00    -0.064 SA
BRANCH  28  29
ATOM     29  C   UNL d   1     -49.050  15.495  22.924  0.00  0.00     0.162 C 
BRANCH  29  30
ATOM     30  C   UNL d   1     -49.875  15.734  22.943  0.00  0.00     0.197 C 
ATOM     31  O   UNL d   1     -50.317  15.824  22.202  0.00  0.00    -0.647 OA
ATOM     32  O   UNL d   1     -50.264  15.884  23.698  0.00  0.00    -0.647 OA
ENDBRANCH  29  30
ENDBRANCH  28  29
ENDBRANCH   2  28
TORSDOF 8
ENDMDL
MODEL 3
REMARK VINA RESULT:      -5.1      8.530     10.033
REMARK  8 active torsions:
REMARK  status: ('A' for Active; 'I' for Inactive)
REMARK    1  A    between atoms: C_6  and  N_1 
REMARK    2  A    between atoms: S_10  and  C_2 
REMARK    3  A    between atoms: C_12  and  C_3 
REMARK    4  A    between atoms: C_7  and  C_8 
REMARK    5  A    between atoms: C_21  and  S_10 
REMARK    6  A    between atoms: O_15  and  C_12 
REMARK    7  A    between atoms: C_13  and  C_21 
REMARK    8  A    between atoms: C_16  and  O_15 
ROOT
ATOM      1  N   UNL d   1     -46.638  12.175  23.060  0.00  0.00    -0.268 N 
ATOM      2  C   UNL d   1     -46.322  11.419  23.336  0.00  0.00     0.198 A 
ATOM      3  C   UNL d   1     -47.502  12.136  23.097  0.00  0.00     0.196 A 
ATOM      4  N   UNL d   1     -46.997  10.906  23.545  0.00  0.00    -0.122 NA
ATOM      5  N   UNL d   1     -47.721  11.359  23.394  0.00  0.00    -0.126 NA
ENDROOT
BRANCH   3   6
ATOM      6  C   UNL d   1     -48.048  12.771  22.872  0.00  0.00     0.162 C 
BRANCH   6   7
ATOM      7  O   UNL d   1     -48.895  12.687  23.038  0.00  0.00    -0.300 OA
BRANCH   7   8
ATOM      8  C   UNL d   1     -49.563  12.920  22.615  0.00  0.00     0.118 A 
ATOM      9  C   UNL d   1     -49.965  13.603  22.838  0.00  0.00     0.104 A 
ATOM     10  N   UNL d   1     -49.701  14.051  23.480  0.00  0.00    -0.242 NA
ATOM     11  C   UNL d   1     -50.639  13.842  22.415  0.00  0.00     0.020 A 
ATOM     12  C   UNL d   1     -50.113  14.735  23.694  0.00  0.00     0.099 A 
ATOM     13  C   UNL d   1     -50.774  14.963  23.273  0.00  0.00     0.021 A 
ATOM     14  C   UNL d   1     -51.035  14.519  22.639  0.00  0.00     0.003 A 
ATOM     15  C   UNL d   1     -50.900  13.398  21.780  0.00  0.00     0.002 A 
ATOM     16  C   UNL d   1     -50.498  12.715  21.557  0.00  0.00     0.002 A 
ATOM     17  C   UNL d   1     -49.820  12.474  21.981  0.00  0.00     0.026 A 
ENDBRANCH   7   8
ENDBRANCH   6   7
ENDBRANCH   3   6
BRANCH   1  18
ATOM     18  C   UNL d   1     -46.196  12.820  22.807  0.00  0.00     0.067 A 
ATOM     19  C   UNL d   1     -45.533  12.703  22.344  0.00  0.00     0.021 A 
ATOM     20  C   UNL d   1     -45.090  13.337  22.090  0.00  0.00     0.073 A 
ATOM     21  C   UNL d   1     -45.313  14.107  22.301  0.00  0.00     0.004 A 
ATOM     22  C   UNL d   1     -45.984  14.221  22.769  0.00  0.00     0.001 A 
ATOM     23  C   UNL d   1     -46.420  13.585  23.019  0.00  0.00     0.018 A 
BRANCH  20  24
ATOM     24  C   UNL d   1     -44.413  13.217  21.617  0.00  0.00     0.419 C 
ATOM     25  F   UNL d   1     -43.790  13.107  21.185  0.00  0.00    -0.166 F 
ATOM     26  F   UNL d   1     -44.350  12.967  20.777  0.00  0.00    -0.166 F 
ATOM     27  F   UNL d   1     -43.563  13.307  21.829  0.00  0.00    -0.166 F 
ENDBRANCH  20  24
ENDBRANCH   1  18
BRANCH   2  28
ATOM     28  S   UNL d   1     -45.490  11.211  23.393  0.00  0.00    -0.064 SA
BRANCH  28  29
ATOM     29  C   UNL d   1     -45.248  10.433  23.685  0.00  0.00     0.162 C 
BRANCH  29  30
ATOM     30  C   UNL d   1     -44.446  10.149  23.563  0.00  0.00     0.197 C 
ATOM     31  O   UNL d   1     -43.777  10.696  23.637  0.00  0.00    -0.647 OA
ATOM     32  O   UNL d   1     -44.306   9.320  23.369  0.00  0.00    -0.647 OA
ENDBRANCH  29  30
ENDBRANCH  28  29
ENDBRANCH   2  28
TORSDOF 8
ENDMDL
MODEL 4
REMARK VINA RESULT:      -3.3      2.373      3.121
REMARK  8 active torsions:
REMARK  status: ('A' for Active; 'I' for Inactive)
REMARK    1  A    between atoms: C_6  and  N_1 
REMARK    2  A    between atoms: S_10  and  C_2 
REMARK    3  A    between atoms: C_12  and  C_3 
REMARK    4  A    between atoms: C_7  and  C_8 
REMARK    5  A    between atoms: C_21  and  S_10 
REMARK    6  A    between atoms: O_15  and  C_12 
REMARK    7  A    between atoms: C_13  and  C_21 
REMARK    8  A    between atoms: C_16  and  O_15 
ROOT
ATOM      1  N   UNL d   1     -38.736  13.865  16.932  0.00  0.00    -0.268 N 
ATOM      2  C   UNL d   1     -38.227  13.368  16.440  0.00  0.00     0.198 A 
ATOM      3  C   UNL d   1     -38.771  13.516  17.723  0.00  0.00     0.196 A 
ATOM      4  N   UNL d   1     -37.945  12.704  16.932  0.00  0.00    -0.122 NA
ATOM      5  N   UNL d   1     -38.286  12.805  17.722  0.00  0.00    -0.126 NA
ENDROOT
BRANCH   3   6
ATOM      6  C   UNL d   1     -39.217  13.831  18.396  0.00  0.00     0.162 C 
BRANCH   6   7
ATOM      7  O   UNL d   1     -38.927  13.700  19.202  0.00  0.00    -0.300 OA
BRANCH   7   8
ATOM      8  C   UNL d   1     -39.205  13.954  19.935  0.00  0.00     0.118 A 
ATOM      9  C   UNL d   1     -38.874  13.647  20.624  0.00  0.00     0.104 A 
ATOM     10  N   UNL d   1     -38.268  13.087  20.580  0.00  0.00    -0.242 NA
ATOM     11  C   UNL d   1     -39.152  13.902  21.364  0.00  0.00     0.020 A 
ATOM     12  C   UNL d   1     -37.944  12.786  21.278  0.00  0.00     0.099 A 
ATOM     13  C   UNL d   1     -38.223  13.041  22.002  0.00  0.00     0.021 A 
ATOM     14  C   UNL d   1     -38.822  13.595  22.045  0.00  0.00     0.003 A 
ATOM     15  C   UNL d   1     -39.752  14.455  21.407  0.00  0.00     0.002 A 
ATOM     16  C   UNL d   1     -40.082  14.763  20.718  0.00  0.00     0.002 A 
ATOM     17  C   UNL d   1     -39.805  14.508  19.973  0.00  0.00     0.026 A 
ENDBRANCH   7   8
ENDBRANCH   6   7
ENDBRANCH   3   6
BRANCH   1  18
ATOM     18  C   UNL d   1     -39.119  14.550  16.691  0.00  0.00     0.067 A 
ATOM     19  C   UNL d   1     -39.934  14.561  16.630  0.00  0.00     0.021 A 
ATOM     20  C   UNL d   1     -40.322  15.237  16.392  0.00  0.00     0.073 A 
ATOM     21  C   UNL d   1     -39.887  15.919  16.210  0.00  0.00     0.004 A 
ATOM     22  C   UNL d   1     -39.063  15.904  16.273  0.00  0.00     0.001 A 
ATOM     23  C   UNL d   1     -38.685  15.228  16.511  0.00  0.00     0.018 A 
BRANCH  20  24
ATOM     24  C   UNL d   1     -41.154  15.248  16.330  0.00  0.00     0.419 C 
ATOM     25  F   UNL d   1     -41.917  15.256  16.275  0.00  0.00    -0.166 F 
ATOM     26  F   UNL d   1     -41.666  15.548  15.682  0.00  0.00    -0.166 F 
ATOM     27  F   UNL d   1     -41.758  14.958  16.901  0.00  0.00    -0.166 F 
ENDBRANCH  20  24
ENDBRANCH   1  18
BRANCH   2  28
ATOM     28  S   UNL d   1     -38.035  13.504  15.614  0.00  0.00    -0.064 SA
BRANCH  28  29
ATOM     29  C   UNL d   1     -38.025  12.849  15.048  0.00  0.00     0.162 C 
BRANCH  29  30
ATOM     30  C   UNL d   1     -38.021  13.000  14.202  0.00  0.00     0.197 C 
ATOM     31  O   UNL d   1     -38.096  13.812  13.906  0.00  0.00    -0.647 OA
ATOM     32  O   UNL d   1     -37.944  12.344  13.647  0.00  0.00    -0.647 OA
ENDBRANCH  29  30
ENDBRANCH  28  29
ENDBRANCH   2  28
TORSDOF 8
ENDMDL
