MODEL 1
REMARK VINA RESULT:      -4.5      0.000      0.000
REMARK  6 active torsions:
REMARK  status: ('A' for Active; 'I' for Inactive)
REMARK    1  A    between atoms: C_6  and  C_1 
REMARK    2  A    between atoms: C_8  and  C_4 
REMARK       I    between atoms: N_22  and  C_6 
REMARK    3  A    between atoms: N_9  and  C_23 
REMARK    4  A    between atoms: C_25  and  N_22 
REMARK    5  A    between atoms: C_23  and  C_24 
REMARK    6  A    between atoms: C_24  and  C_25 
ROOT
ATOM      1  C   UNL d   1      57.647   0.037  30.749  0.00  0.00     0.168 A 
ATOM      2  N   UNL d   1      57.863   0.682  31.197  0.00  0.00    -0.121 NA
ATOM      3  C   UNL d   1      57.056  -0.374  31.165  0.00  0.00     0.053 A 
ATOM      4  C   UNL d   1      56.921   0.029  31.864  0.00  0.00     0.127 A 
ATOM      5  O   UNL d   1      57.422   0.681  31.880  0.00  0.00    -0.211 OA
ENDROOT
BRANCH   1   6
ATOM      6  C   UNL d   1      58.215  -0.425  29.307  0.00  0.00     0.299 C 
ATOM      7  O   UNL d   1      58.082  -0.001  28.618  0.00  0.00    -0.263 OA
ATOM      8  N   UNL d   1      58.676  -1.147  29.259  0.00  0.00    -0.205 NA
BRANCH   8   9
ATOM      9  C   UNL d   1      58.991  -1.412  28.494  0.00  0.00     0.104 C 
BRANCH   9  10
ATOM     10  C   UNL d   1      59.624  -1.990  28.475  0.00  0.00     0.040 C 
BRANCH  10  11
ATOM     11  C   UNL d   1      59.466  -2.816  28.642  0.00  0.00     0.083 C 
BRANCH  11  12
ATOM     12  N   UNL d   1      60.096  -3.337  28.903  0.00  0.00    -0.285 N 
ATOM     13  C   UNL d   1      60.572  -3.243  29.608  0.00  0.00     0.183 A 
ATOM     14  N   UNL d   1      61.133  -3.909  29.630  0.00  0.00    -0.222 NA
ATOM     15  C   UNL d   1      61.002  -4.392  28.961  0.00  0.00     0.120 A 
ATOM     16  C   UNL d   1      60.358  -4.050  28.496  0.00  0.00     0.102 A 
ENDBRANCH  11  12
ENDBRANCH  10  11
ENDBRANCH   9  10
ENDBRANCH   8   9
ENDBRANCH   1   6
BRANCH   4  17
ATOM     17  C   UNL d   1      56.400  -0.151  32.452  0.00  0.00     0.027 A 
ATOM     18  C   UNL d   1      55.892   0.422  32.743  0.00  0.00     0.028 A 
ATOM     19  C   UNL d   1      55.372   0.235  33.332  0.00  0.00     0.119 A 
ATOM     20  O   UNL d   1      54.813   0.682  33.722  0.00  0.00    -0.300 OA
ATOM     21  C   UNL d   1      55.340  -0.514  33.648  0.00  0.00     0.119 A 
ATOM     22  C   UNL d   1      54.442   0.212  34.270  0.00  0.00     0.304 A 
ATOM     23  O   UNL d   1      54.767  -0.531  34.226  0.00  0.00    -0.300 OA
ATOM     24  C   UNL d   1      55.848  -1.097  33.361  0.00  0.00     0.026 A 
ATOM     25  C   UNL d   1      56.366  -0.914  32.775  0.00  0.00     0.004 A 
ENDBRANCH   4  17
TORSDOF 6
ENDMDL
MODEL 2
REMARK VINA RESULT:      -2.0      2.010      6.517
REMARK  6 active torsions:
REMARK  status: ('A' for Active; 'I' for Inactive)
REMARK    1  A    between atoms: C_6  and  C_1 
REMARK    2  A    between atoms: C_8  and  C_4 
REMARK       I    between atoms: N_22  and  C_6 
REMARK    3  A    between atoms: N_9  and  C_23 
REMARK    4  A    between atoms: C_25  and  N_22 
REMARK    5  A    between atoms: C_23  and  C_24 
REMARK    6  A    between atoms: C_24  and  C_25 
ROOT
ATOM      1  C   UNL d   1      58.493  -0.928  29.643  0.00  0.00     0.168 A 
ATOM      2  N   UNL d   1      58.203  -1.029  28.889  0.00  0.00    -0.121 NA
ATOM      3  C   UNL d   1      59.103  -1.481  29.756  0.00  0.00     0.053 A 
ATOM      4  C   UNL d   1      59.175  -1.914  29.065  0.00  0.00     0.127 A 
ATOM      5  O   UNL d   1      58.616  -1.631  28.532  0.00  0.00    -0.211 OA
ENDROOT
BRANCH   1   6
ATOM      6  C   UNL d   1      58.024   0.133  30.771  0.00  0.00     0.299 C 
ATOM      7  O   UNL d   1      58.532   0.682  31.105  0.00  0.00    -0.263 OA
ATOM      8  N   UNL d   1      57.207   0.120  31.031  0.00  0.00    -0.205 NA
BRANCH   8   9
ATOM      9  C   UNL d   1      56.935   0.681  31.636  0.00  0.00     0.104 C 
BRANCH   9  10
ATOM     10  C   UNL d   1      56.229   0.503  32.090  0.00  0.00     0.040 C 
BRANCH  10  11
ATOM     11  C   UNL d   1      56.287   0.106  32.848  0.00  0.00     0.083 C 
BRANCH  11  12
ATOM     12  N   UNL d   1      55.691   0.231  33.452  0.00  0.00    -0.285 N 
ATOM     13  C   UNL d   1      54.867   0.001  33.407  0.00  0.00     0.183 A 
ATOM     14  N   UNL d   1      54.490   0.247  34.153  0.00  0.00    -0.222 NA
ATOM     15  C   UNL d   1      55.066   0.613  34.636  0.00  0.00     0.120 A 
ATOM     16  C   UNL d   1      55.821   0.612  34.214  0.00  0.00     0.102 A 
ENDBRANCH  11  12
ENDBRANCH  10  11
ENDBRANCH   9  10
ENDBRANCH   8   9
ENDBRANCH   1   6
BRANCH   4  17
ATOM     17  C   UNL d   1      59.687  -2.514  28.902  0.00  0.00     0.027 A 
ATOM     18  C   UNL d   1      59.455  -3.294  29.002  0.00  0.00     0.028 A 
ATOM     19  C   UNL d   1      59.974  -3.890  28.837  0.00  0.00     0.119 A 
ATOM     20  O   UNL d   1      59.897  -4.701  28.884  0.00  0.00    -0.300 OA
ATOM     21  C   UNL d   1      60.727  -3.738  28.571  0.00  0.00     0.119 A 
ATOM     22  C   UNL d   1      60.596  -5.040  28.649  0.00  0.00     0.304 A 
ATOM     23  O   UNL d   1      61.113  -4.444  28.455  0.00  0.00    -0.300 OA
ATOM     24  C   UNL d   1      60.969  -2.956  28.468  0.00  0.00     0.026 A 
ATOM     25  C   UNL d   1      60.456  -2.360  28.631  0.00  0.00     0.004 A 
ENDBRANCH   4  17
TORSDOF 6
ENDMDL
