MODEL 1
REMARK VINA RESULT:      65.3      0.000      0.000
REMARK  4 active torsions:
REMARK  status: ('A' for Active; 'I' for Inactive)
REMARK    1  A    between atoms: N_7  and  C_6 
REMARK       I    between atoms: C_8  and  N_7 
REMARK    2  A    between atoms: C_14  and  C_8 
REMARK    3  A    between atoms: C_16  and  C_14 
REMARK    4  A    between atoms: C_17  and  C_16 
ROOT
ATOM      1  C   UNL d   1     -55.136-101.035 -44.275  0.00  0.00     0.269 A 
ATOM      2  N   UNL d   1     -55.279-100.632 -44.993  0.00  0.00    -0.239 N 
ATOM      3  C   UNL d   1     -55.014-100.456 -43.698  0.00  0.00     0.079 A 
ATOM      4  C   UNL d   1     -55.244 -99.836 -44.849  0.00  0.00     0.267 A 
ATOM      5  C   UNL d   1     -55.081 -99.714 -44.053  0.00  0.00     0.063 A 
ATOM      6  C   UNL d   1     -54.851-100.516 -42.895  0.00  0.00     0.089 A 
ATOM      7  O   UNL d   1     -55.118-101.849 -44.160  0.00  0.00    -0.267 OA
ATOM      8  O   UNL d   1     -55.356 -99.233 -45.423  0.00  0.00    -0.267 OA
ATOM      9  C   UNL d   1     -55.430-100.988 -45.721  0.00  0.00     0.105 C 
ATOM     10  C   UNL d   1     -54.985 -99.033 -43.605  0.00  0.00     0.005 A 
ATOM     11  C   UNL d   1     -54.754 -99.832 -42.443  0.00  0.00     0.019 A 
ATOM     12  C   UNL d   1     -54.821 -99.090 -42.799  0.00  0.00     0.002 A 
ENDROOT
BRANCH   6  13
ATOM     13  N   UNL d   1     -54.784-101.258 -42.540  0.00  0.00    -0.208 NA
ATOM     14  C   UNL d   1     -55.026-101.360 -41.760  0.00  0.00     0.279 C 
ATOM     15  O   UNL d   1     -55.334-100.728 -41.330  0.00  0.00    -0.265 OA
BRANCH  14  16
ATOM     16  C   UNL d   1     -54.959-102.102 -41.404  0.00  0.00     0.062 C 
BRANCH  16  17
ATOM     17  C   UNL d   1     -54.754-102.160 -40.607  0.00  0.00     0.005 C 
BRANCH  17  18
ATOM     18  C   UNL d   1     -55.340-102.284 -40.039  0.00  0.00     0.000 A 
ATOM     19  C   UNL d   1     -56.132-102.387 -40.279  0.00  0.00     0.000 A 
ATOM     20  C   UNL d   1     -56.718-102.511 -39.711  0.00  0.00     0.000 A 
ATOM     21  C   UNL d   1     -56.512-102.532 -38.904  0.00  0.00     0.000 A 
ATOM     22  C   UNL d   1     -55.736-102.430 -38.680  0.00  0.00     0.000 A 
ATOM     23  C   UNL d   1     -55.150-102.306 -39.248  0.00  0.00     0.000 A 
ENDBRANCH  17  18
ENDBRANCH  16  17
ENDBRANCH  14  16
ENDBRANCH   6  13
TORSDOF 4
ENDMDL
