MODEL 1
REMARK VINA RESULT:      -2.4      0.000      0.000
REMARK  3 active torsions:
REMARK  status: ('A' for Active; 'I' for Inactive)
REMARK    1  A    between atoms: C_9  and  N_1 
REMARK    2  A    between atoms: C_7  and  C_9 
REMARK    3  A    between atoms: C_8  and  C_7 
ROOT
ATOM      1  N   UNL d   1      29.971  16.390 -23.708  0.00  0.00    -0.190 N 
ATOM      2  N   UNL d   1      29.755  16.953 -24.272  0.00  0.00    -0.120 NA
ATOM      3  C   UNL d   1      29.394  16.016 -23.255  0.00  0.00     0.281 A 
ATOM      4  C   UNL d   1      28.960  17.142 -24.383  0.00  0.00     0.296 A 
ATOM      5  C   UNL d   1      28.604  16.205 -23.367  0.00  0.00     0.068 A 
ATOM      6  C   UNL d   1      28.387  16.767 -23.930  0.00  0.00     0.069 A 
ATOM      7  O   UNL d   1      29.611  15.452 -22.691  0.00  0.00    -0.265 OA
ATOM      8  O   UNL d   1      28.743  17.705 -24.946  0.00  0.00    -0.264 OA
ENDROOT
BRANCH   1   9
ATOM      9  C   UNL d   1      30.770  16.202 -23.599  0.00  0.00     0.110 C 
BRANCH   9  10
ATOM     10  C   UNL d   1      31.352  16.685 -23.935  0.00  0.00     0.091 C 
BRANCH  10  11
ATOM     11  C   UNL d   1      32.147  16.524 -23.786  0.00  0.00     0.213 C 
ATOM     12  O   UNL d   1      32.541  15.929 -24.201  0.00  0.00    -0.644 OA
ATOM     13  O   UNL d   1      32.552  16.963 -23.215  0.00  0.00    -0.644 OA
ENDBRANCH  10  11
ENDBRANCH   9  10
ENDBRANCH   1   9
TORSDOF 3
ENDMDL
MODEL 2
REMARK VINA RESULT:      -2.3      6.581      7.292
REMARK  3 active torsions:
REMARK  status: ('A' for Active; 'I' for Inactive)
REMARK    1  A    between atoms: C_9  and  N_1 
REMARK    2  A    between atoms: C_7  and  C_9 
REMARK    3  A    between atoms: C_8  and  C_7 
ROOT
ATOM      1  N   UNL d   1      32.504  22.369 -20.610  0.00  0.00    -0.190 N 
ATOM      2  N   UNL d   1      32.877  22.317 -19.877  0.00  0.00    -0.120 NA
ATOM      3  C   UNL d   1      32.118  23.063 -20.829  0.00  0.00     0.281 A 
ATOM      4  C   UNL d   1      32.867  22.960 -19.360  0.00  0.00     0.296 A 
ATOM      5  C   UNL d   1      32.109  23.702 -20.315  0.00  0.00     0.068 A 
ATOM      6  C   UNL d   1      32.483  23.651 -19.581  0.00  0.00     0.069 A 
ATOM      7  O   UNL d   1      31.744  23.115 -21.564  0.00  0.00    -0.265 OA
ATOM      8  O   UNL d   1      33.241  22.908 -18.627  0.00  0.00    -0.264 OA
ENDROOT
BRANCH   1   9
ATOM      9  C   UNL d   1      32.515  21.722 -21.127  0.00  0.00     0.110 C 
BRANCH   9  10
ATOM     10  C   UNL d   1      33.179  21.227 -21.144  0.00  0.00     0.091 C 
BRANCH  10  11
ATOM     11  C   UNL d   1      33.165  20.549 -21.615  0.00  0.00     0.213 C 
ATOM     12  O   UNL d   1      33.101  19.801 -21.272  0.00  0.00    -0.644 OA
ATOM     13  O   UNL d   1      33.217  20.621 -22.436  0.00  0.00    -0.644 OA
ENDBRANCH  10  11
ENDBRANCH   9  10
ENDBRANCH   1   9
TORSDOF 3
ENDMDL
MODEL 3
REMARK VINA RESULT:      -2.3      1.274      2.866
REMARK  3 active torsions:
REMARK  status: ('A' for Active; 'I' for Inactive)
REMARK    1  A    between atoms: C_9  and  N_1 
REMARK    2  A    between atoms: C_7  and  C_9 
REMARK    3  A    between atoms: C_8  and  C_7 
ROOT
ATOM      1  N   UNL d   1      30.603  16.467 -23.846  0.00  0.00    -0.190 N 
ATOM      2  N   UNL d   1      30.669  17.144 -24.313  0.00  0.00    -0.120 NA
ATOM      3  C   UNL d   1      31.275  16.136 -23.502  0.00  0.00     0.281 A 
ATOM      4  C   UNL d   1      31.406  17.491 -24.437  0.00  0.00     0.296 A 
ATOM      5  C   UNL d   1      32.008  16.483 -23.626  0.00  0.00     0.068 A 
ATOM      6  C   UNL d   1      32.074  17.159 -24.094  0.00  0.00     0.069 A 
ATOM      7  O   UNL d   1      31.209  15.459 -23.034  0.00  0.00    -0.265 OA
ATOM      8  O   UNL d   1      31.472  18.168 -24.905  0.00  0.00    -0.264 OA
ENDROOT
BRANCH   1   9
ATOM      9  C   UNL d   1      29.862  16.121 -23.722  0.00  0.00     0.110 C 
BRANCH   9  10
ATOM     10  C   UNL d   1      29.184  16.491 -24.020  0.00  0.00     0.091 C 
BRANCH  10  11
ATOM     11  C   UNL d   1      28.441  16.192 -23.826  0.00  0.00     0.213 C 
ATOM     12  O   UNL d   1      28.166  15.492 -24.168  0.00  0.00    -0.644 OA
ATOM     13  O   UNL d   1      27.967  16.596 -23.283  0.00  0.00    -0.644 OA
ENDBRANCH  10  11
ENDBRANCH   9  10
ENDBRANCH   1   9
TORSDOF 3
ENDMDL
MODEL 4
REMARK VINA RESULT:      -2.3      0.792      1.007
REMARK  3 active torsions:
REMARK  status: ('A' for Active; 'I' for Inactive)
REMARK    1  A    between atoms: C_9  and  N_1 
REMARK    2  A    between atoms: C_7  and  C_9 
REMARK    3  A    between atoms: C_8  and  C_7 
ROOT
ATOM      1  N   UNL d   1      30.473  16.760 -24.013  0.00  0.00    -0.190 N 
ATOM      2  N   UNL d   1      30.105  17.372 -24.425  0.00  0.00    -0.120 NA
ATOM      3  C   UNL d   1      30.033  16.112 -23.756  0.00  0.00     0.281 A 
ATOM      4  C   UNL d   1      29.296  17.339 -24.582  0.00  0.00     0.296 A 
ATOM      5  C   UNL d   1      29.228  16.080 -23.912  0.00  0.00     0.068 A 
ATOM      6  C   UNL d   1      28.860  16.693 -24.325  0.00  0.00     0.069 A 
ATOM      7  O   UNL d   1      30.401  15.499 -23.343  0.00  0.00    -0.265 OA
ATOM      8  O   UNL d   1      28.929  17.951 -24.994  0.00  0.00    -0.264 OA
ENDROOT
BRANCH   1   9
ATOM      9  C   UNL d   1      31.285  16.796 -23.857  0.00  0.00     0.110 C 
BRANCH   9  10
ATOM     10  C   UNL d   1      31.696  17.501 -23.995  0.00  0.00     0.091 C 
BRANCH  10  11
ATOM     11  C   UNL d   1      32.494  17.551 -23.793  0.00  0.00     0.213 C 
ATOM     12  O   UNL d   1      32.722  17.835 -23.052  0.00  0.00    -0.644 OA
ATOM     13  O   UNL d   1      33.069  17.315 -24.337  0.00  0.00    -0.644 OA
ENDBRANCH  10  11
ENDBRANCH   9  10
ENDBRANCH   1   9
TORSDOF 3
ENDMDL
MODEL 5
REMARK VINA RESULT:      -2.3      0.575      1.520
REMARK  3 active torsions:
REMARK  status: ('A' for Active; 'I' for Inactive)
REMARK    1  A    between atoms: C_9  and  N_1 
REMARK    2  A    between atoms: C_7  and  C_9 
REMARK    3  A    between atoms: C_8  and  C_7 
ROOT
ATOM      1  N   UNL d   1      30.203  16.741 -24.067  0.00  0.00    -0.190 N 
ATOM      2  N   UNL d   1      29.929  16.160 -23.549  0.00  0.00    -0.120 NA
ATOM      3  C   UNL d   1      29.668  17.195 -24.498  0.00  0.00     0.281 A 
ATOM      4  C   UNL d   1      29.119  16.033 -23.460  0.00  0.00     0.296 A 
ATOM      5  C   UNL d   1      28.863  17.068 -24.409  0.00  0.00     0.068 A 
ATOM      6  C   UNL d   1      28.589  16.488 -23.891  0.00  0.00     0.069 A 
ATOM      7  O   UNL d   1      29.943  17.776 -25.017  0.00  0.00    -0.265 OA
ATOM      8  O   UNL d   1      28.845  15.453 -22.942  0.00  0.00    -0.264 OA
ENDROOT
BRANCH   1   9
ATOM      9  C   UNL d   1      31.017  16.866 -24.154  0.00  0.00     0.110 C 
BRANCH   9  10
ATOM     10  C   UNL d   1      31.541  16.533 -23.606  0.00  0.00     0.091 C 
BRANCH  10  11
ATOM     11  C   UNL d   1      32.348  16.694 -23.668  0.00  0.00     0.213 C 
ATOM     12  O   UNL d   1      32.818  16.283 -24.208  0.00  0.00    -0.644 OA
ATOM     13  O   UNL d   1      32.687  17.273 -23.186  0.00  0.00    -0.644 OA
ENDBRANCH  10  11
ENDBRANCH   9  10
ENDBRANCH   1   9
TORSDOF 3
ENDMDL
MODEL 6
REMARK VINA RESULT:      -2.0      2.202      3.314
REMARK  3 active torsions:
REMARK  status: ('A' for Active; 'I' for Inactive)
REMARK    1  A    between atoms: C_9  and  N_1 
REMARK    2  A    between atoms: C_7  and  C_9 
REMARK    3  A    between atoms: C_8  and  C_7 
ROOT
ATOM      1  N   UNL d   1      32.229  17.362 -23.605  0.00  0.00    -0.190 N 
ATOM      2  N   UNL d   1      32.742  16.811 -23.269  0.00  0.00    -0.120 NA
ATOM      3  C   UNL d   1      31.552  17.109 -24.002  0.00  0.00     0.281 A 
ATOM      4  C   UNL d   1      32.580  16.004 -23.329  0.00  0.00     0.296 A 
ATOM      5  C   UNL d   1      31.392  16.307 -24.061  0.00  0.00     0.068 A 
ATOM      6  C   UNL d   1      31.905  15.755 -23.725  0.00  0.00     0.069 A 
ATOM      7  O   UNL d   1      31.038  17.662 -24.338  0.00  0.00    -0.265 OA
ATOM      8  O   UNL d   1      33.093  15.453 -22.993  0.00  0.00    -0.264 OA
ENDROOT
BRANCH   1   9
ATOM      9  C   UNL d   1      32.394  18.171 -23.544  0.00  0.00     0.110 C 
BRANCH   9  10
ATOM     10  C   UNL d   1      32.866  18.444 -22.921  0.00  0.00     0.091 C 
BRANCH  10  11
ATOM     11  C   UNL d   1      32.992  19.255 -22.834  0.00  0.00     0.213 C 
ATOM     12  O   UNL d   1      33.241  19.713 -23.474  0.00  0.00    -0.644 OA
ATOM     13  O   UNL d   1      32.867  19.611 -22.099  0.00  0.00    -0.644 OA
ENDBRANCH  10  11
ENDBRANCH   9  10
ENDBRANCH   1   9
TORSDOF 3
ENDMDL
MODEL 7
REMARK VINA RESULT:      -2.0      4.698      5.850
REMARK  3 active torsions:
REMARK  status: ('A' for Active; 'I' for Inactive)
REMARK    1  A    between atoms: C_9  and  N_1 
REMARK    2  A    between atoms: C_7  and  C_9 
REMARK    3  A    between atoms: C_8  and  C_7 
ROOT
ATOM      1  N   UNL d   1      33.132  20.486 -22.247  0.00  0.00    -0.190 N 
ATOM      2  N   UNL d   1      33.132  19.726 -21.928  0.00  0.00    -0.120 NA
ATOM      3  C   UNL d   1      33.186  20.591 -23.063  0.00  0.00     0.281 A 
ATOM      4  C   UNL d   1      33.187  19.068 -22.422  0.00  0.00     0.296 A 
ATOM      5  C   UNL d   1      33.240  19.936 -23.555  0.00  0.00     0.068 A 
ATOM      6  C   UNL d   1      33.241  19.176 -23.235  0.00  0.00     0.069 A 
ATOM      7  O   UNL d   1      33.185  21.353 -23.383  0.00  0.00    -0.265 OA
ATOM      8  O   UNL d   1      33.188  18.308 -22.103  0.00  0.00    -0.264 OA
ENDROOT
BRANCH   1   9
ATOM      9  C   UNL d   1      33.077  21.144 -21.749  0.00  0.00     0.110 C 
BRANCH   9  10
ATOM     10  C   UNL d   1      32.675  21.076 -21.028  0.00  0.00     0.091 C 
BRANCH  10  11
ATOM     11  C   UNL d   1      32.503  21.757 -20.595  0.00  0.00     0.213 C 
ATOM     12  O   UNL d   1      33.057  22.074 -20.071  0.00  0.00    -0.644 OA
ATOM     13  O   UNL d   1      31.769  22.125 -20.687  0.00  0.00    -0.644 OA
ENDBRANCH  10  11
ENDBRANCH   9  10
ENDBRANCH   1   9
TORSDOF 3
ENDMDL
MODEL 8
REMARK VINA RESULT:      -1.6      5.971      6.738
REMARK  3 active torsions:
REMARK  status: ('A' for Active; 'I' for Inactive)
REMARK    1  A    between atoms: C_9  and  N_1 
REMARK    2  A    between atoms: C_7  and  C_9 
REMARK    3  A    between atoms: C_8  and  C_7 
ROOT
ATOM      1  N   UNL d   1      32.828  22.182 -21.741  0.00  0.00    -0.190 N 
ATOM      2  N   UNL d   1      32.588  22.349 -20.970  0.00  0.00    -0.120 NA
ATOM      3  C   UNL d   1      32.822  22.775 -22.313  0.00  0.00     0.281 A 
ATOM      4  C   UNL d   1      32.341  23.109 -20.768  0.00  0.00     0.296 A 
ATOM      5  C   UNL d   1      32.576  23.531 -22.111  0.00  0.00     0.068 A 
ATOM      6  C   UNL d   1      32.336  23.698 -21.340  0.00  0.00     0.069 A 
ATOM      7  O   UNL d   1      33.062  22.608 -23.085  0.00  0.00    -0.265 OA
ATOM      8  O   UNL d   1      32.102  23.276 -19.996  0.00  0.00    -0.264 OA
ENDROOT
BRANCH   1   9
ATOM      9  C   UNL d   1      33.075  21.418 -21.941  0.00  0.00     0.110 C 
BRANCH   9  10
ATOM     10  C   UNL d   1      32.588  20.772 -21.764  0.00  0.00     0.091 C 
BRANCH  10  11
ATOM     11  C   UNL d   1      32.905  20.011 -21.775  0.00  0.00     0.213 C 
ATOM     12  O   UNL d   1      33.241  19.686 -21.094  0.00  0.00    -0.644 OA
ATOM     13  O   UNL d   1      32.885  19.570 -22.473  0.00  0.00    -0.644 OA
ENDBRANCH  10  11
ENDBRANCH   9  10
ENDBRANCH   1   9
TORSDOF 3
ENDMDL
MODEL 9
REMARK VINA RESULT:      -1.1      6.163      6.920
REMARK  3 active torsions:
REMARK  status: ('A' for Active; 'I' for Inactive)
REMARK    1  A    between atoms: C_9  and  N_1 
REMARK    2  A    between atoms: C_7  and  C_9 
REMARK    3  A    between atoms: C_8  and  C_7 
ROOT
ATOM      1  N   UNL d   1      32.609  22.408 -21.939  0.00  0.00    -0.190 N 
ATOM      2  N   UNL d   1      32.946  21.655 -21.936  0.00  0.00    -0.120 NA
ATOM      3  C   UNL d   1      32.200  22.681 -21.278  0.00  0.00     0.281 A 
ATOM      4  C   UNL d   1      32.875  21.173 -21.270  0.00  0.00     0.296 A 
ATOM      5  C   UNL d   1      32.130  22.201 -20.617  0.00  0.00     0.068 A 
ATOM      6  C   UNL d   1      32.467  21.447 -20.613  0.00  0.00     0.069 A 
ATOM      7  O   UNL d   1      31.863  23.435 -21.282  0.00  0.00    -0.265 OA
ATOM      8  O   UNL d   1      33.211  20.420 -21.267  0.00  0.00    -0.264 OA
ENDROOT
BRANCH   1   9
ATOM      9  C   UNL d   1      32.682  22.890 -22.608  0.00  0.00     0.110 C 
BRANCH   9  10
ATOM     10  C   UNL d   1      33.239  22.698 -23.190  0.00  0.00     0.091 C 
BRANCH  10  11
ATOM     11  C   UNL d   1      33.106  22.929 -23.970  0.00  0.00     0.213 C 
ATOM     12  O   UNL d   1      32.876  23.702 -24.147  0.00  0.00    -0.644 OA
ATOM     13  O   UNL d   1      33.202  22.381 -24.581  0.00  0.00    -0.644 OA
ENDBRANCH  10  11
ENDBRANCH   9  10
ENDBRANCH   1   9
TORSDOF 3
ENDMDL
