MODEL 1
REMARK VINA RESULT:      54.3      0.000      0.000
REMARK  4 active torsions:
REMARK  status: ('A' for Active; 'I' for Inactive)
REMARK    1  A    between atoms: S_4  and  C_1 
REMARK    2  A    between atoms: C_7  and  S_4 
REMARK       I    between atoms: C_5  and  N_6 
REMARK    3  A    between atoms: C_12  and  C_5 
REMARK    4  A    between atoms: N_6  and  C_7 
ROOT
ATOM      1  C   UNL d   1     -50.419  26.595  33.903  0.00  0.00     0.141 C 
ENDROOT
BRANCH   1   2
ATOM      2  N   UNL d   1     -50.644  25.804  33.741  0.00  0.00    -0.199 NA
ATOM      3  C   UNL d   1     -51.435  25.576  33.796  0.00  0.00     0.280 C 
ATOM      4  O   UNL d   1     -52.020  26.136  34.016  0.00  0.00    -0.265 OA
BRANCH   3   5
ATOM      5  C   UNL d   1     -51.646  24.799  33.635  0.00  0.00     0.058 A 
ATOM      6  C   UNL d   1     -51.062  24.210  33.573  0.00  0.00     0.005 A 
ATOM      7  C   UNL d   1     -51.263  23.433  33.412  0.00  0.00     0.000 A 
ATOM      8  C   UNL d   1     -52.062  23.220  33.308  0.00  0.00     0.000 A 
ATOM      9  C   UNL d   1     -52.654  23.812  33.370  0.00  0.00     0.000 A 
ATOM     10  C   UNL d   1     -52.434  24.607  33.535  0.00  0.00     0.005 A 
ENDBRANCH   3   5
ENDBRANCH   1   2
BRANCH   1  11
ATOM     11  S   UNL d   1     -49.811  26.968  33.463  0.00  0.00    -0.027 SA
BRANCH  11  12
ATOM     12  C   UNL d   1     -49.505  27.716  33.719  0.00  0.00     0.196 A 
ATOM     13  N   UNL d   1     -49.787  28.404  33.364  0.00  0.00    -0.221 NA
ATOM     14  C   UNL d   1     -49.491  29.136  33.611  0.00  0.00     0.085 A 
ATOM     15  C   UNL d   1     -49.729  29.754  33.308  0.00  0.00     0.021 C 
ATOM     16  C   UNL d   1     -48.908  29.177  34.218  0.00  0.00     0.038 A 
ATOM     17  C   UNL d   1     -48.640  28.484  34.560  0.00  0.00     0.085 A 
ATOM     18  N   UNL d   1     -48.922  27.757  34.327  0.00  0.00    -0.221 NA
ATOM     19  C   UNL d   1     -48.089  28.529  35.134  0.00  0.00     0.021 C 
ENDBRANCH  11  12
ENDBRANCH   1  11
TORSDOF 4
ENDMDL
MODEL 2
REMARK VINA RESULT:      54.8      2.647      4.349
REMARK  4 active torsions:
REMARK  status: ('A' for Active; 'I' for Inactive)
REMARK    1  A    between atoms: S_4  and  C_1 
REMARK    2  A    between atoms: C_7  and  S_4 
REMARK       I    between atoms: C_5  and  N_6 
REMARK    3  A    between atoms: C_12  and  C_5 
REMARK    4  A    between atoms: N_6  and  C_7 
ROOT
ATOM      1  C   UNL d   1     -51.016  26.518  34.983  0.00  0.00     0.141 C 
ENDROOT
BRANCH   1   2
ATOM      2  N   UNL d   1     -51.377  26.279  35.701  0.00  0.00    -0.199 NA
ATOM      3  C   UNL d   1     -51.140  26.613  36.417  0.00  0.00     0.280 C 
ATOM      4  O   UNL d   1     -50.535  27.195  36.431  0.00  0.00    -0.265 OA
BRANCH   3   5
ATOM      5  C   UNL d   1     -51.499  26.374  37.116  0.00  0.00     0.058 A 
ATOM      6  C   UNL d   1     -51.101  26.455  37.842  0.00  0.00     0.005 A 
ATOM      7  C   UNL d   1     -51.451  26.218  38.543  0.00  0.00     0.000 A 
ATOM      8  C   UNL d   1     -52.217  25.890  38.538  0.00  0.00     0.000 A 
ATOM      9  C   UNL d   1     -52.621  25.807  37.808  0.00  0.00     0.000 A 
ATOM     10  C   UNL d   1     -52.251  26.054  37.094  0.00  0.00     0.005 A 
ENDBRANCH   3   5
ENDBRANCH   1   2
BRANCH   1  11
ATOM     11  S   UNL d   1     -51.395  26.383  34.247  0.00  0.00    -0.027 SA
BRANCH  11  12
ATOM     12  C   UNL d   1     -51.427  25.598  33.928  0.00  0.00     0.196 A 
ATOM     13  N   UNL d   1     -52.163  25.261  33.777  0.00  0.00    -0.221 NA
ATOM     14  C   UNL d   1     -52.200  24.495  33.466  0.00  0.00     0.085 A 
ATOM     15  C   UNL d   1     -52.842  24.181  33.326  0.00  0.00     0.021 C 
ATOM     16  C   UNL d   1     -51.492  24.066  33.306  0.00  0.00     0.038 A 
ATOM     17  C   UNL d   1     -50.770  24.417  33.462  0.00  0.00     0.085 A 
ATOM     18  N   UNL d   1     -50.719  25.170  33.768  0.00  0.00    -0.221 NA
ATOM     19  C   UNL d   1     -50.104  24.006  33.308  0.00  0.00     0.021 C 
ENDBRANCH  11  12
ENDBRANCH   1  11
TORSDOF 4
ENDMDL
MODEL 3
REMARK VINA RESULT:      56.8      3.938      6.698
REMARK  4 active torsions:
REMARK  status: ('A' for Active; 'I' for Inactive)
REMARK    1  A    between atoms: S_4  and  C_1 
REMARK    2  A    between atoms: C_7  and  S_4 
REMARK       I    between atoms: C_5  and  N_6 
REMARK    3  A    between atoms: C_12  and  C_5 
REMARK    4  A    between atoms: N_6  and  C_7 
ROOT
ATOM      1  C   UNL d   1     -47.287  30.662  35.591  0.00  0.00     0.141 C 
ENDROOT
BRANCH   1   2
ATOM      2  N   UNL d   1     -47.576  31.199  35.016  0.00  0.00    -0.199 NA
ATOM      3  C   UNL d   1     -47.332  31.987  35.022  0.00  0.00     0.280 C 
ATOM      4  O   UNL d   1     -46.793  32.256  35.605  0.00  0.00    -0.265 OA
BRANCH   3   5
ATOM      5  C   UNL d   1     -47.620  32.505  34.454  0.00  0.00     0.058 A 
ATOM      6  C   UNL d   1     -48.435  32.665  34.406  0.00  0.00     0.005 A 
ATOM      7  C   UNL d   1     -48.731  33.181  33.842  0.00  0.00     0.000 A 
ATOM      8  C   UNL d   1     -48.215  33.555  33.306  0.00  0.00     0.000 A 
ATOM      9  C   UNL d   1     -47.392  33.395  33.351  0.00  0.00     0.000 A 
ATOM     10  C   UNL d   1     -47.101  32.864  33.934  0.00  0.00     0.005 A 
ENDBRANCH   3   5
ENDBRANCH   1   2
BRANCH   1  11
ATOM     11  S   UNL d   1     -47.137  29.861  35.395  0.00  0.00    -0.027 SA
BRANCH  11  12
ATOM     12  C   UNL d   1     -47.741  29.278  35.517  0.00  0.00     0.196 A 
ATOM     13  N   UNL d   1     -47.964  28.800  34.885  0.00  0.00    -0.221 NA
ATOM     14  C   UNL d   1     -48.553  28.230  34.998  0.00  0.00     0.085 A 
ATOM     15  C   UNL d   1     -48.763  27.798  34.451  0.00  0.00     0.021 C 
ATOM     16  C   UNL d   1     -48.919  28.140  35.752  0.00  0.00     0.038 A 
ATOM     17  C   UNL d   1     -48.685  28.624  36.368  0.00  0.00     0.085 A 
ATOM     18  N   UNL d   1     -48.107  29.189  36.271  0.00  0.00    -0.221 NA
ATOM     19  C   UNL d   1     -49.035  28.534  37.079  0.00  0.00     0.021 C 
ENDBRANCH  11  12
ENDBRANCH   1  11
TORSDOF 4
ENDMDL
