MODEL 1
REMARK VINA RESULT:     -13.0      0.000      0.000
REMARK  3 active torsions:
REMARK  status: ('A' for Active; 'I' for Inactive)
REMARK    1  A    between atoms: C_24  and  N_10 
REMARK    2  A    between atoms: C_12  and  N_15 
REMARK       I    between atoms: N_15  and  C_16 
REMARK    3  A    between atoms: C_16  and  C_24 
ROOT
ATOM      1  N   UNL d   1      51.238  34.354  52.173  0.00  0.00    -0.188 NA
ATOM      2  C   UNL d   1      50.439  34.219  52.338  0.00  0.00     0.298 C 
ATOM      3  O   UNL d   1      50.222  33.921  53.083  0.00  0.00    -0.263 OA
ENDROOT
BRANCH   1   4
ATOM      4  C   UNL d   1      51.814  34.193  52.747  0.00  0.00     0.166 A 
ATOM      5  N   UNL d   1      52.121  33.429  52.824  0.00  0.00    -0.226 NA
ATOM      6  C   UNL d   1      52.693  33.265  53.393  0.00  0.00     0.090 A 
ATOM      7  C   UNL d   1      53.003  32.504  53.474  0.00  0.00     0.041 A 
ATOM      8  C   UNL d   1      52.966  33.867  53.893  0.00  0.00     0.081 A 
ATOM      9  C   UNL d   1      53.579  32.343  54.048  0.00  0.00     0.105 A 
ATOM     10  C   UNL d   1      52.734  31.900  52.976  0.00  0.00     0.004 A 
ATOM     11  C   UNL d   1      53.883  31.579  54.121  0.00  0.00     0.025 A 
ATOM     12  O   UNL d   1      53.845  32.944  54.541  0.00  0.00    -0.273 OA
ATOM     13  C   UNL d   1      53.617  30.976  53.627  0.00  0.00     0.002 A 
ATOM     14  C   UNL d   1      53.038  31.137  53.050  0.00  0.00     0.000 A 
ATOM     15  C   UNL d   1      53.542  33.706  54.467  0.00  0.00     0.301 A 
ATOM     16  O   UNL d   1      53.810  34.314  54.966  0.00  0.00    -0.259 OA
ATOM     17  C   UNL d   1      52.659  34.631  53.817  0.00  0.00     0.010 A 
ATOM     18  C   UNL d   1      52.088  34.795  53.250  0.00  0.00     0.039 A 
ATOM     19  C   UNL d   1      52.934  35.233  54.321  0.00  0.00     0.000 C 
ENDBRANCH   1   4
BRANCH   2  20
ATOM     20  C   UNL d   1      49.857  34.377  51.770  0.00  0.00     0.143 C 
BRANCH  20  21
ATOM     21  N   UNL d   1      49.191  34.818  51.971  0.00  0.00    -0.306 N 
ATOM     22  C   UNL d   1      48.657  34.825  51.397  0.00  0.00     0.059 A 
ATOM     23  C   UNL d   1      47.938  35.156  51.306  0.00  0.00     0.080 A 
ATOM     24  C   UNL d   1      47.481  35.601  51.747  0.00  0.00     0.061 A 
ATOM     25  C   UNL d   1      48.605  35.218  52.172  0.00  0.00     0.024 A 
ATOM     26  N   UNL d   1      47.524  35.918  52.468  0.00  0.00    -0.280 N 
ATOM     27  C   UNL d   1      48.069  35.910  53.050  0.00  0.00     0.049 A 
ATOM     28  C   UNL d   1      46.846  36.319  52.570  0.00  0.00     0.264 A 
ATOM     29  C   UNL d   1      48.769  35.588  53.138  0.00  0.00     0.079 A 
ATOM     30  C   UNL d   1      47.922  36.304  53.724  0.00  0.00     0.014 A 
ATOM     31  C   UNL d   1      49.238  35.135  52.695  0.00  0.00     0.059 A 
ATOM     32  C   UNL d   1      47.251  36.700  53.824  0.00  0.00     0.006 A 
ATOM     33  C   UNL d   1      46.706  36.709  53.242  0.00  0.00     0.061 A 
ATOM     34  O   UNL d   1      46.305  36.324  51.983  0.00  0.00    -0.267 OA
ENDBRANCH  20  21
ENDBRANCH   2  20
TORSDOF 3
ENDMDL
MODEL 2
REMARK VINA RESULT:     -11.9      0.952      2.052
REMARK  3 active torsions:
REMARK  status: ('A' for Active; 'I' for Inactive)
REMARK    1  A    between atoms: C_24  and  N_10 
REMARK    2  A    between atoms: C_12  and  N_15 
REMARK       I    between atoms: N_15  and  C_16 
REMARK    3  A    between atoms: C_16  and  C_24 
ROOT
ATOM      1  N   UNL d   1      51.738  33.630  52.160  0.00  0.00    -0.188 NA
ATOM      2  C   UNL d   1      50.928  33.716  52.299  0.00  0.00     0.298 C 
ATOM      3  O   UNL d   1      50.577  33.301  52.930  0.00  0.00    -0.263 OA
ENDROOT
BRANCH   1   4
ATOM      4  C   UNL d   1      52.194  33.136  52.645  0.00  0.00     0.166 A 
ATOM      5  N   UNL d   1      52.677  33.463  53.231  0.00  0.00    -0.226 NA
ATOM      6  C   UNL d   1      53.132  32.975  53.715  0.00  0.00     0.090 A 
ATOM      7  C   UNL d   1      53.616  33.295  54.303  0.00  0.00     0.041 A 
ATOM      8  C   UNL d   1      53.107  32.152  53.616  0.00  0.00     0.081 A 
ATOM      9  C   UNL d   1      54.072  32.801  54.788  0.00  0.00     0.105 A 
ATOM     10  C   UNL d   1      53.643  34.115  54.405  0.00  0.00     0.004 A 
ATOM     11  C   UNL d   1      54.553  33.130  55.372  0.00  0.00     0.025 A 
ATOM     12  O   UNL d   1      54.043  31.986  54.685  0.00  0.00    -0.273 OA
ATOM     13  C   UNL d   1      54.582  33.947  55.476  0.00  0.00     0.002 A 
ATOM     14  C   UNL d   1      54.124  34.444  54.989  0.00  0.00     0.000 A 
ATOM     15  C   UNL d   1      53.563  31.658  54.101  0.00  0.00     0.301 A 
ATOM     16  O   UNL d   1      53.534  30.835  53.997  0.00  0.00    -0.259 OA
ATOM     17  C   UNL d   1      52.624  31.826  53.030  0.00  0.00     0.010 A 
ATOM     18  C   UNL d   1      52.171  32.312  52.548  0.00  0.00     0.039 A 
ATOM     19  C   UNL d   1      52.602  31.000  52.933  0.00  0.00     0.000 C 
ENDBRANCH   1   4
BRANCH   2  20
ATOM     20  C   UNL d   1      50.464  34.208  51.819  0.00  0.00     0.143 C 
BRANCH  20  21
ATOM     21  N   UNL d   1      49.828  34.620  52.141  0.00  0.00    -0.306 N 
ATOM     22  C   UNL d   1      49.969  34.854  52.876  0.00  0.00     0.059 A 
ATOM     23  C   UNL d   1      49.555  35.258  53.424  0.00  0.00     0.080 A 
ATOM     24  C   UNL d   1      48.850  35.580  53.447  0.00  0.00     0.061 A 
ATOM     25  C   UNL d   1      49.247  34.986  52.408  0.00  0.00     0.024 A 
ATOM     26  N   UNL d   1      48.241  35.650  52.950  0.00  0.00    -0.280 N 
ATOM     27  C   UNL d   1      48.100  35.412  52.203  0.00  0.00     0.049 A 
ATOM     28  C   UNL d   1      47.683  36.057  53.345  0.00  0.00     0.264 A 
ATOM     29  C   UNL d   1      48.504  35.018  51.670  0.00  0.00     0.079 A 
ATOM     30  C   UNL d   1      47.403  35.585  51.865  0.00  0.00     0.014 A 
ATOM     31  C   UNL d   1      49.220  34.688  51.639  0.00  0.00     0.059 A 
ATOM     32  C   UNL d   1      46.852  35.987  52.257  0.00  0.00     0.006 A 
ATOM     33  C   UNL d   1      46.993  36.226  53.004  0.00  0.00     0.061 A 
ATOM     34  O   UNL d   1      47.831  36.293  54.093  0.00  0.00    -0.267 OA
ENDBRANCH  20  21
ENDBRANCH   2  20
TORSDOF 3
ENDMDL
MODEL 3
REMARK VINA RESULT:     -11.7      0.853      5.871
REMARK  3 active torsions:
REMARK  status: ('A' for Active; 'I' for Inactive)
REMARK    1  A    between atoms: C_24  and  N_10 
REMARK    2  A    between atoms: C_12  and  N_15 
REMARK       I    between atoms: N_15  and  C_16 
REMARK    3  A    between atoms: C_16  and  C_24 
ROOT
ATOM      1  N   UNL d   1      50.166  34.807  51.589  0.00  0.00    -0.188 NA
ATOM      2  C   UNL d   1      50.529  34.190  52.002  0.00  0.00     0.298 C 
ATOM      3  O   UNL d   1      50.076  33.729  52.526  0.00  0.00    -0.263 OA
ENDROOT
BRANCH   1   4
ATOM      4  C   UNL d   1      49.359  34.962  51.697  0.00  0.00     0.166 A 
ATOM      5  N   UNL d   1      49.101  35.360  52.375  0.00  0.00    -0.226 NA
ATOM      6  C   UNL d   1      48.299  35.516  52.486  0.00  0.00     0.090 A 
ATOM      7  C   UNL d   1      48.036  35.914  53.161  0.00  0.00     0.041 A 
ATOM      8  C   UNL d   1      47.746  35.275  51.918  0.00  0.00     0.081 A 
ATOM      9  C   UNL d   1      47.229  36.069  53.269  0.00  0.00     0.105 A 
ATOM     10  C   UNL d   1      48.584  36.157  53.730  0.00  0.00     0.004 A 
ATOM     11  C   UNL d   1      46.975  36.466  53.946  0.00  0.00     0.025 A 
ATOM     12  O   UNL d   1      46.685  35.827  52.702  0.00  0.00    -0.273 OA
ATOM     13  C   UNL d   1      47.519  36.709  54.515  0.00  0.00     0.002 A 
ATOM     14  C   UNL d   1      48.330  36.553  54.407  0.00  0.00     0.000 A 
ATOM     15  C   UNL d   1      46.939  35.430  52.026  0.00  0.00     0.301 A 
ATOM     16  O   UNL d   1      46.390  35.185  51.453  0.00  0.00    -0.259 OA
ATOM     17  C   UNL d   1      48.004  34.877  51.240  0.00  0.00     0.010 A 
ATOM     18  C   UNL d   1      48.803  34.721  51.130  0.00  0.00     0.039 A 
ATOM     19  C   UNL d   1      47.447  34.636  50.672  0.00  0.00     0.000 C 
ENDBRANCH   1   4
BRANCH   2  20
ATOM     20  C   UNL d   1      51.335  34.028  51.900  0.00  0.00     0.143 C 
BRANCH  20  21
ATOM     21  N   UNL d   1      51.834  33.983  52.553  0.00  0.00    -0.306 N 
ATOM     22  C   UNL d   1      51.941  34.681  52.893  0.00  0.00     0.059 A 
ATOM     23  C   UNL d   1      52.357  34.940  53.521  0.00  0.00     0.080 A 
ATOM     24  C   UNL d   1      52.820  34.606  54.045  0.00  0.00     0.061 A 
ATOM     25  C   UNL d   1      52.284  33.918  53.134  0.00  0.00     0.024 A 
ATOM     26  N   UNL d   1      53.081  33.875  54.187  0.00  0.00    -0.280 N 
ATOM     27  C   UNL d   1      52.972  33.165  53.840  0.00  0.00     0.049 A 
ATOM     28  C   UNL d   1      53.549  33.931  54.827  0.00  0.00     0.264 A 
ATOM     29  C   UNL d   1      52.567  32.914  53.228  0.00  0.00     0.079 A 
ATOM     30  C   UNL d   1      53.333  32.526  54.141  0.00  0.00     0.014 A 
ATOM     31  C   UNL d   1      52.094  33.248  52.692  0.00  0.00     0.059 A 
ATOM     32  C   UNL d   1      53.796  32.583  54.775  0.00  0.00     0.006 A 
ATOM     33  C   UNL d   1      53.906  33.292  55.122  0.00  0.00     0.061 A 
ATOM     34  O   UNL d   1      53.655  34.644  55.170  0.00  0.00    -0.267 OA
ENDBRANCH  20  21
ENDBRANCH   2  20
TORSDOF 3
ENDMDL
MODEL 4
REMARK VINA RESULT:     -11.5      0.908      6.033
REMARK  3 active torsions:
REMARK  status: ('A' for Active; 'I' for Inactive)
REMARK    1  A    between atoms: C_24  and  N_10 
REMARK    2  A    between atoms: C_12  and  N_15 
REMARK       I    between atoms: N_15  and  C_16 
REMARK    3  A    between atoms: C_16  and  C_24 
ROOT
ATOM      1  N   UNL d   1      49.880  34.991  52.227  0.00  0.00    -0.188 NA
ATOM      2  C   UNL d   1      50.270  34.372  52.613  0.00  0.00     0.298 C 
ATOM      3  O   UNL d   1      49.939  34.052  53.306  0.00  0.00    -0.263 OA
ENDROOT
BRANCH   1   4
ATOM      4  C   UNL d   1      49.168  35.287  52.530  0.00  0.00     0.166 A 
ATOM      5  N   UNL d   1      48.483  35.272  52.066  0.00  0.00    -0.226 NA
ATOM      6  C   UNL d   1      47.773  35.566  52.363  0.00  0.00     0.090 A 
ATOM      7  C   UNL d   1      47.086  35.553  51.905  0.00  0.00     0.041 A 
ATOM      8  C   UNL d   1      47.741  35.879  53.130  0.00  0.00     0.081 A 
ATOM      9  C   UNL d   1      46.373  35.849  52.208  0.00  0.00     0.105 A 
ATOM     10  C   UNL d   1      47.112  35.241  51.140  0.00  0.00     0.004 A 
ATOM     11  C   UNL d   1      45.692  35.832  51.743  0.00  0.00     0.025 A 
ATOM     12  O   UNL d   1      46.348  36.159  52.968  0.00  0.00    -0.273 OA
ATOM     13  C   UNL d   1      45.715  35.522  50.980  0.00  0.00     0.002 A 
ATOM     14  C   UNL d   1      46.431  35.224  50.676  0.00  0.00     0.000 A 
ATOM     15  C   UNL d   1      47.029  36.176  53.432  0.00  0.00     0.301 A 
ATOM     16  O   UNL d   1      47.004  36.489  54.201  0.00  0.00    -0.259 OA
ATOM     17  C   UNL d   1      48.426  35.895  53.593  0.00  0.00     0.010 A 
ATOM     18  C   UNL d   1      49.134  35.602  53.297  0.00  0.00     0.039 A 
ATOM     19  C   UNL d   1      48.392  36.210  54.362  0.00  0.00     0.000 C 
ENDBRANCH   1   4
BRANCH   2  20
ATOM     20  C   UNL d   1      50.982  34.069  52.318  0.00  0.00     0.143 C 
BRANCH  20  21
ATOM     21  N   UNL d   1      51.630  33.974  52.817  0.00  0.00    -0.306 N 
ATOM     22  C   UNL d   1      51.918  34.661  53.062  0.00  0.00     0.059 A 
ATOM     23  C   UNL d   1      52.521  34.878  53.536  0.00  0.00     0.080 A 
ATOM     24  C   UNL d   1      53.061  34.498  53.942  0.00  0.00     0.061 A 
ATOM     25  C   UNL d   1      52.208  33.865  53.261  0.00  0.00     0.024 A 
ATOM     26  N   UNL d   1      53.250  33.742  54.065  0.00  0.00    -0.280 N 
ATOM     27  C   UNL d   1      52.956  33.044  53.815  0.00  0.00     0.049 A 
ATOM     28  C   UNL d   1      53.878  33.751  54.552  0.00  0.00     0.264 A 
ATOM     29  C   UNL d   1      52.369  32.834  53.353  0.00  0.00     0.079 A 
ATOM     30  C   UNL d   1      53.297  32.370  54.057  0.00  0.00     0.014 A 
ATOM     31  C   UNL d   1      51.817  33.214  52.937  0.00  0.00     0.059 A 
ATOM     32  C   UNL d   1      53.918  32.381  54.539  0.00  0.00     0.006 A 
ATOM     33  C   UNL d   1      54.213  33.078  54.790  0.00  0.00     0.061 A 
ATOM     34  O   UNL d   1      54.168  34.453  54.799  0.00  0.00    -0.267 OA
ENDBRANCH  20  21
ENDBRANCH   2  20
TORSDOF 3
ENDMDL
