MODEL 1
REMARK VINA RESULT:      59.6      0.000      0.000
REMARK  6 active torsions:
REMARK  status: ('A' for Active; 'I' for Inactive)
REMARK    1  A    between atoms: C_6  and  S_1 
REMARK    2  A    between atoms: N_7  and  S_1 
REMARK    3  A    between atoms: N_2  and  C_3 
REMARK       I    between atoms: C_4  and  N_2 
REMARK    4  A    between atoms: C_3  and  N_11 
REMARK    5  A    between atoms: C_5  and  C_4 
REMARK    6  A    between atoms: N_11  and  C_19 
ROOT
ATOM      1  C   UNL d   1     -54.879-101.550 -41.572  0.00  0.00     0.104 A 
ATOM      2  C   UNL d   1     -55.033-102.116 -42.157  0.00  0.00     0.014 A 
ATOM      3  C   UNL d   1     -54.721-100.769 -41.770  0.00  0.00     0.014 A 
ATOM      4  C   UNL d   1     -54.866-101.091 -43.159  0.00  0.00     0.084 A 
ATOM      5  C   UNL d   1     -54.713-100.533 -42.567  0.00  0.00     0.020 A 
ATOM      6  C   UNL d   1     -55.026-101.881 -42.959  0.00  0.00     0.020 A 
ENDROOT
BRANCH   4   7
ATOM      7  N   UNL d   1     -54.857-100.847 -43.962  0.00  0.00    -0.217 NA
BRANCH   7   8
ATOM      8  C   UNL d   1     -55.169-100.173 -44.158  0.00  0.00     0.224 C 
ATOM      9  S   UNL d   1     -55.042 -99.534 -43.728  0.00  0.00    -0.037 SA
BRANCH   8  10
ATOM     10  N   UNL d   1     -55.950-100.200 -45.310  0.00  0.00    -0.178 NA
ATOM     11  C   UNL d   1     -56.629 -99.806 -45.325  0.00  0.00     0.287 C 
ATOM     12  O   UNL d   1     -57.074 -99.824 -45.987  0.00  0.00    -0.265 OA
BRANCH  11  13
ATOM     13  C   UNL d   1     -56.859 -99.405 -44.698  0.00  0.00     0.087 A 
ATOM     14  S   UNL d   1     -57.590 -99.202 -44.495  0.00  0.00    -0.082 SA
ATOM     15  C   UNL d   1     -57.549 -98.806 -43.824  0.00  0.00     0.036 A 
ATOM     16  C   UNL d   1     -56.818 -98.759 -43.608  0.00  0.00     0.008 A 
ATOM     17  C   UNL d   1     -56.379 -99.123 -44.135  0.00  0.00     0.012 A 
ENDBRANCH  11  13
ENDBRANCH   8  10
ENDBRANCH   7   8
ENDBRANCH   4   7
BRANCH   1  18
ATOM     18  S   UNL d   1     -54.884-101.773 -40.771  0.00  0.00     0.271 S 
ATOM     19  O   UNL d   1     -54.714-101.002 -40.537  0.00  0.00    -0.200 OA
ATOM     20  O   UNL d   1     -55.058-102.564 -40.995  0.00  0.00    -0.200 OA
BRANCH  18  21
ATOM     21  N   UNL d   1     -54.895-102.030 -39.952  0.00  0.00    -0.226 N 
ATOM     22  C   UNL d   1     -54.843-101.480 -39.321  0.00  0.00     0.111 C 
ATOM     23  C   UNL d   1     -54.958-102.850 -39.803  0.00  0.00     0.111 C 
ENDBRANCH  18  21
ENDBRANCH   1  18
TORSDOF 6
ENDMDL
