MODEL 1
REMARK VINA RESULT:      -2.0      0.000      0.000
REMARK  7 active torsions:
REMARK  status: ('A' for Active; 'I' for Inactive)
REMARK    1  A    between atoms: C_6  and  C_1 
REMARK    2  A    between atoms: C_9  and  N_3 
REMARK    3  A    between atoms: C_11  and  C_4 
REMARK       I    between atoms: N_7  and  C_6 
REMARK    4  A    between atoms: C_15  and  N_7 
REMARK    5  A    between atoms: C_8  and  C_10 
REMARK    6  A    between atoms: O_18  and  C_8 
REMARK    7  A    between atoms: C_27  and  O_18 
ROOT
ATOM      1  C   UNL d   1      32.777  22.365 -20.209  0.00  0.00     0.096 A 
ATOM      2  N   UNL d   1      32.437  23.702 -19.850  0.00  0.00    -0.165 NA
ATOM      3  N   UNL d   1      32.820  22.774 -18.844  0.00  0.00    -0.228 N 
ATOM      4  C   UNL d   1      32.534  23.125 -20.428  0.00  0.00     0.108 A 
ATOM      5  C   UNL d   1      32.918  22.197 -19.415  0.00  0.00     0.107 A 
ENDROOT
BRANCH   1   6
ATOM      6  C   UNL d   1      32.874  21.786 -20.782  0.00  0.00     0.282 C 
ATOM      7  N   UNL d   1      32.595  20.990 -20.643  0.00  0.00    -0.208 NA
ATOM      8  O   UNL d   1      33.241  21.971 -21.492  0.00  0.00    -0.265 OA
BRANCH   7   9
ATOM      9  C   UNL d   1      32.698  20.397 -21.236  0.00  0.00     0.085 A 
ATOM     10  C   UNL d   1      33.139  19.698 -21.073  0.00  0.00     0.019 A 
ATOM     11  C   UNL d   1      33.241  19.106 -21.667  0.00  0.00     0.007 A 
ATOM     12  C   UNL d   1      32.894  19.215 -22.435  0.00  0.00     0.064 A 
ATOM     13  C   UNL d   1      32.453  19.914 -22.593  0.00  0.00     0.007 A 
ATOM     14  C   UNL d   1      32.355  20.504 -21.995  0.00  0.00     0.019 A 
BRANCH  12  15
ATOM     15  C   UNL d   1      32.993  18.621 -23.037  0.00  0.00     0.300 C 
ATOM     16  O   UNL d   1      32.912  18.828 -23.856  0.00  0.00    -0.259 OA
BRANCH  15  17
ATOM     17  O   UNL d   1      33.172  17.821 -22.820  0.00  0.00    -0.271 OA
BRANCH  17  18
ATOM     18  C   UNL d   1      32.958  17.185 -23.333  0.00  0.00     0.126 C 
ATOM     19  C   UNL d   1      32.868  16.411 -23.024  0.00  0.00     0.029 C 
ENDBRANCH  17  18
ENDBRANCH  15  17
ENDBRANCH  12  15
ENDBRANCH   7   9
ENDBRANCH   1   6
BRANCH   4  20
ATOM     20  C   UNL d   1      32.393  23.300 -21.205  0.00  0.00     0.023 A 
ATOM     21  C   UNL d   1      31.634  23.485 -21.458  0.00  0.00     0.022 A 
ATOM     22  C   UNL d   1      31.486  23.663 -22.244  0.00  0.00     0.099 A 
ATOM     23  N   UNL d   1      32.109  23.654 -22.788  0.00  0.00    -0.242 NA
ATOM     24  C   UNL d   1      32.869  23.470 -22.542  0.00  0.00     0.099 A 
ATOM     25  C   UNL d   1      33.011  23.292 -21.750  0.00  0.00     0.022 A 
ENDBRANCH   4  20
BRANCH   3  26
ATOM     26  C   UNL d   1      32.907  22.805 -18.029  0.00  0.00     0.083 A 
ATOM     27  C   UNL d   1      33.003  23.531 -17.660  0.00  0.00     0.019 A 
ATOM     28  C   UNL d   1      33.089  23.559 -16.845  0.00  0.00     0.002 A 
ATOM     29  C   UNL d   1      33.081  22.865 -16.398  0.00  0.00     0.000 A 
ATOM     30  C   UNL d   1      32.985  22.137 -16.774  0.00  0.00     0.002 A 
ATOM     31  C   UNL d   1      32.898  22.108 -17.589  0.00  0.00     0.019 A 
ENDBRANCH   3  26
TORSDOF 7
ENDMDL
