MODEL 1
REMARK VINA RESULT:      51.4      0.000      0.000
REMARK  3 active torsions:
REMARK  status: ('A' for Active; 'I' for Inactive)
REMARK    1  A    between atoms: C_4  and  S_13 
REMARK    2  A    between atoms: C_16  and  C_6 
REMARK    3  A    between atoms: S_13  and  C_16 
ROOT
ATOM      1  C   UNL d   1      59.889  49.703  50.256  0.00  0.00     0.059 C 
ENDROOT
BRANCH   1   2
ATOM      2  S   UNL d   1      60.227  49.311  50.878  0.00  0.00    -0.046 SA
BRANCH   2   3
ATOM      3  C   UNL d   1      60.534  48.555  50.756  0.00  0.00     0.194 A 
ATOM      4  N   UNL d   1      60.350  47.814  51.064  0.00  0.00    -0.220 NA
ATOM      5  C   UNL d   1      60.853  47.264  50.728  0.00  0.00     0.101 A 
ATOM      6  C   UNL d   1      60.917  46.455  50.831  0.00  0.00     0.021 A 
ATOM      7  C   UNL d   1      61.339  47.648  50.224  0.00  0.00     0.101 A 
ATOM      8  C   UNL d   1      61.472  46.021  50.426  0.00  0.00     0.002 A 
ATOM      9  C   UNL d   1      61.991  46.400  49.894  0.00  0.00     0.002 A 
ATOM     10  C   UNL d   1      61.919  47.238  49.793  0.00  0.00     0.021 A 
ATOM     11  N   UNL d   1      61.164  48.465  50.218  0.00  0.00    -0.220 NA
ENDBRANCH   2   3
ENDBRANCH   1   2
BRANCH   1  12
ATOM     12  C   UNL d   1      59.077  49.703  50.173  0.00  0.00     0.107 A 
ATOM     13  C   UNL d   1      58.526  49.705  50.771  0.00  0.00     0.101 A 
ATOM     14  N   UNL d   1      57.763  49.705  50.466  0.00  0.00    -0.289 N 
ATOM     15  C   UNL d   1      57.840  49.704  49.640  0.00  0.00     0.148 A 
ATOM     16  C   UNL d   1      56.999  49.707  50.806  0.00  0.00     0.066 A 
ATOM     17  N   UNL d   1      58.651  49.703  49.450  0.00  0.00    -0.226 NA
ATOM     18  C   UNL d   1      57.169  49.704  49.161  0.00  0.00     0.037 A 
ATOM     19  C   UNL d   1      56.409  49.706  49.509  0.00  0.00     0.005 A 
ATOM     20  C   UNL d   1      56.331  49.707  50.334  0.00  0.00     0.018 A 
ATOM     21  C   UNL d   1      56.925  49.708  51.638  0.00  0.00     0.019 C 
ENDBRANCH   1  12
TORSDOF 3
ENDMDL
