MODEL 1
REMARK VINA RESULT:      -2.6      0.000      0.000
REMARK  4 active torsions:
REMARK  status: ('A' for Active; 'I' for Inactive)
REMARK    1  A    between atoms: N_2  and  S_1 
REMARK    2  A    between atoms: N_3  and  S_1 
REMARK    3  A    between atoms: C_8  and  N_3 
REMARK    4  A    between atoms: C_6  and  C_8 
ROOT
ATOM      1  S   UNL d   1      32.936  21.226 -21.651  0.00  0.00     0.351 S 
ATOM      2  O   UNL d   1      32.674  20.735 -21.041  0.00  0.00    -0.180 OA
ATOM      3  O   UNL d   1      33.198  21.713 -22.259  0.00  0.00    -0.180 OA
ENDROOT
BRANCH   1   4
ATOM      4  N   UNL d   1      32.652  21.883 -21.240  0.00  0.00    -0.211 N 
ATOM      5  C   UNL d   1      32.466  22.569 -21.659  0.00  0.00     0.120 C 
ATOM      6  C   UNL d   1      32.183  23.222 -21.249  0.00  0.00     0.142 C 
ATOM      7  O   UNL d   1      32.191  23.232 -20.424  0.00  0.00    -0.300 OA
ATOM      8  C   UNL d   1      32.484  22.585 -20.010  0.00  0.00     0.142 C 
ATOM      9  C   UNL d   1      32.768  21.928 -20.422  0.00  0.00     0.120 C 
ENDBRANCH   1   4
BRANCH   1  10
ATOM     10  N   UNL d   1      33.239  20.614 -22.108  0.00  0.00    -0.144 NA
BRANCH  10  11
ATOM     11  C   UNL d   1      32.835  19.886 -22.165  0.00  0.00     0.121 C 
BRANCH  11  12
ATOM     12  C   UNL d   1      33.089  19.301 -22.709  0.00  0.00     0.185 C 
ATOM     13  O   UNL d   1      32.626  19.154 -23.428  0.00  0.00    -0.321 OA
ATOM     14  C   UNL d   1      32.860  18.420 -23.718  0.00  0.00     0.117 C 
ATOM     15  C   UNL d   1      33.237  18.006 -23.111  0.00  0.00     0.025 C 
ATOM     16  C   UNL d   1      33.237  18.488 -22.439  0.00  0.00     0.012 C 
ENDBRANCH  11  12
ENDBRANCH  10  11
ENDBRANCH   1  10
TORSDOF 4
ENDMDL
MODEL 2
REMARK VINA RESULT:      -2.5      1.308      4.233
REMARK  4 active torsions:
REMARK  status: ('A' for Active; 'I' for Inactive)
REMARK    1  A    between atoms: N_2  and  S_1 
REMARK    2  A    between atoms: N_3  and  S_1 
REMARK    3  A    between atoms: C_8  and  N_3 
REMARK    4  A    between atoms: C_6  and  C_8 
ROOT
ATOM      1  S   UNL d   1      33.130  19.277 -22.704  0.00  0.00     0.351 S 
ATOM      2  O   UNL d   1      33.073  19.814 -23.329  0.00  0.00    -0.180 OA
ATOM      3  O   UNL d   1      33.187  18.744 -22.081  0.00  0.00    -0.180 OA
ENDROOT
BRANCH   1   4
ATOM      4  N   UNL d   1      33.025  18.654 -23.235  0.00  0.00    -0.211 N 
ATOM      5  C   UNL d   1      32.925  17.889 -22.941  0.00  0.00     0.120 C 
ATOM      6  C   UNL d   1      32.821  17.269 -23.470  0.00  0.00     0.142 C 
ATOM      7  O   UNL d   1      32.926  17.390 -24.280  0.00  0.00    -0.300 OA
ATOM      8  C   UNL d   1      33.136  18.134 -24.558  0.00  0.00     0.142 C 
ATOM      9  C   UNL d   1      33.241  18.757 -24.027  0.00  0.00     0.120 C 
ENDBRANCH   1   4
BRANCH   1  10
ATOM     10  N   UNL d   1      33.238  19.853 -22.127  0.00  0.00    -0.144 NA
BRANCH  10  11
ATOM     11  C   UNL d   1      32.717  20.501 -22.070  0.00  0.00     0.121 C 
BRANCH  11  12
ATOM     12  C   UNL d   1      32.722  20.992 -21.391  0.00  0.00     0.185 C 
ATOM     13  O   UNL d   1      31.976  21.173 -20.987  0.00  0.00    -0.321 OA
ATOM     14  C   UNL d   1      32.114  21.831 -20.511  0.00  0.00     0.117 C 
ATOM     15  C   UNL d   1      32.799  22.208 -20.778  0.00  0.00     0.025 C 
ATOM     16  C   UNL d   1      33.086  21.780 -21.424  0.00  0.00     0.012 C 
ENDBRANCH  11  12
ENDBRANCH  10  11
ENDBRANCH   1  10
TORSDOF 4
ENDMDL
MODEL 3
REMARK VINA RESULT:      -2.4      3.954      6.023
REMARK  4 active torsions:
REMARK  status: ('A' for Active; 'I' for Inactive)
REMARK    1  A    between atoms: N_2  and  S_1 
REMARK    2  A    between atoms: N_3  and  S_1 
REMARK    3  A    between atoms: C_8  and  N_3 
REMARK    4  A    between atoms: C_6  and  C_8 
ROOT
ATOM      1  S   UNL d   1      30.480  16.483 -24.123  0.00  0.00     0.351 S 
ATOM      2  O   UNL d   1      30.281  17.101 -24.633  0.00  0.00    -0.180 OA
ATOM      3  O   UNL d   1      30.680  15.868 -23.615  0.00  0.00    -0.180 OA
ENDROOT
BRANCH   1   4
ATOM      4  N   UNL d   1      29.714  16.184 -24.193  0.00  0.00    -0.211 N 
ATOM      5  C   UNL d   1      29.245  16.121 -23.516  0.00  0.00     0.120 C 
ATOM      6  C   UNL d   1      28.483  15.823 -23.587  0.00  0.00     0.142 C 
ATOM      7  O   UNL d   1      28.230  15.488 -24.298  0.00  0.00    -0.300 OA
ATOM      8  C   UNL d   1      28.743  15.453 -24.938  0.00  0.00     0.142 C 
ATOM      9  C   UNL d   1      29.509  15.752 -24.868  0.00  0.00     0.120 C 
ENDBRANCH   1   4
BRANCH   1  10
ATOM     10  N   UNL d   1      31.256  16.730 -24.013  0.00  0.00    -0.144 NA
BRANCH  10  11
ATOM     11  C   UNL d   1      31.435  17.540 -23.922  0.00  0.00     0.121 C 
BRANCH  11  12
ATOM     12  C   UNL d   1      32.221  17.787 -23.765  0.00  0.00     0.185 C 
ATOM     13  O   UNL d   1      32.436  18.053 -22.968  0.00  0.00    -0.321 OA
ATOM     14  C   UNL d   1      33.142  18.471 -23.037  0.00  0.00     0.117 C 
ATOM     15  C   UNL d   1      33.240  18.691 -23.827  0.00  0.00     0.025 C 
ATOM     16  C   UNL d   1      32.589  18.406 -24.251  0.00  0.00     0.012 C 
ENDBRANCH  11  12
ENDBRANCH  10  11
ENDBRANCH   1  10
TORSDOF 4
ENDMDL
MODEL 4
REMARK VINA RESULT:      -2.4      3.697      5.195
REMARK  4 active torsions:
REMARK  status: ('A' for Active; 'I' for Inactive)
REMARK    1  A    between atoms: N_2  and  S_1 
REMARK    2  A    between atoms: N_3  and  S_1 
REMARK    3  A    between atoms: C_8  and  N_3 
REMARK    4  A    between atoms: C_6  and  C_8 
ROOT
ATOM      1  S   UNL d   1      31.413  17.221 -24.136  0.00  0.00     0.351 S 
ATOM      2  O   UNL d   1      30.967  17.686 -24.653  0.00  0.00    -0.180 OA
ATOM      3  O   UNL d   1      31.856  16.758 -23.621  0.00  0.00    -0.180 OA
ENDROOT
BRANCH   1   4
ATOM      4  N   UNL d   1      31.981  17.819 -24.095  0.00  0.00    -0.211 N 
ATOM      5  C   UNL d   1      32.303  18.115 -24.795  0.00  0.00     0.120 C 
ATOM      6  C   UNL d   1      32.868  18.710 -24.754  0.00  0.00     0.142 C 
ATOM      7  O   UNL d   1      33.189  18.929 -24.026  0.00  0.00    -0.300 OA
ATOM      8  C   UNL d   1      32.943  18.552 -23.340  0.00  0.00     0.142 C 
ATOM      9  C   UNL d   1      32.375  17.953 -23.380  0.00  0.00     0.120 C 
ENDBRANCH   1   4
BRANCH   1  10
ATOM     10  N   UNL d   1      30.885  16.591 -24.135  0.00  0.00    -0.144 NA
BRANCH  10  11
ATOM     11  C   UNL d   1      30.067  16.722 -24.043  0.00  0.00     0.121 C 
BRANCH  11  12
ATOM     12  C   UNL d   1      29.533  16.076 -24.014  0.00  0.00     0.185 C 
ATOM     13  O   UNL d   1      28.965  15.959 -24.658  0.00  0.00    -0.321 OA
ATOM     14  C   UNL d   1      28.381  15.453 -24.374  0.00  0.00     0.117 C 
ATOM     15  C   UNL d   1      28.413  15.453 -23.549  0.00  0.00     0.025 C 
ATOM     16  C   UNL d   1      29.022  15.963 -23.320  0.00  0.00     0.012 C 
ENDBRANCH  11  12
ENDBRANCH  10  11
ENDBRANCH   1  10
TORSDOF 4
ENDMDL
MODEL 5
REMARK VINA RESULT:      -2.1      2.039      4.757
REMARK  4 active torsions:
REMARK  status: ('A' for Active; 'I' for Inactive)
REMARK    1  A    between atoms: N_2  and  S_1 
REMARK    2  A    between atoms: N_3  and  S_1 
REMARK    3  A    between atoms: C_8  and  N_3 
REMARK    4  A    between atoms: C_6  and  C_8 
ROOT
ATOM      1  S   UNL d   1      32.959  18.147 -23.359  0.00  0.00     0.351 S 
ATOM      2  O   UNL d   1      32.889  18.700 -23.967  0.00  0.00    -0.180 OA
ATOM      3  O   UNL d   1      33.029  17.596 -22.752  0.00  0.00    -0.180 OA
ENDROOT
BRANCH   1   4
ATOM      4  N   UNL d   1      32.680  17.559 -23.867  0.00  0.00    -0.211 N 
ATOM      5  C   UNL d   1      32.066  17.069 -23.615  0.00  0.00     0.120 C 
ATOM      6  C   UNL d   1      31.790  16.484 -24.121  0.00  0.00     0.142 C 
ATOM      7  O   UNL d   1      32.192  16.315 -24.822  0.00  0.00    -0.300 OA
ATOM      8  C   UNL d   1      32.871  16.734 -25.015  0.00  0.00     0.142 C 
ATOM      9  C   UNL d   1      33.150  17.322 -24.507  0.00  0.00     0.120 C 
ENDBRANCH   1   4
BRANCH   1  10
ATOM     10  N   UNL d   1      33.241  18.686 -22.806  0.00  0.00    -0.144 NA
BRANCH  10  11
ATOM     11  C   UNL d   1      32.843  19.407 -22.675  0.00  0.00     0.121 C 
BRANCH  11  12
ATOM     12  C   UNL d   1      33.153  19.972 -22.138  0.00  0.00     0.185 C 
ATOM     13  O   UNL d   1      32.871  19.983 -21.317  0.00  0.00    -0.321 OA
ATOM     14  C   UNL d   1      33.081  20.714 -21.002  0.00  0.00     0.117 C 
ATOM     15  C   UNL d   1      33.240  21.232 -21.625  0.00  0.00     0.025 C 
ATOM     16  C   UNL d   1      33.128  20.818 -22.332  0.00  0.00     0.012 C 
ENDBRANCH  11  12
ENDBRANCH  10  11
ENDBRANCH   1  10
TORSDOF 4
ENDMDL
MODEL 6
REMARK VINA RESULT:      -2.0      1.244      1.857
REMARK  4 active torsions:
REMARK  status: ('A' for Active; 'I' for Inactive)
REMARK    1  A    between atoms: N_2  and  S_1 
REMARK    2  A    between atoms: N_3  and  S_1 
REMARK    3  A    between atoms: C_8  and  N_3 
REMARK    4  A    between atoms: C_6  and  C_8 
ROOT
ATOM      1  S   UNL d   1      33.187  19.851 -22.359  0.00  0.00     0.351 S 
ATOM      2  O   UNL d   1      33.240  20.222 -23.095  0.00  0.00    -0.180 OA
ATOM      3  O   UNL d   1      33.135  19.480 -21.627  0.00  0.00    -0.180 OA
ENDROOT
BRANCH   1   4
ATOM      4  N   UNL d   1      33.129  20.590 -21.995  0.00  0.00    -0.211 N 
ATOM      5  C   UNL d   1      32.818  20.637 -21.232  0.00  0.00     0.120 C 
ATOM      6  C   UNL d   1      32.760  21.373 -20.871  0.00  0.00     0.142 C 
ATOM      7  O   UNL d   1      32.905  22.062 -21.302  0.00  0.00    -0.300 OA
ATOM      8  C   UNL d   1      33.107  22.012 -22.096  0.00  0.00     0.142 C 
ATOM      9  C   UNL d   1      33.165  21.273 -22.460  0.00  0.00     0.120 C 
ENDBRANCH   1   4
BRANCH   1  10
ATOM     10  N   UNL d   1      33.241  19.088 -22.661  0.00  0.00    -0.144 NA
BRANCH  10  11
ATOM     11  C   UNL d   1      32.761  18.849 -23.300  0.00  0.00     0.121 C 
BRANCH  11  12
ATOM     12  C   UNL d   1      32.762  18.052 -23.558  0.00  0.00     0.185 C 
ATOM     13  O   UNL d   1      33.215  17.830 -24.264  0.00  0.00    -0.321 OA
ATOM     14  C   UNL d   1      32.929  17.099 -24.512  0.00  0.00     0.117 C 
ATOM     15  C   UNL d   1      32.187  16.978 -24.170  0.00  0.00     0.025 C 
ATOM     16  C   UNL d   1      32.012  17.640 -23.707  0.00  0.00     0.012 C 
ENDBRANCH  11  12
ENDBRANCH  10  11
ENDBRANCH   1  10
TORSDOF 4
ENDMDL
MODEL 7
REMARK VINA RESULT:      -1.9      1.826      4.438
REMARK  4 active torsions:
REMARK  status: ('A' for Active; 'I' for Inactive)
REMARK    1  A    between atoms: N_2  and  S_1 
REMARK    2  A    between atoms: N_3  and  S_1 
REMARK    3  A    between atoms: C_8  and  N_3 
REMARK    4  A    between atoms: C_6  and  C_8 
ROOT
ATOM      1  S   UNL d   1      32.679  22.165 -20.520  0.00  0.00     0.351 S 
ATOM      2  O   UNL d   1      33.240  22.770 -20.541  0.00  0.00    -0.180 OA
ATOM      3  O   UNL d   1      32.120  21.562 -20.499  0.00  0.00    -0.180 OA
ENDROOT
BRANCH   1   4
ATOM      4  N   UNL d   1      32.767  22.061 -21.335  0.00  0.00    -0.211 N 
ATOM      5  C   UNL d   1      32.990  21.320 -21.623  0.00  0.00     0.120 C 
ATOM      6  C   UNL d   1      33.078  21.218 -22.433  0.00  0.00     0.142 C 
ATOM      7  O   UNL d   1      33.055  21.869 -22.940  0.00  0.00    -0.300 OA
ATOM      8  C   UNL d   1      32.943  22.623 -22.634  0.00  0.00     0.142 C 
ATOM      9  C   UNL d   1      32.854  22.726 -21.819  0.00  0.00     0.120 C 
ENDBRANCH   1   4
BRANCH   1  10
ATOM     10  N   UNL d   1      32.546  22.219 -19.711  0.00  0.00    -0.144 NA
BRANCH  10  11
ATOM     11  C   UNL d   1      32.763  22.906 -19.290  0.00  0.00     0.121 C 
BRANCH  11  12
ATOM     12  C   UNL d   1      32.599  22.971 -18.470  0.00  0.00     0.185 C 
ATOM     13  O   UNL d   1      32.191  23.675 -18.169  0.00  0.00    -0.321 OA
ATOM     14  C   UNL d   1      32.319  23.697 -17.356  0.00  0.00     0.117 C 
ATOM     15  C   UNL d   1      32.966  23.215 -17.180  0.00  0.00     0.025 C 
ATOM     16  C   UNL d   1      33.241  22.892 -17.890  0.00  0.00     0.012 C 
ENDBRANCH  11  12
ENDBRANCH  10  11
ENDBRANCH   1  10
TORSDOF 4
ENDMDL
