MODEL 1
REMARK VINA RESULT:      -6.4      0.000      0.000
REMARK  4 active torsions:
REMARK  status: ('A' for Active; 'I' for Inactive)
REMARK    1  A    between atoms: C_7  and  C_4 
REMARK    2  A    between atoms: C_11  and  C_7 
REMARK    3  A    between atoms: C_9  and  O_16 
REMARK    4  A    between atoms: O_16  and  C_11 
ROOT
ATOM      1  C   UNL d   1     -48.071  14.390  22.811  0.00  0.00     0.124 C 
ENDROOT
BRANCH   1   2
ATOM      2  C   UNL d   1     -48.494  15.058  22.553  0.00  0.00     0.046 C 
BRANCH   2   3
ATOM      3  C   UNL d   1     -49.306  15.110  22.690  0.00  0.00     0.092 A 
ATOM      4  N   UNL d   1     -49.662  15.569  23.271  0.00  0.00    -0.219 NA
ATOM      5  C   UNL d   1     -50.478  15.454  23.211  0.00  0.00     0.215 A 
ATOM      6  S   UNL d   1     -50.617  14.929  22.599  0.00  0.00    -0.045 SA
ATOM      7  N   UNL d   1     -51.052  15.807  23.686  0.00  0.00    -0.120 N 
ATOM      8  C   UNL d   1     -49.895  14.712  22.272  0.00  0.00     0.058 A 
ENDBRANCH   2   3
ENDBRANCH   1   2
BRANCH   1   9
ATOM      9  O   UNL d   1     -47.262  14.447  22.932  0.00  0.00    -0.305 OA
BRANCH   9  10
ATOM     10  C   UNL d   1     -46.804  13.758  22.973  0.00  0.00     0.100 A 
ATOM     11  C   UNL d   1     -46.133  13.688  22.509  0.00  0.00     0.027 A 
ATOM     12  C   UNL d   1     -45.676  13.000  22.550  0.00  0.00     0.032 A 
ATOM     13  C   UNL d   1     -45.893  12.385  23.055  0.00  0.00     0.140 A 
ATOM     14  C   UNL d   1     -46.568  12.454  23.523  0.00  0.00     0.032 A 
ATOM     15  F   UNL d   1     -45.431  11.698  23.092  0.00  0.00    -0.204 F 
ATOM     16  C   UNL d   1     -47.024  13.137  23.484  0.00  0.00     0.027 A 
ENDBRANCH   9  10
ENDBRANCH   1   9
TORSDOF 4
ENDMDL
MODEL 2
REMARK VINA RESULT:      -5.8      3.055      4.479
REMARK  4 active torsions:
REMARK  status: ('A' for Active; 'I' for Inactive)
REMARK    1  A    between atoms: C_7  and  C_4 
REMARK    2  A    between atoms: C_11  and  C_7 
REMARK    3  A    between atoms: C_9  and  O_16 
REMARK    4  A    between atoms: O_16  and  C_11 
ROOT
ATOM      1  C   UNL d   1     -47.540  13.312  22.871  0.00  0.00     0.124 C 
ENDROOT
BRANCH   1   2
ATOM      2  C   UNL d   1     -46.884  13.175  23.365  0.00  0.00     0.046 C 
BRANCH   2   3
ATOM      3  C   UNL d   1     -46.585  12.411  23.449  0.00  0.00     0.092 A 
ATOM      4  N   UNL d   1     -45.810  12.183  23.295  0.00  0.00    -0.219 NA
ATOM      5  C   UNL d   1     -45.755  11.374  23.451  0.00  0.00     0.215 A 
ATOM      6  S   UNL d   1     -46.490  11.110  23.698  0.00  0.00    -0.045 SA
ATOM      7  N   UNL d   1     -45.077  10.911  23.373  0.00  0.00    -0.120 N 
ATOM      8  C   UNL d   1     -47.008  11.748  23.698  0.00  0.00     0.058 A 
ENDBRANCH   2   3
ENDBRANCH   1   2
BRANCH   1   9
ATOM      9  O   UNL d   1     -47.830  14.074  22.790  0.00  0.00    -0.305 OA
BRANCH   9  10
ATOM     10  C   UNL d   1     -48.600  14.191  22.508  0.00  0.00     0.100 A 
ATOM     11  C   UNL d   1     -49.102  14.706  22.899  0.00  0.00     0.027 A 
ATOM     12  C   UNL d   1     -49.871  14.823  22.617  0.00  0.00     0.032 A 
ATOM     13  C   UNL d   1     -50.133  14.424  21.945  0.00  0.00     0.140 A 
ATOM     14  C   UNL d   1     -49.629  13.905  21.550  0.00  0.00     0.032 A 
ATOM     15  F   UNL d   1     -50.905  14.545  21.667  0.00  0.00    -0.204 F 
ATOM     16  C   UNL d   1     -48.865  13.788  21.828  0.00  0.00     0.027 A 
ENDBRANCH   9  10
ENDBRANCH   1   9
TORSDOF 4
ENDMDL
MODEL 3
REMARK VINA RESULT:      -5.8      1.801      2.024
REMARK  4 active torsions:
REMARK  status: ('A' for Active; 'I' for Inactive)
REMARK    1  A    between atoms: C_7  and  C_4 
REMARK    2  A    between atoms: C_11  and  C_7 
REMARK    3  A    between atoms: C_9  and  O_16 
REMARK    4  A    between atoms: O_16  and  C_11 
ROOT
ATOM      1  C   UNL d   1     -48.290  12.933  23.081  0.00  0.00     0.124 C 
ENDROOT
BRANCH   1   2
ATOM      2  C   UNL d   1     -49.016  12.815  23.470  0.00  0.00     0.046 C 
BRANCH   2   3
ATOM      3  C   UNL d   1     -49.718  12.812  23.038  0.00  0.00     0.092 A 
ATOM      4  N   UNL d   1     -49.903  13.329  22.426  0.00  0.00    -0.219 NA
ATOM      5  C   UNL d   1     -50.656  13.129  22.153  0.00  0.00     0.215 A 
ATOM      6  S   UNL d   1     -50.929  12.496  22.595  0.00  0.00    -0.045 SA
ATOM      7  N   UNL d   1     -51.064  13.503  21.542  0.00  0.00    -0.120 N 
ATOM      8  C   UNL d   1     -50.351  12.295  23.145  0.00  0.00     0.058 A 
ENDBRANCH   2   3
ENDBRANCH   1   2
BRANCH   1   9
ATOM      9  O   UNL d   1     -47.611  13.057  23.524  0.00  0.00    -0.305 OA
BRANCH   9  10
ATOM     10  C   UNL d   1     -46.889  13.183  23.139  0.00  0.00     0.100 A 
ATOM     11  C   UNL d   1     -46.415  12.545  22.942  0.00  0.00     0.027 A 
ATOM     12  C   UNL d   1     -45.693  12.671  22.558  0.00  0.00     0.032 A 
ATOM     13  C   UNL d   1     -45.450  13.437  22.372  0.00  0.00     0.140 A 
ATOM     14  C   UNL d   1     -45.925  14.081  22.569  0.00  0.00     0.032 A 
ATOM     15  F   UNL d   1     -44.725  13.558  21.987  0.00  0.00    -0.204 F 
ATOM     16  C   UNL d   1     -46.642  13.958  22.951  0.00  0.00     0.027 A 
ENDBRANCH   9  10
ENDBRANCH   1   9
TORSDOF 4
ENDMDL
MODEL 4
REMARK VINA RESULT:      -5.5      3.105      4.413
REMARK  4 active torsions:
REMARK  status: ('A' for Active; 'I' for Inactive)
REMARK    1  A    between atoms: C_7  and  C_4 
REMARK    2  A    between atoms: C_11  and  C_7 
REMARK    3  A    between atoms: C_9  and  O_16 
REMARK    4  A    between atoms: O_16  and  C_11 
ROOT
ATOM      1  C   UNL d   1     -47.538  13.285  22.604  0.00  0.00     0.124 C 
ENDROOT
BRANCH   1   2
ATOM      2  C   UNL d   1     -46.823  13.548  22.938  0.00  0.00     0.046 C 
BRANCH   2   3
ATOM      3  C   UNL d   1     -46.111  13.197  22.713  0.00  0.00     0.092 A 
ATOM      4  N   UNL d   1     -45.558  13.527  22.203  0.00  0.00    -0.219 NA
ATOM      5  C   UNL d   1     -44.934  12.990  22.134  0.00  0.00     0.215 A 
ATOM      6  S   UNL d   1     -45.106  12.339  22.599  0.00  0.00    -0.045 SA
ATOM      7  N   UNL d   1     -44.256  13.092  21.676  0.00  0.00    -0.120 N 
ATOM      8  C   UNL d   1     -45.834  12.461  22.961  0.00  0.00     0.058 A 
ENDBRANCH   2   3
ENDBRANCH   1   2
BRANCH   1   9
ATOM      9  O   UNL d   1     -48.242  13.641  22.829  0.00  0.00    -0.305 OA
BRANCH   9  10
ATOM     10  C   UNL d   1     -48.949  13.420  22.458  0.00  0.00     0.100 A 
ATOM     11  C   UNL d   1     -49.173  13.785  21.760  0.00  0.00     0.027 A 
ATOM     12  C   UNL d   1     -49.879  13.565  21.389  0.00  0.00     0.032 A 
ATOM     13  C   UNL d   1     -50.358  12.980  21.719  0.00  0.00     0.140 A 
ATOM     14  C   UNL d   1     -50.134  12.611  22.422  0.00  0.00     0.032 A 
ATOM     15  F   UNL d   1     -51.064  12.763  21.343  0.00  0.00    -0.204 F 
ATOM     16  C   UNL d   1     -49.433  12.828  22.792  0.00  0.00     0.027 A 
ENDBRANCH   9  10
ENDBRANCH   1   9
TORSDOF 4
ENDMDL
MODEL 5
REMARK VINA RESULT:      -5.1      8.540      9.048
REMARK  4 active torsions:
REMARK  status: ('A' for Active; 'I' for Inactive)
REMARK    1  A    between atoms: C_7  and  C_4 
REMARK    2  A    between atoms: C_11  and  C_7 
REMARK    3  A    between atoms: C_9  and  O_16 
REMARK    4  A    between atoms: O_16  and  C_11 
ROOT
ATOM      1  C   UNL d   1     -40.279  14.806  19.178  0.00  0.00     0.124 C 
ENDROOT
BRANCH   1   2
ATOM      2  C   UNL d   1     -40.567  14.438  18.489  0.00  0.00     0.046 C 
BRANCH   2   3
ATOM      3  C   UNL d   1     -40.621  14.867  17.787  0.00  0.00     0.092 A 
ATOM      4  N   UNL d   1     -41.316  15.151  17.454  0.00  0.00    -0.219 NA
ATOM      5  C   UNL d   1     -41.114  15.546  16.757  0.00  0.00     0.215 A 
ATOM      6  S   UNL d   1     -40.302  15.502  16.666  0.00  0.00    -0.045 SA
ATOM      7  N   UNL d   1     -41.639  15.919  16.242  0.00  0.00    -0.120 N 
ATOM      8  C   UNL d   1     -39.991  15.082  17.301  0.00  0.00     0.058 A 
ENDBRANCH   2   3
ENDBRANCH   1   2
BRANCH   1   9
ATOM      9  O   UNL d   1     -40.501  14.515  19.912  0.00  0.00    -0.305 OA
BRANCH   9  10
ATOM     10  C   UNL d   1     -40.201  14.866  20.599  0.00  0.00     0.100 A 
ATOM     11  C   UNL d   1     -40.524  15.567  20.873  0.00  0.00     0.027 A 
ATOM     12  C   UNL d   1     -40.225  15.918  21.559  0.00  0.00     0.032 A 
ATOM     13  C   UNL d   1     -39.602  15.565  21.969  0.00  0.00     0.140 A 
ATOM     14  C   UNL d   1     -39.275  14.859  21.695  0.00  0.00     0.032 A 
ATOM     15  F   UNL d   1     -39.306  15.922  22.656  0.00  0.00    -0.204 F 
ATOM     16  C   UNL d   1     -39.571  14.510  21.014  0.00  0.00     0.027 A 
ENDBRANCH   9  10
ENDBRANCH   1   9
TORSDOF 4
ENDMDL
MODEL 6
REMARK VINA RESULT:      -5.0      8.364      9.583
REMARK  4 active torsions:
REMARK  status: ('A' for Active; 'I' for Inactive)
REMARK    1  A    between atoms: C_7  and  C_4 
REMARK    2  A    between atoms: C_11  and  C_7 
REMARK    3  A    between atoms: C_9  and  O_16 
REMARK    4  A    between atoms: O_16  and  C_11 
ROOT
ATOM      1  C   UNL d   1     -40.150  14.457  18.979  0.00  0.00     0.124 C 
ENDROOT
BRANCH   1   2
ATOM      2  C   UNL d   1     -40.589  14.343  19.677  0.00  0.00     0.046 C 
BRANCH   2   3
ATOM      3  C   UNL d   1     -40.558  14.907  20.277  0.00  0.00     0.092 A 
ATOM      4  N   UNL d   1     -39.952  14.985  20.828  0.00  0.00    -0.219 NA
ATOM      5  C   UNL d   1     -40.146  15.617  21.322  0.00  0.00     0.215 A 
ATOM      6  S   UNL d   1     -40.865  15.922  21.076  0.00  0.00    -0.045 SA
ATOM      7  N   UNL d   1     -39.695  15.893  21.955  0.00  0.00    -0.120 N 
ATOM      8  C   UNL d   1     -41.125  15.486  20.429  0.00  0.00     0.058 A 
ENDBRANCH   2   3
ENDBRANCH   1   2
BRANCH   1   9
ATOM      9  O   UNL d   1     -40.214  13.910  18.370  0.00  0.00    -0.305 OA
BRANCH   9  10
ATOM     10  C   UNL d   1     -39.691  13.949  17.729  0.00  0.00     0.100 A 
ATOM     11  C   UNL d   1     -39.102  13.385  17.649  0.00  0.00     0.027 A 
ATOM     12  C   UNL d   1     -38.580  13.423  17.009  0.00  0.00     0.032 A 
ATOM     13  C   UNL d   1     -38.649  14.027  16.452  0.00  0.00     0.140 A 
ATOM     14  C   UNL d   1     -39.241  14.596  16.530  0.00  0.00     0.032 A 
ATOM     15  F   UNL d   1     -38.123  14.061  15.812  0.00  0.00    -0.204 F 
ATOM     16  C   UNL d   1     -39.761  14.559  17.165  0.00  0.00     0.027 A 
ENDBRANCH   9  10
ENDBRANCH   1   9
TORSDOF 4
ENDMDL
MODEL 7
REMARK VINA RESULT:      -4.8      8.596      9.368
REMARK  4 active torsions:
REMARK  status: ('A' for Active; 'I' for Inactive)
REMARK    1  A    between atoms: C_7  and  C_4 
REMARK    2  A    between atoms: C_11  and  C_7 
REMARK    3  A    between atoms: C_9  and  O_16 
REMARK    4  A    between atoms: O_16  and  C_11 
ROOT
ATOM      1  C   UNL d   1     -40.196  14.527  19.896  0.00  0.00     0.124 C 
ENDROOT
BRANCH   1   2
ATOM      2  C   UNL d   1     -40.444  14.428  20.683  0.00  0.00     0.046 C 
BRANCH   2   3
ATOM      3  C   UNL d   1     -39.933  14.618  21.302  0.00  0.00     0.092 A 
ATOM      4  N   UNL d   1     -39.827  15.368  21.620  0.00  0.00    -0.219 NA
ATOM      5  C   UNL d   1     -39.268  15.305  22.225  0.00  0.00     0.215 A 
ATOM      6  S   UNL d   1     -39.034  14.521  22.275  0.00  0.00    -0.045 SA
ATOM      7  N   UNL d   1     -38.992  15.922  22.696  0.00  0.00    -0.120 N 
ATOM      8  C   UNL d   1     -39.443  14.091  21.706  0.00  0.00     0.058 A 
ENDBRANCH   2   3
ENDBRANCH   1   2
BRANCH   1   9
ATOM      9  O   UNL d   1     -40.699  14.313  19.285  0.00  0.00    -0.305 OA
BRANCH   9  10
ATOM     10  C   UNL d   1     -40.498  14.500  18.504  0.00  0.00     0.100 A 
ATOM     11  C   UNL d   1     -39.943  14.047  18.107  0.00  0.00     0.027 A 
ATOM     12  C   UNL d   1     -39.741  14.234  17.327  0.00  0.00     0.032 A 
ATOM     13  C   UNL d   1     -40.098  14.873  16.947  0.00  0.00     0.140 A 
ATOM     14  C   UNL d   1     -40.658  15.330  17.344  0.00  0.00     0.032 A 
ATOM     15  F   UNL d   1     -39.893  15.055  16.164  0.00  0.00    -0.204 F 
ATOM     16  C   UNL d   1     -40.859  15.146  18.119  0.00  0.00     0.027 A 
ENDBRANCH   9  10
ENDBRANCH   1   9
TORSDOF 4
ENDMDL
MODEL 8
REMARK VINA RESULT:      -4.5      8.723      9.937
REMARK  4 active torsions:
REMARK  status: ('A' for Active; 'I' for Inactive)
REMARK    1  A    between atoms: C_7  and  C_4 
REMARK    2  A    between atoms: C_11  and  C_7 
REMARK    3  A    between atoms: C_9  and  O_16 
REMARK    4  A    between atoms: O_16  and  C_11 
ROOT
ATOM      1  C   UNL d   1     -39.967  14.733  18.621  0.00  0.00     0.124 C 
ENDROOT
BRANCH   1   2
ATOM      2  C   UNL d   1     -40.106  14.373  17.884  0.00  0.00     0.046 C 
BRANCH   2   3
ATOM      3  C   UNL d   1     -39.476  14.054  17.457  0.00  0.00     0.092 A 
ATOM      4  N   UNL d   1     -39.151  13.307  17.572  0.00  0.00    -0.219 NA
ATOM      5  C   UNL d   1     -38.537  13.218  17.028  0.00  0.00     0.215 A 
ATOM      6  S   UNL d   1     -38.487  13.905  16.585  0.00  0.00    -0.045 SA
ATOM      7  N   UNL d   1     -38.056  12.553  16.945  0.00  0.00    -0.120 N 
ATOM      8  C   UNL d   1     -39.066  14.426  16.846  0.00  0.00     0.058 A 
ENDBRANCH   2   3
ENDBRANCH   1   2
BRANCH   1   9
ATOM      9  O   UNL d   1     -40.603  14.997  19.066  0.00  0.00    -0.305 OA
BRANCH   9  10
ATOM     10  C   UNL d   1     -40.491  15.193  19.863  0.00  0.00     0.100 A 
ATOM     11  C   UNL d   1     -39.906  15.726  20.073  0.00  0.00     0.027 A 
ATOM     12  C   UNL d   1     -39.794  15.922  20.868  0.00  0.00     0.032 A 
ATOM     13  C   UNL d   1     -40.270  15.583  21.451  0.00  0.00     0.140 A 
ATOM     14  C   UNL d   1     -40.861  15.047  21.242  0.00  0.00     0.032 A 
ATOM     15  F   UNL d   1     -40.154  15.784  22.247  0.00  0.00    -0.204 F 
ATOM     16  C   UNL d   1     -40.973  14.851  20.452  0.00  0.00     0.027 A 
ENDBRANCH   9  10
ENDBRANCH   1   9
TORSDOF 4
ENDMDL
