MODEL 1
REMARK VINA RESULT:      28.5      0.000      0.000
REMARK  0 active torsions:
REMARK  status: ('A' for Active; 'I' for Inactive)
ROOT
ATOM      1  C   UNL d   1      13.628  12.433  -2.616  0.00  0.00     0.166 A 
ATOM      2  C   UNL d   1      13.892  13.216  -2.647  0.00  0.00     0.117 A 
ATOM      3  N   UNL d   1      13.209  12.268  -3.314  0.00  0.00    -0.288 N 
ATOM      4  C   UNL d   1      13.637  13.538  -3.365  0.00  0.00     0.037 A 
ATOM      5  N   UNL d   1      13.793  11.952  -1.963  0.00  0.00    -0.225 NA
ATOM      6  C   UNL d   1      13.222  12.953  -3.762  0.00  0.00     0.067 A 
ATOM      7  N   UNL d   1      14.324  13.519  -2.021  0.00  0.00    -0.241 NA
ATOM      8  C   UNL d   1      14.226  12.256  -1.336  0.00  0.00     0.101 A 
ATOM      9  C   UNL d   1      14.492  13.044  -1.367  0.00  0.00     0.099 A 
ATOM     10  C   UNL d   1      12.897  13.129  -4.514  0.00  0.00     0.018 A 
ATOM     11  C   UNL d   1      13.742  14.303  -3.690  0.00  0.00     0.003 A 
ATOM     12  C   UNL d   1      12.771  11.779  -3.823  0.00  0.00     0.101 C 
ATOM     13  C   UNL d   1      13.425  14.464  -4.417  0.00  0.00     0.000 A 
ATOM     14  C   UNL d   1      13.014  13.889  -4.814  0.00  0.00     0.002 A 
ATOM     15  C   UNL d   1      14.909  13.318  -0.749  0.00  0.00     0.021 A 
ATOM     16  C   UNL d   1      14.393  11.779  -0.683  0.00  0.00     0.021 A 
ATOM     17  C   UNL d   1      13.480  15.149  -4.784  0.00  0.00     0.000 C 
ATOM     18  C   UNL d   1      15.087  12.863  -0.090  0.00  0.00     0.002 A 
ATOM     19  C   UNL d   1      14.823  12.081  -0.059  0.00  0.00     0.002 A 
ENDROOT
TORSDOF 0
ENDMDL
