MODEL 1
REMARK VINA RESULT:      -9.4      0.000      0.000
REMARK  3 active torsions:
REMARK  status: ('A' for Active; 'I' for Inactive)
REMARK    1  A    between atoms: C_17  and  N_4 
REMARK    2  A    between atoms: C_11  and  C_5 
REMARK       I    between atoms: N_13  and  C_11 
REMARK    3  A    between atoms: C_21  and  N_13 
ROOT
ATOM      1  C   UNL d   1      52.656  33.345  53.646  0.00  0.00     0.155 A 
ATOM      2  C   UNL d   1      52.487  34.147  53.727  0.00  0.00     0.091 A 
ATOM      3  N   UNL d   1      53.313  33.030  54.037  0.00  0.00    -0.210 NA
ATOM      4  N   UNL d   1      52.183  32.877  53.188  0.00  0.00    -0.275 N 
ATOM      5  C   UNL d   1      51.360  33.986  52.879  0.00  0.00     0.094 A 
ATOM      6  C   UNL d   1      51.529  33.190  52.799  0.00  0.00     0.175 A 
ATOM      7  N   UNL d   1      53.625  34.312  54.585  0.00  0.00    -0.258 N 
ATOM      8  C   UNL d   1      53.797  33.500  54.503  0.00  0.00     0.152 A 
ATOM      9  C   UNL d   1      52.973  34.638  54.200  0.00  0.00     0.269 A 
ATOM     10  C   UNL d   1      51.834  34.471  53.342  0.00  0.00     0.016 A 
ATOM     11  C   UNL d   1      54.441  33.182  54.885  0.00  0.00     0.035 A 
ATOM     12  N   UNL d   1      51.046  32.710  52.331  0.00  0.00    -0.128 N 
ATOM     13  C   UNL d   1      54.101  34.791  55.047  0.00  0.00     0.084 A 
ATOM     14  O   UNL d   1      52.796  35.433  54.274  0.00  0.00    -0.266 OA
ATOM     15  C   UNL d   1      54.754  34.464  55.433  0.00  0.00     0.019 A 
ATOM     16  C   UNL d   1      54.926  33.652  55.351  0.00  0.00     0.005 A 
ATOM     17  C   UNL d   1      54.611  32.379  54.803  0.00  0.00     0.003 C 
ENDROOT
BRANCH   5  18
ATOM     18  C   UNL d   1      50.709  34.308  52.493  0.00  0.00     0.282 C 
ATOM     19  N   UNL d   1      50.006  34.460  52.907  0.00  0.00    -0.208 NA
ATOM     20  O   UNL d   1      50.753  34.484  51.677  0.00  0.00    -0.265 OA
BRANCH  19  21
ATOM     21  C   UNL d   1      49.358  34.782  52.511  0.00  0.00     0.085 A 
ATOM     22  C   UNL d   1      48.907  35.413  52.777  0.00  0.00     0.019 A 
ATOM     23  C   UNL d   1      48.319  35.547  52.206  0.00  0.00     0.002 A 
ATOM     24  C   UNL d   1      48.417  34.997  51.598  0.00  0.00     0.002 A 
ATOM     25  C   UNL d   1      49.055  34.527  51.784  0.00  0.00     0.019 A 
ENDBRANCH  19  21
ENDBRANCH   5  18
BRANCH   4  26
ATOM     26  C   UNL d   1      52.352  32.073  53.107  0.00  0.00     0.067 A 
ATOM     27  C   UNL d   1      52.891  31.750  52.572  0.00  0.00     0.018 A 
ATOM     28  C   UNL d   1      52.886  30.936  52.679  0.00  0.00     0.002 A 
ATOM     29  C   UNL d   1      52.343  30.744  53.283  0.00  0.00     0.002 A 
ATOM     30  C   UNL d   1      52.017  31.455  53.542  0.00  0.00     0.018 A 
ENDBRANCH   4  26
TORSDOF 3
ENDMDL
MODEL 2
REMARK VINA RESULT:      -9.0      1.180      2.602
REMARK  3 active torsions:
REMARK  status: ('A' for Active; 'I' for Inactive)
REMARK    1  A    between atoms: C_17  and  N_4 
REMARK    2  A    between atoms: C_11  and  C_5 
REMARK       I    between atoms: N_13  and  C_11 
REMARK    3  A    between atoms: C_21  and  N_13 
ROOT
ATOM      1  C   UNL d   1      52.352  33.481  53.415  0.00  0.00     0.155 A 
ATOM      2  C   UNL d   1      51.857  32.948  53.031  0.00  0.00     0.091 A 
ATOM      3  N   UNL d   1      53.082  33.219  53.704  0.00  0.00    -0.210 NA
ATOM      4  N   UNL d   1      52.123  34.251  53.508  0.00  0.00    -0.275 N 
ATOM      5  C   UNL d   1      50.905  33.983  52.838  0.00  0.00     0.094 A 
ATOM      6  C   UNL d   1      51.397  34.513  53.221  0.00  0.00     0.175 A 
ATOM      7  N   UNL d   1      52.817  31.900  53.224  0.00  0.00    -0.258 N 
ATOM      8  C   UNL d   1      53.319  32.440  53.614  0.00  0.00     0.152 A 
ATOM      9  C   UNL d   1      52.088  32.149  52.932  0.00  0.00     0.269 A 
ATOM     10  C   UNL d   1      51.128  33.200  52.739  0.00  0.00     0.016 A 
ATOM     11  C   UNL d   1      54.038  32.189  53.901  0.00  0.00     0.035 A 
ATOM     12  N   UNL d   1      51.165  35.299  53.315  0.00  0.00    -0.128 N 
ATOM     13  C   UNL d   1      53.044  31.119  53.128  0.00  0.00     0.084 A 
ATOM     14  O   UNL d   1      51.589  31.627  52.548  0.00  0.00    -0.266 OA
ATOM     15  C   UNL d   1      53.774  30.869  53.420  0.00  0.00     0.019 A 
ATOM     16  C   UNL d   1      54.276  31.409  53.810  0.00  0.00     0.005 A 
ATOM     17  C   UNL d   1      54.534  32.724  54.286  0.00  0.00     0.003 C 
ENDROOT
BRANCH   5  18
ATOM     18  C   UNL d   1      50.178  34.236  52.548  0.00  0.00     0.282 C 
ATOM     19  N   UNL d   1      50.049  34.299  51.731  0.00  0.00    -0.208 NA
ATOM     20  O   UNL d   1      49.563  34.433  53.079  0.00  0.00    -0.265 OA
BRANCH  19  21
ATOM     21  C   UNL d   1      49.316  34.554  51.450  0.00  0.00     0.085 A 
ATOM     22  C   UNL d   1      48.996  34.360  50.721  0.00  0.00     0.019 A 
ATOM     23  C   UNL d   1      48.257  34.736  50.674  0.00  0.00     0.002 A 
ATOM     24  C   UNL d   1      48.134  35.156  51.375  0.00  0.00     0.002 A 
ATOM     25  C   UNL d   1      48.784  35.044  51.852  0.00  0.00     0.019 A 
ENDBRANCH  19  21
ENDBRANCH   5  18
BRANCH   4  26
ATOM     26  C   UNL d   1      52.619  34.785  53.893  0.00  0.00     0.067 A 
ATOM     27  C   UNL d   1      53.187  35.262  53.528  0.00  0.00     0.018 A 
ATOM     28  C   UNL d   1      53.550  35.704  54.115  0.00  0.00     0.002 A 
ATOM     29  C   UNL d   1      53.214  35.509  54.853  0.00  0.00     0.002 A 
ATOM     30  C   UNL d   1      52.638  34.938  54.706  0.00  0.00     0.018 A 
ENDBRANCH   4  26
TORSDOF 3
ENDMDL
MODEL 3
REMARK VINA RESULT:      -8.2      1.858      4.782
REMARK  3 active torsions:
REMARK  status: ('A' for Active; 'I' for Inactive)
REMARK    1  A    between atoms: C_17  and  N_4 
REMARK    2  A    between atoms: C_11  and  C_5 
REMARK       I    between atoms: N_13  and  C_11 
REMARK    3  A    between atoms: C_21  and  N_13 
ROOT
ATOM      1  C   UNL d   1      53.097  32.922  53.785  0.00  0.00     0.155 A 
ATOM      2  C   UNL d   1      52.544  32.398  53.473  0.00  0.00     0.091 A 
ATOM      3  N   UNL d   1      52.954  33.736  53.739  0.00  0.00    -0.210 NA
ATOM      4  N   UNL d   1      53.771  32.640  54.131  0.00  0.00    -0.275 N 
ATOM      5  C   UNL d   1      53.365  31.310  53.868  0.00  0.00     0.094 A 
ATOM      6  C   UNL d   1      53.914  31.830  54.178  0.00  0.00     0.175 A 
ATOM      7  N   UNL d   1      51.713  33.497  53.072  0.00  0.00    -0.258 N 
ATOM      8  C   UNL d   1      52.273  34.028  53.389  0.00  0.00     0.152 A 
ATOM      9  C   UNL d   1      51.844  32.684  53.112  0.00  0.00     0.269 A 
ATOM     10  C   UNL d   1      52.678  31.586  53.514  0.00  0.00     0.016 A 
ATOM     11  C   UNL d   1      52.139  34.829  53.347  0.00  0.00     0.035 A 
ATOM     12  N   UNL d   1      54.602  31.543  54.532  0.00  0.00    -0.128 N 
ATOM     13  C   UNL d   1      51.029  33.778  52.720  0.00  0.00     0.084 A 
ATOM     14  O   UNL d   1      51.301  32.155  52.805  0.00  0.00    -0.266 OA
ATOM     15  C   UNL d   1      50.898  34.592  52.680  0.00  0.00     0.019 A 
ATOM     16  C   UNL d   1      51.458  35.122  52.997  0.00  0.00     0.005 A 
ATOM     17  C   UNL d   1      52.693  35.354  53.660  0.00  0.00     0.003 C 
ENDROOT
BRANCH   5  18
ATOM     18  C   UNL d   1      53.500  30.499  53.910  0.00  0.00     0.282 C 
ATOM     19  N   UNL d   1      53.116  30.037  54.481  0.00  0.00    -0.208 NA
ATOM     20  O   UNL d   1      54.029  30.137  53.373  0.00  0.00    -0.265 OA
BRANCH  19  21
ATOM     21  C   UNL d   1      53.258  29.225  54.515  0.00  0.00     0.085 A 
ATOM     22  C   UNL d   1      53.108  28.692  53.910  0.00  0.00     0.019 A 
ATOM     23  C   UNL d   1      53.334  27.943  54.186  0.00  0.00     0.002 A 
ATOM     24  C   UNL d   1      53.621  28.025  54.957  0.00  0.00     0.002 A 
ATOM     25  C   UNL d   1      53.574  28.812  55.159  0.00  0.00     0.019 A 
ENDBRANCH  19  21
ENDBRANCH   5  18
BRANCH   4  26
ATOM     26  C   UNL d   1      54.325  33.165  54.444  0.00  0.00     0.067 A 
ATOM     27  C   UNL d   1      54.327  33.454  55.218  0.00  0.00     0.018 A 
ATOM     28  C   UNL d   1      54.971  33.956  55.290  0.00  0.00     0.002 A 
ATOM     29  C   UNL d   1      55.378  33.985  54.563  0.00  0.00     0.002 A 
ATOM     30  C   UNL d   1      54.970  33.491  54.044  0.00  0.00     0.018 A 
ENDBRANCH   4  26
TORSDOF 3
ENDMDL
MODEL 4
REMARK VINA RESULT:      -7.8     10.010     11.101
REMARK  3 active torsions:
REMARK  status: ('A' for Active; 'I' for Inactive)
REMARK    1  A    between atoms: C_17  and  N_4 
REMARK    2  A    between atoms: C_11  and  C_5 
REMARK       I    between atoms: N_13  and  C_11 
REMARK    3  A    between atoms: C_21  and  N_13 
ROOT
ATOM      1  C   UNL d   1      44.769  29.145  59.447  0.00  0.00     0.155 A 
ATOM      2  C   UNL d   1      44.720  28.360  59.688  0.00  0.00     0.091 A 
ATOM      3  N   UNL d   1      44.692  29.746  60.011  0.00  0.00    -0.210 NA
ATOM      4  N   UNL d   1      44.890  29.322  58.668  0.00  0.00    -0.275 N 
ATOM      5  C   UNL d   1      44.918  27.944  58.346  0.00  0.00     0.094 A 
ATOM      6  C   UNL d   1      44.967  28.725  58.107  0.00  0.00     0.175 A 
ATOM      7  N   UNL d   1      44.519  28.777  61.046  0.00  0.00    -0.258 N 
ATOM      8  C   UNL d   1      44.569  29.573  60.802  0.00  0.00     0.152 A 
ATOM      9  C   UNL d   1      44.594  28.169  60.494  0.00  0.00     0.269 A 
ATOM     10  C   UNL d   1      44.795  27.753  59.135  0.00  0.00     0.016 A 
ATOM     11  C   UNL d   1      44.494  30.169  61.351  0.00  0.00     0.035 A 
ATOM     12  N   UNL d   1      45.091  28.907  57.311  0.00  0.00    -0.128 N 
ATOM     13  C   UNL d   1      44.396  28.592  61.834  0.00  0.00     0.084 A 
ATOM     14  O   UNL d   1      44.547  27.385  60.723  0.00  0.00    -0.266 OA
ATOM     15  C   UNL d   1      44.321  29.201  62.387  0.00  0.00     0.019 A 
ATOM     16  C   UNL d   1      44.371  29.996  62.143  0.00  0.00     0.005 A 
ATOM     17  C   UNL d   1      44.543  30.956  61.109  0.00  0.00     0.003 C 
ENDROOT
BRANCH   5  18
ATOM     18  C   UNL d   1      44.994  27.341  57.791  0.00  0.00     0.282 C 
ATOM     19  N   UNL d   1      44.346  26.859  57.601  0.00  0.00    -0.208 NA
ATOM     20  O   UNL d   1      45.729  27.210  57.415  0.00  0.00    -0.265 OA
BRANCH  19  21
ATOM     21  C   UNL d   1      44.431  26.257  57.044  0.00  0.00     0.085 A 
ATOM     22  C   UNL d   1      44.627  25.479  57.214  0.00  0.00     0.019 A 
ATOM     23  C   UNL d   1      44.652  25.072  56.491  0.00  0.00     0.002 A 
ATOM     24  C   UNL d   1      44.471  25.606  55.887  0.00  0.00     0.002 A 
ATOM     25  C   UNL d   1      44.335  26.333  56.226  0.00  0.00     0.019 A 
ENDBRANCH  19  21
ENDBRANCH   5  18
BRANCH   4  26
ATOM     26  C   UNL d   1      44.939  30.109  58.427  0.00  0.00     0.067 A 
ATOM     27  C   UNL d   1      44.314  30.557  58.124  0.00  0.00     0.018 A 
ATOM     28  C   UNL d   1      44.607  31.305  57.957  0.00  0.00     0.002 A 
ATOM     29  C   UNL d   1      45.417  31.332  58.153  0.00  0.00     0.002 A 
ATOM     30  C   UNL d   1      45.614  30.586  58.444  0.00  0.00     0.018 A 
ENDBRANCH   4  26
TORSDOF 3
ENDMDL
MODEL 5
REMARK VINA RESULT:      -7.3      1.705      4.094
REMARK  3 active torsions:
REMARK  status: ('A' for Active; 'I' for Inactive)
REMARK    1  A    between atoms: C_17  and  N_4 
REMARK    2  A    between atoms: C_11  and  C_5 
REMARK       I    between atoms: N_13  and  C_11 
REMARK    3  A    between atoms: C_21  and  N_13 
ROOT
ATOM      1  C   UNL d   1      52.899  33.345  53.870  0.00  0.00     0.155 A 
ATOM      2  C   UNL d   1      53.516  32.997  54.289  0.00  0.00     0.091 A 
ATOM      3  N   UNL d   1      52.779  34.161  53.933  0.00  0.00    -0.210 NA
ATOM      4  N   UNL d   1      52.420  32.891  53.404  0.00  0.00    -0.275 N 
ATOM      5  C   UNL d   1      53.151  31.732  53.758  0.00  0.00     0.094 A 
ATOM      6  C   UNL d   1      52.538  32.079  53.341  0.00  0.00     0.175 A 
ATOM      7  N   UNL d   1      53.887  34.274  54.828  0.00  0.00    -0.258 N 
ATOM      8  C   UNL d   1      53.262  34.627  54.404  0.00  0.00     0.152 A 
ATOM      9  C   UNL d   1      54.017  33.461  54.774  0.00  0.00     0.269 A 
ATOM     10  C   UNL d   1      53.644  32.184  54.233  0.00  0.00     0.016 A 
ATOM     11  C   UNL d   1      53.137  35.429  54.460  0.00  0.00     0.035 A 
ATOM     12  N   UNL d   1      52.048  31.616  52.865  0.00  0.00    -0.128 N 
ATOM     13  C   UNL d   1      54.375  34.729  55.301  0.00  0.00     0.084 A 
ATOM     14  O   UNL d   1      54.627  33.105  55.186  0.00  0.00    -0.266 OA
ATOM     15  C   UNL d   1      54.245  35.542  55.356  0.00  0.00     0.019 A 
ATOM     16  C   UNL d   1      53.621  35.896  54.931  0.00  0.00     0.005 A 
ATOM     17  C   UNL d   1      52.519  35.779  54.040  0.00  0.00     0.003 C 
ENDROOT
BRANCH   5  18
ATOM     18  C   UNL d   1      53.277  30.921  53.700  0.00  0.00     0.282 C 
ATOM     19  N   UNL d   1      53.052  30.415  54.317  0.00  0.00    -0.208 NA
ATOM     20  O   UNL d   1      53.635  30.602  53.015  0.00  0.00    -0.265 OA
BRANCH  19  21
ATOM     21  C   UNL d   1      53.183  29.603  54.251  0.00  0.00     0.085 A 
ATOM     22  C   UNL d   1      52.903  29.127  53.645  0.00  0.00     0.019 A 
ATOM     23  C   UNL d   1      53.166  28.355  53.802  0.00  0.00     0.002 A 
ATOM     24  C   UNL d   1      53.604  28.369  54.502  0.00  0.00     0.002 A 
ATOM     25  C   UNL d   1      53.615  29.134  54.778  0.00  0.00     0.019 A 
ENDBRANCH  19  21
ENDBRANCH   5  18
BRANCH   4  26
ATOM     26  C   UNL d   1      51.801  33.241  52.984  0.00  0.00     0.067 A 
ATOM     27  C   UNL d   1      51.020  33.303  53.245  0.00  0.00     0.018 A 
ATOM     28  C   UNL d   1      50.595  33.686  52.658  0.00  0.00     0.002 A 
ATOM     29  C   UNL d   1      51.107  33.868  52.024  0.00  0.00     0.002 A 
ATOM     30  C   UNL d   1      51.852  33.588  52.236  0.00  0.00     0.018 A 
ENDBRANCH   4  26
TORSDOF 3
ENDMDL
MODEL 6
REMARK VINA RESULT:      -7.1      9.890     11.021
REMARK  3 active torsions:
REMARK  status: ('A' for Active; 'I' for Inactive)
REMARK    1  A    between atoms: C_17  and  N_4 
REMARK    2  A    between atoms: C_11  and  C_5 
REMARK       I    between atoms: N_13  and  C_11 
REMARK    3  A    between atoms: C_21  and  N_13 
ROOT
ATOM      1  C   UNL d   1      44.675  29.241  58.411  0.00  0.00     0.155 A 
ATOM      2  C   UNL d   1      44.539  29.832  58.966  0.00  0.00     0.091 A 
ATOM      3  N   UNL d   1      44.722  29.442  57.610  0.00  0.00    -0.210 NA
ATOM      4  N   UNL d   1      44.760  28.473  58.650  0.00  0.00    -0.275 N 
ATOM      5  C   UNL d   1      44.577  28.860  59.999  0.00  0.00     0.094 A 
ATOM      6  C   UNL d   1      44.712  28.272  59.447  0.00  0.00     0.175 A 
ATOM      7  N   UNL d   1      44.499  30.818  57.924  0.00  0.00    -0.258 N 
ATOM      8  C   UNL d   1      44.637  30.218  57.361  0.00  0.00     0.152 A 
ATOM      9  C   UNL d   1      44.449  30.630  58.725  0.00  0.00     0.269 A 
ATOM     10  C   UNL d   1      44.489  29.642  59.767  0.00  0.00     0.016 A 
ATOM     11  C   UNL d   1      44.685  30.408  56.571  0.00  0.00     0.035 A 
ATOM     12  N   UNL d   1      44.800  27.488  59.690  0.00  0.00    -0.128 N 
ATOM     13  C   UNL d   1      44.412  31.596  57.686  0.00  0.00     0.084 A 
ATOM     14  O   UNL d   1      44.315  31.210  59.285  0.00  0.00    -0.266 OA
ATOM     15  C   UNL d   1      44.462  31.785  56.884  0.00  0.00     0.019 A 
ATOM     16  C   UNL d   1      44.600  31.185  56.321  0.00  0.00     0.005 A 
ATOM     17  C   UNL d   1      44.821  29.815  56.014  0.00  0.00     0.003 C 
ENDROOT
BRANCH   5  18
ATOM     18  C   UNL d   1      44.529  28.668  60.798  0.00  0.00     0.282 C 
ATOM     19  N   UNL d   1      44.690  29.237  61.379  0.00  0.00    -0.208 NA
ATOM     20  O   UNL d   1      44.314  27.893  61.028  0.00  0.00    -0.265 OA
BRANCH  19  21
ATOM     21  C   UNL d   1      44.639  29.034  62.177  0.00  0.00     0.085 A 
ATOM     22  C   UNL d   1      44.856  28.311  62.497  0.00  0.00     0.019 A 
ATOM     23  C   UNL d   1      44.710  28.355  63.313  0.00  0.00     0.002 A 
ATOM     24  C   UNL d   1      44.406  29.104  63.483  0.00  0.00     0.002 A 
ATOM     25  C   UNL d   1      44.362  29.522  62.786  0.00  0.00     0.019 A 
ENDBRANCH  19  21
ENDBRANCH   5  18
BRANCH   4  26
ATOM     26  C   UNL d   1      44.896  27.880  58.093  0.00  0.00     0.067 A 
ATOM     27  C   UNL d   1      44.314  27.412  57.740  0.00  0.00     0.018 A 
ATOM     28  C   UNL d   1      44.692  26.898  57.225  0.00  0.00     0.002 A 
ATOM     29  C   UNL d   1      45.514  27.040  57.251  0.00  0.00     0.002 A 
ATOM     30  C   UNL d   1      45.631  27.650  57.792  0.00  0.00     0.018 A 
ENDBRANCH   4  26
TORSDOF 3
ENDMDL
MODEL 7
REMARK VINA RESULT:      -7.1      9.280     10.750
REMARK  3 active torsions:
REMARK  status: ('A' for Active; 'I' for Inactive)
REMARK    1  A    between atoms: C_17  and  N_4 
REMARK    2  A    between atoms: C_11  and  C_5 
REMARK       I    between atoms: N_13  and  C_11 
REMARK    3  A    between atoms: C_21  and  N_13 
ROOT
ATOM      1  C   UNL d   1      44.746  29.679  58.134  0.00  0.00     0.155 A 
ATOM      2  C   UNL d   1      44.717  29.238  57.440  0.00  0.00     0.091 A 
ATOM      3  N   UNL d   1      44.659  30.501  58.094  0.00  0.00    -0.210 NA
ATOM      4  N   UNL d   1      44.860  29.309  58.843  0.00  0.00    -0.275 N 
ATOM      5  C   UNL d   1      44.917  28.053  58.194  0.00  0.00     0.094 A 
ATOM      6  C   UNL d   1      44.946  28.491  58.884  0.00  0.00     0.175 A 
ATOM      7  N   UNL d   1      44.514  30.435  56.675  0.00  0.00    -0.258 N 
ATOM      8  C   UNL d   1      44.544  30.882  57.378  0.00  0.00     0.152 A 
ATOM      9  C   UNL d   1      44.600  29.616  56.701  0.00  0.00     0.269 A 
ATOM     10  C   UNL d   1      44.803  28.419  57.468  0.00  0.00     0.016 A 
ATOM     11  C   UNL d   1      44.459  31.691  57.347  0.00  0.00     0.035 A 
ATOM     12  N   UNL d   1      45.062  28.114  59.609  0.00  0.00    -0.128 N 
ATOM     13  C   UNL d   1      44.400  30.805  55.954  0.00  0.00     0.084 A 
ATOM     14  O   UNL d   1      44.572  29.168  56.017  0.00  0.00    -0.266 OA
ATOM     15  C   UNL d   1      44.314  31.626  55.927  0.00  0.00     0.019 A 
ATOM     16  C   UNL d   1      44.344  32.073  56.630  0.00  0.00     0.005 A 
ATOM     17  C   UNL d   1      44.489  32.133  58.043  0.00  0.00     0.003 C 
ENDROOT
BRANCH   5  18
ATOM     18  C   UNL d   1      45.003  27.235  58.225  0.00  0.00     0.282 C 
ATOM     19  N   UNL d   1      44.363  26.737  58.053  0.00  0.00    -0.208 NA
ATOM     20  O   UNL d   1      45.741  26.901  58.431  0.00  0.00    -0.265 OA
BRANCH  19  21
ATOM     21  C   UNL d   1      44.459  25.918  58.087  0.00  0.00     0.085 A 
ATOM     22  C   UNL d   1      44.637  25.436  57.448  0.00  0.00     0.019 A 
ATOM     23  C   UNL d   1      44.681  24.659  57.737  0.00  0.00     0.002 A 
ATOM     24  C   UNL d   1      44.529  24.675  58.549  0.00  0.00     0.002 A 
ATOM     25  C   UNL d   1      44.392  25.448  58.764  0.00  0.00     0.019 A 
ENDBRANCH  19  21
ENDBRANCH   5  18
BRANCH   4  26
ATOM     26  C   UNL d   1      44.889  29.751  59.539  0.00  0.00     0.067 A 
ATOM     27  C   UNL d   1      44.314  29.750  60.132  0.00  0.00     0.018 A 
ATOM     28  C   UNL d   1      44.566  30.265  60.719  0.00  0.00     0.002 A 
ATOM     29  C   UNL d   1      45.300  30.593  60.498  0.00  0.00     0.002 A 
ATOM     30  C   UNL d   1      45.493  30.269  59.765  0.00  0.00     0.018 A 
ENDBRANCH   4  26
TORSDOF 3
ENDMDL
