MODEL 1
REMARK VINA RESULT:      27.4      0.000      0.000
REMARK  3 active torsions:
REMARK  status: ('A' for Active; 'I' for Inactive)
REMARK    1  A    between atoms: C_6  and  C_1 
REMARK    2  A    between atoms: N_7  and  C_2 
REMARK       I    between atoms: C_8  and  N_9 
REMARK    3  A    between atoms: C_11  and  C_8 
ROOT
ATOM      1  C   UNL d   1      45.986 -14.542  44.338  0.00  0.00     0.186 A 
ATOM      2  C   UNL d   1      46.135 -15.850  44.190  0.00  0.00     0.197 A 
ATOM      3  C   UNL d   1      45.340 -15.694  44.310  0.00  0.00     0.191 A 
ATOM      4  O   UNL d   1      46.538 -15.114  44.209  0.00  0.00    -0.270 OA
ATOM      5  N   UNL d   1      45.244 -14.858  44.404  0.00  0.00    -0.208 NA
ATOM      6  C   UNL d   1      44.713 -16.274  44.336  0.00  0.00     0.124 C 
ATOM      7  N   UNL d   1      44.085 -16.840  44.363  0.00  0.00    -0.190 NA
ENDROOT
BRANCH   2   8
ATOM      8  N   UNL d   1      46.226 -16.685  44.096  0.00  0.00    -0.280 N 
ATOM      9  C   UNL d   1      46.321 -17.176  44.762  0.00  0.00     0.101 A 
ATOM     10  C   UNL d   1      46.410 -17.977  44.684  0.00  0.00     0.102 A 
ATOM     11  N   UNL d   1      46.408 -18.344  43.913  0.00  0.00    -0.267 N 
ATOM     12  C   UNL d   1      46.505 -19.197  43.869  0.00  0.00     0.288 C 
ATOM     13  C   UNL d   1      46.309 -17.832  43.214  0.00  0.00     0.102 A 
ATOM     14  O   UNL d   1      46.599 -19.663  44.562  0.00  0.00    -0.264 OA
ATOM     15  C   UNL d   1      46.219 -17.003  43.340  0.00  0.00     0.101 A 
BRANCH  12  16
ATOM     16  C   UNL d   1      46.503 -19.563  43.098  0.00  0.00     0.156 A 
ATOM     17  O   UNL d   1      46.388 -20.327  42.832  0.00  0.00    -0.300 OA
ATOM     18  C   UNL d   1      46.457 -20.330  41.998  0.00  0.00     0.123 A 
ATOM     19  C   UNL d   1      46.614 -19.565  41.761  0.00  0.00     0.029 A 
ATOM     20  C   UNL d   1      46.644 -19.086  42.428  0.00  0.00     0.032 A 
ENDBRANCH  12  16
ENDBRANCH   2   8
BRANCH   1  21
ATOM     21  C   UNL d   1      45.884 -13.705  44.433  0.00  0.00     0.052 A 
ATOM     22  C   UNL d   1      45.232 -13.331  44.067  0.00  0.00     0.061 A 
ATOM     23 CL   UNL d   1      44.733 -13.824  43.635  0.00  0.00    -0.082 Cl
ATOM     24  C   UNL d   1      45.119 -12.522  44.149  0.00  0.00     0.011 A 
ATOM     25  C   UNL d   1      45.645 -12.080  44.590  0.00  0.00     0.001 A 
ATOM     26  C   UNL d   1      46.292 -12.439  44.955  0.00  0.00     0.000 A 
ATOM     27  C   UNL d   1      46.403 -13.239  44.873  0.00  0.00     0.004 A 
ENDBRANCH   1  21
TORSDOF 3
ENDMDL
