MODEL 1
REMARK VINA RESULT:      -1.3      0.000      0.000
REMARK  5 active torsions:
REMARK  status: ('A' for Active; 'I' for Inactive)
REMARK    1  A    between atoms: C_2  and  C_1 
REMARK    2  A    between atoms: O_16  and  C_12 
REMARK    3  A    between atoms: C_21  and  C_14 
REMARK    4  A    between atoms: C_17  and  O_16 
REMARK    5  A    between atoms: C_24  and  C_21 
ROOT
ATOM      1  C   UNL d   1      32.769  18.686 -23.566  0.00  0.00     0.086 A 
ATOM      2  C   UNL d   1      32.789  19.020 -22.818  0.00  0.00     0.201 A 
ATOM      3  C   UNL d   1      32.904  19.854 -22.743  0.00  0.00     0.062 A 
ATOM      4  C   UNL d   1      32.858  19.149 -24.237  0.00  0.00     0.105 A 
ATOM      5  C   UNL d   1      32.996  20.330 -23.433  0.00  0.00     0.105 A 
ATOM      6  O   UNL d   1      32.970  19.959 -24.178  0.00  0.00    -0.307 OA
ATOM      7  C   UNL d   1      32.924  20.186 -21.995  0.00  0.00     0.007 A 
ATOM      8  C   UNL d   1      33.105  21.125 -23.355  0.00  0.00     0.050 A 
ATOM      9  C   UNL d   1      33.126  21.460 -22.607  0.00  0.00     0.105 A 
ATOM     10  C   UNL d   1      33.037  20.997 -21.936  0.00  0.00     0.023 A 
ATOM     11  O   UNL d   1      32.698  18.541 -22.165  0.00  0.00    -0.286 OA
ATOM     12  C   UNL d   1      32.835  18.796 -24.998  0.00  0.00     0.027 C 
ENDROOT
BRANCH   1  13
ATOM     13  C   UNL d   1      32.658  17.874 -23.662  0.00  0.00     0.116 A 
ATOM     14  N   UNL d   1      33.177  17.223 -23.611  0.00  0.00    -0.238 NA
ATOM     15  C   UNL d   1      32.756  16.540 -23.761  0.00  0.00     0.088 A 
ATOM     16  C   UNL d   1      33.050  15.758 -23.768  0.00  0.00     0.021 C 
ATOM     17  C   UNL d   1      31.999  16.736 -23.903  0.00  0.00     0.056 A 
ATOM     18  S   UNL d   1      31.919  17.572 -23.846  0.00  0.00    -0.066 SA
ENDBRANCH   1  13
BRANCH  10  19
ATOM     19  C   UNL d   1      33.065  21.390 -21.182  0.00  0.00     0.002 C 
BRANCH  19  20
ATOM     20  C   UNL d   1      33.086  20.936 -20.479  0.00  0.00     0.000 C 
ATOM     21  C   UNL d   1      33.087  21.306 -19.742  0.00  0.00     0.000 C 
ENDBRANCH  19  20
ENDBRANCH  10  19
BRANCH   9  22
ATOM     22  O   UNL d   1      33.240  22.288 -22.535  0.00  0.00    -0.273 OA
BRANCH  22  23
ATOM     23  C   UNL d   1      32.753  22.804 -22.993  0.00  0.00     0.300 C 
ATOM     24  O   UNL d   1      31.976  22.857 -22.793  0.00  0.00    -0.259 OA
ATOM     25  C   UNL d   1      33.103  23.238 -23.637  0.00  0.00     0.074 C 
ENDBRANCH  22  23
ENDBRANCH   9  22
TORSDOF 5
ENDMDL
