MODEL 1
REMARK VINA RESULT:      86.5      0.000      0.000
REMARK  6 active torsions:
REMARK  status: ('A' for Active; 'I' for Inactive)
REMARK    1  A    between atoms: C_9  and  N_1 
REMARK    2  A    between atoms: S_14  and  C_3 
REMARK    3  A    between atoms: N_8  and  C_10 
REMARK    4  A    between atoms: C_18  and  C_9 
REMARK    5  A    between atoms: C_19  and  S_14 
REMARK    6  A    between atoms: C_20  and  C_18 
ROOT
ATOM      1  N   UNL d   1     -56.686-102.377 -45.603  0.00  0.00    -0.195 NA
ATOM      2  C   UNL d   1     -56.103-101.803 -45.418  0.00  0.00     0.086 C 
ATOM      3  C   UNL d   1     -55.531-101.252 -45.233  0.00  0.00     0.170 C 
ENDROOT
BRANCH   3   4
ATOM      4  S   UNL d   1     -54.879-101.467 -44.775  0.00  0.00    -0.060 SA
BRANCH   4   5
ATOM      5  C   UNL d   1     -54.912-101.410 -43.947  0.00  0.00     0.178 A 
ATOM      6  N   UNL d   1     -54.992-100.674 -43.583  0.00  0.00    -0.253 N 
ATOM      7  C   UNL d   1     -55.024-100.620 -42.758  0.00  0.00     0.268 A 
ATOM      8  C   UNL d   1     -54.976-101.311 -42.309  0.00  0.00     0.076 A 
ATOM      9  O   UNL d   1     -55.104 -99.888 -42.396  0.00  0.00    -0.267 OA
ATOM     10  C   UNL d   1     -55.008-101.252 -41.495  0.00  0.00     0.024 A 
ATOM     11  C   UNL d   1     -54.896-102.040 -42.670  0.00  0.00     0.088 A 
ATOM     12  C   UNL d   1     -54.961-101.934 -41.028  0.00  0.00     0.065 A 
ATOM     13  C   UNL d   1     -54.880-102.669 -41.404  0.00  0.00     0.019 A 
ATOM     14  C   UNL d   1     -54.848-102.723 -42.217  0.00  0.00     0.021 A 
ATOM     15  N   UNL d   1     -54.864-102.097 -43.488  0.00  0.00    -0.222 NA
BRANCH   6  16
ATOM     16  C   UNL d   1     -55.039 -99.994 -44.046  0.00  0.00     0.085 C 
BRANCH  16  17
ATOM     17  C   UNL d   1     -55.389-100.033 -44.793  0.00  0.00     0.019 C 
BRANCH  17  18
ATOM     18  C   UNL d   1     -56.081 -99.607 -44.949  0.00  0.00     0.002 A 
ATOM     19  C   UNL d   1     -56.203 -99.278 -45.692  0.00  0.00     0.000 A 
ATOM     20  C   UNL d   1     -56.891 -98.853 -45.850  0.00  0.00     0.000 A 
ATOM     21  C   UNL d   1     -57.465 -98.758 -45.255  0.00  0.00     0.000 A 
ATOM     22  C   UNL d   1     -57.338 -99.092 -44.507  0.00  0.00     0.000 A 
ATOM     23  C   UNL d   1     -56.650 -99.516 -44.349  0.00  0.00     0.000 A 
ENDBRANCH  17  18
ENDBRANCH  16  17
ENDBRANCH   6  16
BRANCH  12  24
ATOM     24  N   UNL d   1     -54.993-101.885 -40.210  0.00  0.00    -0.300 N 
ATOM     25  C   UNL d   1     -54.797-102.543 -39.746  0.00  0.00     0.107 A 
ATOM     26  C   UNL d   1     -54.831-102.486 -38.928  0.00  0.00     0.142 A 
ATOM     27  O   UNL d   1     -55.060-101.776 -38.566  0.00  0.00    -0.300 OA
ATOM     28  C   UNL d   1     -55.256-101.119 -39.029  0.00  0.00     0.142 A 
ATOM     29  C   UNL d   1     -55.223-101.172 -39.855  0.00  0.00     0.107 A 
ENDBRANCH  12  24
ENDBRANCH   4   5
ENDBRANCH   3   4
TORSDOF 6
ENDMDL
