MODEL 1
REMARK VINA RESULT:      -8.1      0.000      0.000
REMARK  0 active torsions:
REMARK  status: ('A' for Active; 'I' for Inactive)
ROOT
ATOM      1  N   UNL d   1     -47.040  13.095  23.090  0.00  0.00    -0.273 N 
ATOM      2  C   UNL d   1     -47.845  13.161  23.010  0.00  0.00     0.068 A 
ATOM      3  C   UNL d   1     -46.552  13.745  22.918  0.00  0.00     0.265 A 
ATOM      4  C   UNL d   1     -48.325  12.513  23.181  0.00  0.00     0.035 A 
ATOM      5  C   UNL d   1     -46.706  12.381  23.343  0.00  0.00     0.085 A 
ATOM      6  C   UNL d   1     -48.171  13.877  22.757  0.00  0.00     0.018 A 
ATOM      7  N   UNL d   1     -48.446  11.064  23.635  0.00  0.00    -0.242 NA
ATOM      8  C   UNL d   1     -47.999  11.798  23.434  0.00  0.00     0.006 A 
ATOM      9  C   UNL d   1     -47.194  11.732  23.514  0.00  0.00     0.037 A 
ATOM     10  C   UNL d   1     -47.691  14.529  22.584  0.00  0.00     0.006 A 
ATOM     11  C   UNL d   1     -46.886  14.463  22.664  0.00  0.00     0.061 A 
ATOM     12  O   UNL d   1     -45.744  13.675  23.000  0.00  0.00    -0.267 OA
ATOM     13  C   UNL d   1     -48.789  11.856  23.357  0.00  0.00     0.100 A 
ATOM     14  C   UNL d   1     -47.625  11.057  23.698  0.00  0.00     0.100 A 
ENDROOT
TORSDOF 0
ENDMDL
MODEL 2
REMARK VINA RESULT:      -8.1      0.881      1.456
REMARK  0 active torsions:
REMARK  status: ('A' for Active; 'I' for Inactive)
ROOT
ATOM      1  N   UNL d   1     -47.854  13.396  23.033  0.00  0.00    -0.273 N 
ATOM      2  C   UNL d   1     -47.307  12.827  23.225  0.00  0.00     0.068 A 
ATOM      3  C   UNL d   1     -47.601  14.155  22.812  0.00  0.00     0.265 A 
ATOM      4  C   UNL d   1     -47.563  12.075  23.444  0.00  0.00     0.035 A 
ATOM      5  C   UNL d   1     -48.663  13.218  23.059  0.00  0.00     0.085 A 
ATOM      6  C   UNL d   1     -46.502  13.012  23.197  0.00  0.00     0.018 A 
ATOM      7  N   UNL d   1     -48.716  11.111  23.696  0.00  0.00    -0.242 NA
ATOM      8  C   UNL d   1     -48.368  11.891  23.472  0.00  0.00     0.006 A 
ATOM      9  C   UNL d   1     -48.915  12.459  23.280  0.00  0.00     0.037 A 
ATOM     10  C   UNL d   1     -46.243  13.766  22.977  0.00  0.00     0.006 A 
ATOM     11  C   UNL d   1     -46.790  14.335  22.785  0.00  0.00     0.061 A 
ATOM     12  O   UNL d   1     -48.153  14.723  22.620  0.00  0.00    -0.267 OA
ATOM     13  C   UNL d   1     -47.836  11.329  23.661  0.00  0.00     0.100 A 
ATOM     14  C   UNL d   1     -49.223  11.728  23.492  0.00  0.00     0.100 A 
ENDROOT
TORSDOF 0
ENDMDL
MODEL 3
REMARK VINA RESULT:      -8.1      0.859      2.451
REMARK  0 active torsions:
REMARK  status: ('A' for Active; 'I' for Inactive)
ROOT
ATOM      1  N   UNL d   1     -46.971  12.782  23.275  0.00  0.00    -0.273 N 
ATOM      2  C   UNL d   1     -47.780  12.798  23.209  0.00  0.00     0.068 A 
ATOM      3  C   UNL d   1     -46.589  12.087  23.520  0.00  0.00     0.265 A 
ATOM      4  C   UNL d   1     -48.154  13.491  22.965  0.00  0.00     0.035 A 
ATOM      5  C   UNL d   1     -46.528  13.459  23.098  0.00  0.00     0.085 A 
ATOM      6  C   UNL d   1     -48.216  12.118  23.387  0.00  0.00     0.018 A 
ATOM      7  N   UNL d   1     -48.048  14.944  22.521  0.00  0.00    -0.242 NA
ATOM      8  C   UNL d   1     -47.719  14.169  22.787  0.00  0.00     0.006 A 
ATOM      9  C   UNL d   1     -46.910  14.154  22.853  0.00  0.00     0.037 A 
ATOM     10  C   UNL d   1     -47.842  11.422  23.632  0.00  0.00     0.006 A 
ATOM     11  C   UNL d   1     -47.033  11.406  23.698  0.00  0.00     0.061 A 
ATOM     12  O   UNL d   1     -45.777  12.075  23.585  0.00  0.00    -0.267 OA
ATOM     13  C   UNL d   1     -48.512  14.191  22.720  0.00  0.00     0.100 A 
ATOM     14  C   UNL d   1     -47.232  14.868  22.606  0.00  0.00     0.100 A 
ENDROOT
TORSDOF 0
ENDMDL
MODEL 4
REMARK VINA RESULT:      -8.0      1.592      2.375
REMARK  0 active torsions:
REMARK  status: ('A' for Active; 'I' for Inactive)
ROOT
ATOM      1  N   UNL d   1     -48.416  12.255  22.548  0.00  0.00    -0.273 N 
ATOM      2  C   UNL d   1     -48.089  12.928  22.232  0.00  0.00     0.068 A 
ATOM      3  C   UNL d   1     -49.159  11.992  22.284  0.00  0.00     0.265 A 
ATOM      4  C   UNL d   1     -47.353  13.185  22.497  0.00  0.00     0.035 A 
ATOM      5  C   UNL d   1     -48.010  11.833  23.133  0.00  0.00     0.085 A 
ATOM      6  C   UNL d   1     -48.501  13.344  21.648  0.00  0.00     0.018 A 
ATOM      7  N   UNL d   1     -46.152  12.981  23.413  0.00  0.00    -0.242 NA
ATOM      8  C   UNL d   1     -46.941  12.769  23.080  0.00  0.00     0.006 A 
ATOM      9  C   UNL d   1     -47.268  12.096  23.396  0.00  0.00     0.037 A 
ATOM     10  C   UNL d   1     -49.241  13.088  21.381  0.00  0.00     0.006 A 
ATOM     11  C   UNL d   1     -49.568  12.415  21.697  0.00  0.00     0.061 A 
ATOM     12  O   UNL d   1     -49.484  11.317  22.604  0.00  0.00    -0.267 OA
ATOM     13  C   UNL d   1     -46.616  13.427  22.773  0.00  0.00     0.100 A 
ATOM     14  C   UNL d   1     -46.533  12.308  23.695  0.00  0.00     0.100 A 
ENDROOT
TORSDOF 0
ENDMDL
MODEL 5
REMARK VINA RESULT:      -7.8      1.223      2.839
REMARK  0 active torsions:
REMARK  status: ('A' for Active; 'I' for Inactive)
ROOT
ATOM      1  N   UNL d   1     -47.826  12.476  23.274  0.00  0.00    -0.273 N 
ATOM      2  C   UNL d   1     -47.047  12.706  23.276  0.00  0.00     0.068 A 
ATOM      3  C   UNL d   1     -48.028  11.698  23.483  0.00  0.00     0.265 A 
ATOM      4  C   UNL d   1     -46.852  13.479  23.067  0.00  0.00     0.035 A 
ATOM      5  C   UNL d   1     -48.417  13.016  23.063  0.00  0.00     0.085 A 
ATOM      6  C   UNL d   1     -46.463  12.161  23.488  0.00  0.00     0.018 A 
ATOM      7  N   UNL d   1     -47.305  14.864  22.622  0.00  0.00    -0.242 NA
ATOM      8  C   UNL d   1     -47.436  14.023  22.856  0.00  0.00     0.006 A 
ATOM      9  C   UNL d   1     -48.214  13.793  22.853  0.00  0.00     0.037 A 
ATOM     10  C   UNL d   1     -46.657  11.385  23.697  0.00  0.00     0.006 A 
ATOM     11  C   UNL d   1     -47.436  11.154  23.695  0.00  0.00     0.061 A 
ATOM     12  O   UNL d   1     -48.810  11.470  23.479  0.00  0.00    -0.267 OA
ATOM     13  C   UNL d   1     -46.674  14.255  22.856  0.00  0.00     0.100 A 
ATOM     14  C   UNL d   1     -48.075  14.573  22.638  0.00  0.00     0.100 A 
ENDROOT
TORSDOF 0
ENDMDL
MODEL 6
REMARK VINA RESULT:      -7.5      1.810      2.685
REMARK  0 active torsions:
REMARK  status: ('A' for Active; 'I' for Inactive)
ROOT
ATOM      1  N   UNL d   1     -48.415  13.866  22.211  0.00  0.00    -0.273 N 
ATOM      2  C   UNL d   1     -48.079  13.133  22.116  0.00  0.00     0.068 A 
ATOM      3  C   UNL d   1     -49.197  13.998  21.963  0.00  0.00     0.265 A 
ATOM      4  C   UNL d   1     -47.303  13.007  22.364  0.00  0.00     0.035 A 
ATOM      5  C   UNL d   1     -47.979  14.480  22.554  0.00  0.00     0.085 A 
ATOM      6  C   UNL d   1     -48.521  12.525  21.772  0.00  0.00     0.018 A 
ATOM      7  N   UNL d   1     -46.030  13.556  22.996  0.00  0.00    -0.242 NA
ATOM      8  C   UNL d   1     -46.862  13.615  22.707  0.00  0.00     0.006 A 
ATOM      9  C   UNL d   1     -47.199  14.348  22.802  0.00  0.00     0.037 A 
ATOM     10  C   UNL d   1     -49.300  12.649  21.522  0.00  0.00     0.006 A 
ATOM     11  C   UNL d   1     -49.636  13.382  21.617  0.00  0.00     0.061 A 
ATOM     12  O   UNL d   1     -49.531  14.735  22.059  0.00  0.00    -0.267 OA
ATOM     13  C   UNL d   1     -46.528  12.898  22.617  0.00  0.00     0.100 A 
ATOM     14  C   UNL d   1     -46.424  14.276  23.066  0.00  0.00     0.100 A 
ENDROOT
TORSDOF 0
ENDMDL
MODEL 7
REMARK VINA RESULT:      -7.5      1.224      2.153
REMARK  0 active torsions:
REMARK  status: ('A' for Active; 'I' for Inactive)
ROOT
ATOM      1  N   UNL d   1     -47.618  12.722  22.694  0.00  0.00    -0.273 N 
ATOM      2  C   UNL d   1     -48.069  12.067  22.858  0.00  0.00     0.068 A 
ATOM      3  C   UNL d   1     -46.862  12.799  23.030  0.00  0.00     0.265 A 
ATOM      4  C   UNL d   1     -48.818  11.995  22.523  0.00  0.00     0.035 A 
ATOM      5  C   UNL d   1     -47.912  13.312  22.193  0.00  0.00     0.085 A 
ATOM      6  C   UNL d   1     -47.768  11.482  23.359  0.00  0.00     0.018 A 
ATOM      7  N   UNL d   1     -49.907  12.573  21.628  0.00  0.00    -0.242 NA
ATOM      8  C   UNL d   1     -49.118  12.580  22.022  0.00  0.00     0.006 A 
ATOM      9  C   UNL d   1     -48.667  13.235  21.858  0.00  0.00     0.037 A 
ATOM     10  C   UNL d   1     -47.016  11.553  23.697  0.00  0.00     0.006 A 
ATOM     11  C   UNL d   1     -46.565  12.208  23.533  0.00  0.00     0.061 A 
ATOM     12  O   UNL d   1     -46.413  13.458  22.863  0.00  0.00    -0.267 OA
ATOM     13  C   UNL d   1     -49.564  11.940  22.179  0.00  0.00     0.100 A 
ATOM     14  C   UNL d   1     -49.405  13.213  21.499  0.00  0.00     0.100 A 
ENDROOT
TORSDOF 0
ENDMDL
MODEL 8
REMARK VINA RESULT:      -7.0      1.718      3.206
REMARK  0 active torsions:
REMARK  status: ('A' for Active; 'I' for Inactive)
ROOT
ATOM      1  N   UNL d   1     -49.187  13.054  23.190  0.00  0.00    -0.273 N 
ATOM      2  C   UNL d   1     -48.377  13.036  23.137  0.00  0.00     0.068 A 
ATOM      3  C   UNL d   1     -49.603  12.371  23.415  0.00  0.00     0.265 A 
ATOM      4  C   UNL d   1     -47.969  13.716  22.913  0.00  0.00     0.035 A 
ATOM      5  C   UNL d   1     -49.597  13.753  23.021  0.00  0.00     0.085 A 
ATOM      6  C   UNL d   1     -47.974  12.334  23.308  0.00  0.00     0.018 A 
ATOM      7  N   UNL d   1     -48.005  15.181  22.498  0.00  0.00    -0.242 NA
ATOM      8  C   UNL d   1     -48.371  14.416  22.743  0.00  0.00     0.006 A 
ATOM      9  C   UNL d   1     -49.181  14.435  22.796  0.00  0.00     0.037 A 
ATOM     10  C   UNL d   1     -48.382  11.650  23.532  0.00  0.00     0.006 A 
ATOM     11  C   UNL d   1     -49.192  11.668  23.586  0.00  0.00     0.061 A 
ATOM     12  O   UNL d   1     -50.416  12.393  23.468  0.00  0.00    -0.267 OA
ATOM     13  C   UNL d   1     -47.577  14.404  22.689  0.00  0.00     0.100 A 
ATOM     14  C   UNL d   1     -48.824  15.139  22.570  0.00  0.00     0.100 A 
ENDROOT
TORSDOF 0
ENDMDL
MODEL 9
REMARK VINA RESULT:      -5.7      9.305     10.300
REMARK  0 active torsions:
REMARK  status: ('A' for Active; 'I' for Inactive)
ROOT
ATOM      1  N   UNL d   1     -39.638  14.564  17.133  0.00  0.00    -0.273 N 
ATOM      2  C   UNL d   1     -39.653  13.987  17.705  0.00  0.00     0.068 A 
ATOM      3  C   UNL d   1     -40.178  15.193  17.166  0.00  0.00     0.265 A 
ATOM      4  C   UNL d   1     -39.115  13.365  17.668  0.00  0.00     0.035 A 
ATOM      5  C   UNL d   1     -39.085  14.523  16.518  0.00  0.00     0.085 A 
ATOM      6  C   UNL d   1     -40.208  14.035  18.316  0.00  0.00     0.018 A 
ATOM      7  N   UNL d   1     -37.955  12.683  16.952  0.00  0.00    -0.242 NA
ATOM      8  C   UNL d   1     -38.560  13.317  17.058  0.00  0.00     0.006 A 
ATOM      9  C   UNL d   1     -38.546  13.893  16.486  0.00  0.00     0.037 A 
ATOM     10  C   UNL d   1     -40.749  14.660  18.355  0.00  0.00     0.006 A 
ATOM     11  C   UNL d   1     -40.734  15.236  17.783  0.00  0.00     0.061 A 
ATOM     12  O   UNL d   1     -40.161  15.770  16.590  0.00  0.00    -0.267 OA
ATOM     13  C   UNL d   1     -38.570  12.750  17.616  0.00  0.00     0.100 A 
ATOM     14  C   UNL d   1     -37.988  13.295  16.402  0.00  0.00     0.100 A 
ENDROOT
TORSDOF 0
ENDMDL
