MODEL 1
REMARK VINA RESULT:      71.8      0.000      0.000
REMARK  6 active torsions:
REMARK  status: ('A' for Active; 'I' for Inactive)
REMARK    1  A    between atoms: C_8  and  C_1 
REMARK    2  A    between atoms: C_2  and  N_3 
REMARK       I    between atoms: N_3  and  C_8 
REMARK    3  A    between atoms: S_4  and  C_14 
REMARK    4  A    between atoms: C_23  and  N_7 
REMARK    5  A    between atoms: C_27  and  C_23 
REMARK    6  A    between atoms: O_26  and  C_27 
ROOT
ATOM      1  C   UNL d   1      14.280  16.433  -4.906  0.00  0.00     0.182 A 
ATOM      2  N   UNL d   1      14.823  16.902  -4.510  0.00  0.00    -0.283 N 
ATOM      3  S   UNL d   1      13.875  16.910  -5.441  0.00  0.00    -0.048 SA
ATOM      4  C   UNL d   1      14.172  17.679  -5.375  0.00  0.00     0.049 A 
ATOM      5  C   UNL d   1      14.760  17.674  -4.797  0.00  0.00     0.072 A 
ATOM      6  C   UNL d   1      14.381  19.074  -5.577  0.00  0.00     0.107 A 
ATOM      7  C   UNL d   1      13.983  18.379  -5.765  0.00  0.00     0.021 A 
ATOM      8  C   UNL d   1      15.160  18.370  -4.608  0.00  0.00     0.019 A 
ATOM      9  C   UNL d   1      14.969  19.069  -4.999  0.00  0.00     0.015 A 
ENDROOT
BRANCH   1  10
ATOM     10  N   UNL d   1      14.165  15.625  -4.783  0.00  0.00    -0.183 NA
ATOM     11  C   UNL d   1      13.411  15.306  -4.866  0.00  0.00     0.288 C 
ATOM     12  O   UNL d   1      12.779  15.794  -5.070  0.00  0.00    -0.265 OA
BRANCH  11  13
ATOM     13  C   UNL d   1      13.287  14.499  -4.745  0.00  0.00     0.098 A 
ATOM     14  S   UNL d   1      13.299  13.921  -5.323  0.00  0.00    -0.081 SA
ATOM     15  C   UNL d   1      13.151  13.195  -4.967  0.00  0.00     0.030 A 
ATOM     16  C   UNL d   1      13.098  12.428  -5.278  0.00  0.00     0.006 A 
ATOM     17  C   UNL d   1      13.045  13.316  -4.158  0.00  0.00     0.017 A 
ATOM     18  C   UNL d   1      12.939  11.782  -4.780  0.00  0.00     0.001 A 
ATOM     19  C   UNL d   1      12.834  11.920  -3.962  0.00  0.00     0.000 A 
ATOM     20  C   UNL d   1      12.887  12.673  -3.660  0.00  0.00     0.001 A 
ATOM     21  C   UNL d   1      13.131  14.134  -4.017  0.00  0.00     0.069 A 
ATOM     22 CL   UNL d   1      13.069  14.503  -3.287  0.00  0.00    -0.082 Cl
ENDBRANCH  11  13
ENDBRANCH   1  10
BRANCH   2  23
ATOM     23  C   UNL d   1      15.348  16.653  -3.922  0.00  0.00     0.108 C 
BRANCH  23  24
ATOM     24  C   UNL d   1      15.344  17.010  -3.181  0.00  0.00     0.135 C 
BRANCH  24  25
ATOM     25  O   UNL d   1      15.382  16.551  -2.501  0.00  0.00    -0.325 OA
ATOM     26  C   UNL d   1      15.019  16.803  -1.800  0.00  0.00     0.182 C 
ENDBRANCH  24  25
ENDBRANCH  23  24
ENDBRANCH   2  23
BRANCH   6  27
ATOM     27  S   UNL d   1      14.191  19.786  -5.971  0.00  0.00     0.302 S 
ATOM     28  O   UNL d   1      13.556  19.430  -6.369  0.00  0.00    -0.197 OA
ATOM     29  O   UNL d   1      14.820  20.135  -5.575  0.00  0.00    -0.197 OA
ATOM     30  N   UNL d   1      14.024  20.500  -6.346  0.00  0.00    -0.043 N 
ENDBRANCH   6  27
TORSDOF 6
ENDMDL
MODEL 2
REMARK VINA RESULT:      74.7      0.984      1.316
REMARK  6 active torsions:
REMARK  status: ('A' for Active; 'I' for Inactive)
REMARK    1  A    between atoms: C_8  and  C_1 
REMARK    2  A    between atoms: C_2  and  N_3 
REMARK       I    between atoms: N_3  and  C_8 
REMARK    3  A    between atoms: S_4  and  C_14 
REMARK    4  A    between atoms: C_23  and  N_7 
REMARK    5  A    between atoms: C_27  and  C_23 
REMARK    6  A    between atoms: O_26  and  C_27 
ROOT
ATOM      1  C   UNL d   1      14.178  16.314  -5.303  0.00  0.00     0.182 A 
ATOM      2  N   UNL d   1      14.884  16.711  -5.176  0.00  0.00    -0.283 N 
ATOM      3  S   UNL d   1      13.624  16.862  -5.569  0.00  0.00    -0.048 SA
ATOM      4  C   UNL d   1      13.992  17.602  -5.606  0.00  0.00     0.049 A 
ATOM      5  C   UNL d   1      14.774  17.508  -5.362  0.00  0.00     0.072 A 
ATOM      6  C   UNL d   1      14.222  18.993  -5.809  0.00  0.00     0.107 A 
ATOM      7  C   UNL d   1      13.716  18.345  -5.830  0.00  0.00     0.021 A 
ATOM      8  C   UNL d   1      15.281  18.157  -5.342  0.00  0.00     0.019 A 
ATOM      9  C   UNL d   1      15.005  18.899  -5.565  0.00  0.00     0.015 A 
ENDROOT
BRANCH   1  10
ATOM     10  N   UNL d   1      14.053  15.508  -5.183  0.00  0.00    -0.183 NA
ATOM     11  C   UNL d   1      13.521  15.261  -4.605  0.00  0.00     0.288 C 
ATOM     12  O   UNL d   1      13.120  15.821  -4.152  0.00  0.00    -0.265 OA
BRANCH  11  13
ATOM     13  C   UNL d   1      13.390  14.457  -4.479  0.00  0.00     0.098 A 
ATOM     14  S   UNL d   1      13.084  13.930  -5.024  0.00  0.00    -0.081 SA
ATOM     15  C   UNL d   1      13.045  13.187  -4.675  0.00  0.00     0.030 A 
ATOM     16  C   UNL d   1      12.785  12.455  -4.963  0.00  0.00     0.006 A 
ATOM     17  C   UNL d   1      13.329  13.246  -3.902  0.00  0.00     0.017 A 
ATOM     18  C   UNL d   1      12.808  11.779  -4.479  0.00  0.00     0.001 A 
ATOM     19  C   UNL d   1      13.098  11.854  -3.697  0.00  0.00     0.000 A 
ATOM     20  C   UNL d   1      13.352  12.574  -3.418  0.00  0.00     0.001 A 
ATOM     21  C   UNL d   1      13.545  14.042  -3.778  0.00  0.00     0.069 A 
ATOM     22 CL   UNL d   1      13.856  14.351  -3.084  0.00  0.00    -0.082 Cl
ENDBRANCH  11  13
ENDBRANCH   1  10
BRANCH   2  23
ATOM     23  C   UNL d   1      15.591  16.377  -4.907  0.00  0.00     0.108 C 
BRANCH  23  24
ATOM     24  C   UNL d   1      16.294  16.506  -5.314  0.00  0.00     0.135 C 
BRANCH  24  25
ATOM     25  O   UNL d   1      16.915  15.972  -5.248  0.00  0.00    -0.325 OA
ATOM     26  C   UNL d   1      17.373  15.773  -5.908  0.00  0.00     0.182 C 
ENDBRANCH  24  25
ENDBRANCH  23  24
ENDBRANCH   2  23
BRANCH   6  27
ATOM     27  S   UNL d   1      13.945  19.748  -6.036  0.00  0.00     0.302 S 
ATOM     28  O   UNL d   1      14.599  20.124  -5.692  0.00  0.00    -0.197 OA
ATOM     29  O   UNL d   1      13.298  19.373  -6.376  0.00  0.00    -0.197 OA
ATOM     30  N   UNL d   1      13.649  20.480  -6.271  0.00  0.00    -0.043 N 
ENDBRANCH   6  27
TORSDOF 6
ENDMDL
