MODEL 1
REMARK VINA RESULT:      27.7      0.000      0.000
REMARK  2 active torsions:
REMARK  status: ('A' for Active; 'I' for Inactive)
REMARK       I    between atoms: C_2  and  N_4 
REMARK       I    between atoms: N_7  and  C_2 
REMARK    1  A    between atoms: N_4  and  C_8 
REMARK    2  A    between atoms: C_12  and  N_7 
ROOT
ATOM      1  C   UNL d   1     -51.661  25.116  33.576  0.00  0.00     0.369 C 
ATOM      2  N   UNL d   1     -50.981  25.485  33.306  0.00  0.00    -0.190 NA
ATOM      3  N   UNL d   1     -51.757  24.304  33.488  0.00  0.00    -0.191 NA
ATOM      4  O   UNL d   1     -52.251  25.565  33.936  0.00  0.00    -0.242 OA
ENDROOT
BRANCH   2   5
ATOM      5  C   UNL d   1     -50.884  26.292  33.391  0.00  0.00     0.098 A 
ATOM      6  C   UNL d   1     -50.065  26.166  33.387  0.00  0.00     0.118 A 
ATOM      7  S   UNL d   1     -49.694  26.900  33.468  0.00  0.00     0.213 S 
ATOM      8  O   UNL d   1     -49.185  26.259  33.407  0.00  0.00    -0.217 OA
ATOM      9  O   UNL d   1     -49.398  27.663  33.552  0.00  0.00    -0.217 OA
ATOM     10  C   UNL d   1     -50.277  27.480  33.522  0.00  0.00     0.100 A 
ATOM     11  C   UNL d   1     -51.016  27.107  33.475  0.00  0.00     0.032 A 
ENDBRANCH   2   5
BRANCH   3  12
ATOM     12  C   UNL d   1     -52.440  23.937  33.761  0.00  0.00     0.086 A 
ATOM     13  C   UNL d   1     -52.437  23.553  34.490  0.00  0.00     0.019 A 
ATOM     14  C   UNL d   1     -53.112  23.190  34.761  0.00  0.00     0.002 A 
ATOM     15  C   UNL d   1     -53.802  23.203  34.309  0.00  0.00     0.000 A 
ATOM     16  C   UNL d   1     -53.806  23.588  33.580  0.00  0.00     0.002 A 
ATOM     17  C   UNL d   1     -53.123  23.954  33.308  0.00  0.00     0.019 A 
ENDBRANCH   3  12
TORSDOF 2
ENDMDL
