MODEL 1
REMARK VINA RESULT:      -0.3      0.000      0.000
REMARK  7 active torsions:
REMARK  status: ('A' for Active; 'I' for Inactive)
REMARK    1  A    between atoms: C_4  and  C_1 
REMARK    2  A    between atoms: C_13  and  N_3 
REMARK    3  A    between atoms: C_15  and  N_5 
REMARK    4  A    between atoms: C_12  and  C_15 
REMARK    5  A    between atoms: C_18  and  C_13 
REMARK    6  A    between atoms: O_16  and  C_18 
REMARK    7  A    between atoms: C_17  and  O_16 
ROOT
ATOM      1  C   UNL d   1      58.232  -0.061  31.672  0.00  0.00     0.149 A 
ATOM      2  N   UNL d   1      58.822   0.301  32.123  0.00  0.00    -0.227 NA
ATOM      3  N   UNL d   1      58.543  -0.218  30.920  0.00  0.00    -0.287 N 
ATOM      4  C   UNL d   1      59.334   0.049  30.907  0.00  0.00     0.083 A 
ATOM      5  C   UNL d   1      59.500   0.368  31.652  0.00  0.00     0.099 A 
ATOM      6  C   UNL d   1      59.916   0.044  30.322  0.00  0.00     0.019 A 
ATOM      7  C   UNL d   1      60.246   0.681  31.811  0.00  0.00     0.021 A 
ATOM      8  C   UNL d   1      60.662   0.356  30.481  0.00  0.00     0.002 A 
ATOM      9  C   UNL d   1      60.826   0.672  31.219  0.00  0.00     0.002 A 
ENDROOT
BRANCH   1  10
ATOM     10  C   UNL d   1      57.463  -0.239  31.919  0.00  0.00     0.057 A 
ATOM     11  C   UNL d   1      56.955   0.261  32.334  0.00  0.00     0.086 A 
ATOM     12  N   UNL d   1      56.247  -0.147  32.461  0.00  0.00    -0.272 N 
ATOM     13  C   UNL d   1      56.321  -0.899  32.124  0.00  0.00     0.265 A 
ATOM     14  C   UNL d   1      57.074  -0.949  31.790  0.00  0.00     0.066 A 
ATOM     15  O   UNL d   1      55.742  -1.486  32.124  0.00  0.00    -0.267 OA
BRANCH  12  16
ATOM     16  C   UNL d   1      55.587   0.153  32.859  0.00  0.00     0.083 C 
BRANCH  16  17
ATOM     17  C   UNL d   1      55.639   0.397  33.647  0.00  0.00     0.019 C 
ATOM     18  C   UNL d   1      54.957   0.600  34.067  0.00  0.00     0.002 C 
ENDBRANCH  16  17
ENDBRANCH  12  16
ENDBRANCH   1  10
BRANCH   3  19
ATOM     19  C   UNL d   1      58.016  -0.583  30.400  0.00  0.00     0.108 C 
BRANCH  19  20
ATOM     20  C   UNL d   1      58.293  -1.112  29.834  0.00  0.00     0.142 C 
BRANCH  20  21
ATOM     21  O   UNL d   1      58.004  -1.878  29.809  0.00  0.00    -0.304 OA
BRANCH  21  22
ATOM     22  C   UNL d   1      58.439  -2.473  29.443  0.00  0.00     0.100 A 
ATOM     23  C   UNL d   1      58.113  -2.892  28.826  0.00  0.00     0.025 A 
ATOM     24  C   UNL d   1      58.549  -3.485  28.463  0.00  0.00     0.002 A 
ATOM     25  C   UNL d   1      59.307  -3.653  28.721  0.00  0.00     0.000 A 
ATOM     26  C   UNL d   1      59.627  -3.221  29.349  0.00  0.00     0.002 A 
ATOM     27  C   UNL d   1      59.196  -2.634  29.708  0.00  0.00     0.025 A 
ENDBRANCH  21  22
ENDBRANCH  20  21
ENDBRANCH  19  20
ENDBRANCH   3  19
TORSDOF 7
ENDMDL
