MODEL 1
REMARK VINA RESULT:      -4.4      0.000      0.000
REMARK  6 active torsions:
REMARK  status: ('A' for Active; 'I' for Inactive)
REMARK    1  A    between atoms: C_9  and  N_2 
REMARK    2  A    between atoms: O_11  and  C_7 
REMARK    3  A    between atoms: C_8  and  O_10 
REMARK    4  A    between atoms: C_12  and  C_9 
REMARK    5  A    between atoms: O_10  and  C_15 
REMARK    6  A    between atoms: C_15  and  C_12 
ROOT
ATOM      1  C   UNL d   1      57.510  -1.108  31.209  0.00  0.00     0.087 C 
ENDROOT
BRANCH   1   2
ATOM      2  N   UNL d   1      57.157  -0.505  31.646  0.00  0.00    -0.251 N 
ATOM      3  C   UNL d   1      57.311   0.313  31.631  0.00  0.00     0.378 A 
ATOM      4  O   UNL d   1      56.805   0.682  32.176  0.00  0.00    -0.258 OA
ATOM      5  O   UNL d   1      57.870   0.682  31.154  0.00  0.00    -0.237 OA
ATOM      6  C   UNL d   1      56.341   0.098  32.527  0.00  0.00     0.121 A 
ATOM      7  C   UNL d   1      55.744   0.126  33.105  0.00  0.00     0.026 A 
ATOM      8  C   UNL d   1      56.557  -0.636  32.201  0.00  0.00     0.092 A 
ATOM      9  C   UNL d   1      55.372  -0.563  33.350  0.00  0.00     0.002 A 
ATOM     10  C   UNL d   1      55.589  -1.287  33.025  0.00  0.00     0.002 A 
ATOM     11  C   UNL d   1      56.179  -1.328  32.451  0.00  0.00     0.020 A 
ENDBRANCH   1   2
BRANCH   1  12
ATOM     12  C   UNL d   1      57.792  -0.956  30.458  0.00  0.00     0.046 C 
BRANCH  12  13
ATOM     13  C   UNL d   1      58.131  -1.563  30.014  0.00  0.00     0.124 C 
BRANCH  13  14
ATOM     14  O   UNL d   1      58.612  -1.384  29.368  0.00  0.00    -0.303 OA
BRANCH  14  15
ATOM     15  C   UNL d   1      59.129  -1.952  29.068  0.00  0.00     0.122 A 
ATOM     16  C   UNL d   1      59.860  -1.723  28.761  0.00  0.00     0.117 A 
ATOM     17  C   UNL d   1      60.380  -2.286  28.461  0.00  0.00     0.026 A 
ATOM     18  C   UNL d   1      60.165  -3.089  28.469  0.00  0.00     0.002 A 
ATOM     19  C   UNL d   1      59.438  -3.320  28.774  0.00  0.00     0.002 A 
ATOM     20  C   UNL d   1      58.921  -2.752  29.073  0.00  0.00     0.027 A 
BRANCH  16  21
ATOM     21  O   UNL d   1      60.070  -0.922  28.755  0.00  0.00    -0.326 OA
ATOM     22  C   UNL d   1      60.807  -0.695  28.455  0.00  0.00     0.181 C 
ENDBRANCH  16  21
ENDBRANCH  14  15
ENDBRANCH  13  14
ENDBRANCH  12  13
ENDBRANCH   1  12
TORSDOF 6
ENDMDL
MODEL 2
REMARK VINA RESULT:      -4.3      1.265      1.994
REMARK  6 active torsions:
REMARK  status: ('A' for Active; 'I' for Inactive)
REMARK    1  A    between atoms: C_9  and  N_2 
REMARK    2  A    between atoms: O_11  and  C_7 
REMARK    3  A    between atoms: C_8  and  O_10 
REMARK    4  A    between atoms: C_12  and  C_9 
REMARK    5  A    between atoms: O_10  and  C_15 
REMARK    6  A    between atoms: C_15  and  C_12 
ROOT
ATOM      1  C   UNL d   1      57.088   0.682  31.806  0.00  0.00     0.087 C 
ENDROOT
BRANCH   1   2
ATOM      2  N   UNL d   1      57.028   0.620  32.626  0.00  0.00    -0.251 N 
ATOM      3  C   UNL d   1      57.633   0.617  33.197  0.00  0.00     0.378 A 
ATOM      4  O   UNL d   1      57.282   0.541  33.946  0.00  0.00    -0.258 OA
ATOM      5  O   UNL d   1      58.437   0.678  33.037  0.00  0.00    -0.237 OA
ATOM      6  C   UNL d   1      56.466   0.498  33.840  0.00  0.00     0.121 A 
ATOM      7  C   UNL d   1      55.833   0.420  34.374  0.00  0.00     0.026 A 
ATOM      8  C   UNL d   1      56.307   0.546  33.025  0.00  0.00     0.092 A 
ATOM      9  C   UNL d   1      55.061   0.391  34.099  0.00  0.00     0.002 A 
ATOM     10  C   UNL d   1      54.908   0.439  33.292  0.00  0.00     0.002 A 
ATOM     11  C   UNL d   1      55.526   0.517  32.752  0.00  0.00     0.020 A 
ENDBRANCH   1   2
BRANCH   1  12
ATOM     12  C   UNL d   1      57.313   0.033  31.363  0.00  0.00     0.046 C 
BRANCH  12  13
ATOM     13  C   UNL d   1      57.716   0.140  30.652  0.00  0.00     0.124 C 
BRANCH  13  14
ATOM     14  O   UNL d   1      57.938  -0.514  30.199  0.00  0.00    -0.303 OA
BRANCH  14  15
ATOM     15  C   UNL d   1      58.520  -0.437  29.620  0.00  0.00     0.122 A 
ATOM     16  C   UNL d   1      58.846  -1.111  29.272  0.00  0.00     0.117 A 
ATOM     17  C   UNL d   1      59.427  -1.040  28.694  0.00  0.00     0.026 A 
ATOM     18  C   UNL d   1      59.685  -0.285  28.461  0.00  0.00     0.002 A 
ATOM     19  C   UNL d   1      59.362   0.388  28.805  0.00  0.00     0.002 A 
ATOM     20  C   UNL d   1      58.780   0.311  29.384  0.00  0.00     0.027 A 
BRANCH  16  21
ATOM     21  O   UNL d   1      58.586  -1.861  29.507  0.00  0.00    -0.326 OA
ATOM     22  C   UNL d   1      58.995  -2.533  29.252  0.00  0.00     0.181 C 
ENDBRANCH  16  21
ENDBRANCH  14  15
ENDBRANCH  13  14
ENDBRANCH  12  13
ENDBRANCH   1  12
TORSDOF 6
ENDMDL
MODEL 3
REMARK VINA RESULT:      -4.2      1.114      4.810
REMARK  6 active torsions:
REMARK  status: ('A' for Active; 'I' for Inactive)
REMARK    1  A    between atoms: C_9  and  N_2 
REMARK    2  A    between atoms: O_11  and  C_7 
REMARK    3  A    between atoms: C_8  and  O_10 
REMARK    4  A    between atoms: C_12  and  C_9 
REMARK    5  A    between atoms: O_10  and  C_15 
REMARK    6  A    between atoms: C_15  and  C_12 
ROOT
ATOM      1  C   UNL d   1      58.147  -0.464  29.609  0.00  0.00     0.087 C 
ENDROOT
BRANCH   1   2
ATOM      2  N   UNL d   1      58.876  -0.647  29.268  0.00  0.00    -0.251 N 
ATOM      3  C   UNL d   1      59.495  -0.135  29.049  0.00  0.00     0.378 A 
ATOM      4  O   UNL d   1      60.108  -0.595  28.730  0.00  0.00    -0.258 OA
ATOM      5  O   UNL d   1      59.489   0.682  29.138  0.00  0.00    -0.237 OA
ATOM      6  C   UNL d   1      59.872  -1.384  28.751  0.00  0.00     0.121 A 
ATOM      7  C   UNL d   1      60.244  -2.088  28.512  0.00  0.00     0.026 A 
ATOM      8  C   UNL d   1      59.111  -1.418  29.083  0.00  0.00     0.092 A 
ATOM      9  C   UNL d   1      59.863  -2.809  28.604  0.00  0.00     0.002 A 
ATOM     10  C   UNL d   1      59.110  -2.839  28.934  0.00  0.00     0.002 A 
ATOM     11  C   UNL d   1      58.730  -2.147  29.174  0.00  0.00     0.020 A 
ENDBRANCH   1   2
BRANCH   1  12
ATOM     12  C   UNL d   1      58.119  -0.068  30.323  0.00  0.00     0.046 C 
BRANCH  12  13
ATOM     13  C   UNL d   1      57.431  -0.088  30.778  0.00  0.00     0.124 C 
BRANCH  13  14
ATOM     14  O   UNL d   1      57.438   0.200  31.551  0.00  0.00    -0.303 OA
BRANCH  14  15
ATOM     15  C   UNL d   1      56.961  -0.149  32.127  0.00  0.00     0.122 A 
ATOM     16  C   UNL d   1      57.023   0.091  32.914  0.00  0.00     0.117 A 
ATOM     17  C   UNL d   1      56.549  -0.254  33.492  0.00  0.00     0.026 A 
ATOM     18  C   UNL d   1      56.007  -0.847  33.278  0.00  0.00     0.002 A 
ATOM     19  C   UNL d   1      55.943  -1.088  32.495  0.00  0.00     0.002 A 
ATOM     20  C   UNL d   1      56.420  -0.739  31.920  0.00  0.00     0.027 A 
BRANCH  16  21
ATOM     21  O   UNL d   1      57.564   0.682  33.122  0.00  0.00    -0.326 OA
ATOM     22  C   UNL d   1      57.932   0.657  33.863  0.00  0.00     0.181 C 
ENDBRANCH  16  21
ENDBRANCH  14  15
ENDBRANCH  13  14
ENDBRANCH  12  13
ENDBRANCH   1  12
TORSDOF 6
ENDMDL
MODEL 4
REMARK VINA RESULT:      -4.1      1.263      2.014
REMARK  6 active torsions:
REMARK  status: ('A' for Active; 'I' for Inactive)
REMARK    1  A    between atoms: C_9  and  N_2 
REMARK    2  A    between atoms: O_11  and  C_7 
REMARK    3  A    between atoms: C_8  and  O_10 
REMARK    4  A    between atoms: C_12  and  C_9 
REMARK    5  A    between atoms: O_10  and  C_15 
REMARK    6  A    between atoms: C_15  and  C_12 
ROOT
ATOM      1  C   UNL d   1      57.212  -0.206  31.743  0.00  0.00     0.087 C 
ENDROOT
BRANCH   1   2
ATOM      2  N   UNL d   1      56.625  -0.602  32.167  0.00  0.00    -0.251 N 
ATOM      3  C   UNL d   1      56.343  -1.380  32.070  0.00  0.00     0.378 A 
ATOM      4  O   UNL d   1      55.749  -1.510  32.636  0.00  0.00    -0.258 OA
ATOM      5  O   UNL d   1      56.613  -1.916  31.509  0.00  0.00    -0.237 OA
ATOM      6  C   UNL d   1      55.664  -0.821  33.078  0.00  0.00     0.121 A 
ATOM      7  C   UNL d   1      55.165  -0.619  33.712  0.00  0.00     0.026 A 
ATOM      8  C   UNL d   1      56.204  -0.259  32.790  0.00  0.00     0.092 A 
ATOM      9  C   UNL d   1      55.206   0.128  34.049  0.00  0.00     0.002 A 
ATOM     10  C   UNL d   1      55.742   0.682  33.761  0.00  0.00     0.002 A 
ATOM     11  C   UNL d   1      56.242   0.494  33.133  0.00  0.00     0.020 A 
ENDBRANCH   1   2
BRANCH   1  12
ATOM     12  C   UNL d   1      57.445  -0.485  31.012  0.00  0.00     0.046 C 
BRANCH  12  13
ATOM     13  C   UNL d   1      58.063  -0.116  30.609  0.00  0.00     0.124 C 
BRANCH  13  14
ATOM     14  O   UNL d   1      58.412  -0.486  29.958  0.00  0.00    -0.303 OA
BRANCH  14  15
ATOM     15  C   UNL d   1      59.173  -0.276  29.722  0.00  0.00     0.122 A 
ATOM     16  C   UNL d   1      59.636  -0.811  29.297  0.00  0.00     0.117 A 
ATOM     17  C   UNL d   1      60.397  -0.605  29.059  0.00  0.00     0.026 A 
ATOM     18  C   UNL d   1      60.698   0.146  29.250  0.00  0.00     0.002 A 
ATOM     19  C   UNL d   1      60.240   0.681  29.674  0.00  0.00     0.002 A 
ATOM     20  C   UNL d   1      59.478   0.470  29.910  0.00  0.00     0.027 A 
BRANCH  16  21
ATOM     21  O   UNL d   1      59.332  -1.557  29.109  0.00  0.00    -0.326 OA
ATOM     22  C   UNL d   1      59.771  -2.069  28.630  0.00  0.00     0.181 C 
ENDBRANCH  16  21
ENDBRANCH  14  15
ENDBRANCH  13  14
ENDBRANCH  12  13
ENDBRANCH   1  12
TORSDOF 6
ENDMDL
MODEL 5
REMARK VINA RESULT:      -4.0      1.756      4.975
REMARK  6 active torsions:
REMARK  status: ('A' for Active; 'I' for Inactive)
REMARK    1  A    between atoms: C_9  and  N_2 
REMARK    2  A    between atoms: O_11  and  C_7 
REMARK    3  A    between atoms: C_8  and  O_10 
REMARK    4  A    between atoms: C_12  and  C_9 
REMARK    5  A    between atoms: O_10  and  C_15 
REMARK    6  A    between atoms: C_15  and  C_12 
ROOT
ATOM      1  C   UNL d   1      58.244  -0.276  30.227  0.00  0.00     0.087 C 
ENDROOT
BRANCH   1   2
ATOM      2  N   UNL d   1      58.657   0.053  29.594  0.00  0.00    -0.251 N 
ATOM      3  C   UNL d   1      58.363   0.466  28.934  0.00  0.00     0.378 A 
ATOM      4  O   UNL d   1      59.007   0.682  28.456  0.00  0.00    -0.258 OA
ATOM      5  O   UNL d   1      57.570   0.627  28.790  0.00  0.00    -0.237 OA
ATOM      6  C   UNL d   1      59.694   0.405  28.817  0.00  0.00     0.121 A 
ATOM      7  C   UNL d   1      60.497   0.450  28.605  0.00  0.00     0.026 A 
ATOM      8  C   UNL d   1      59.480   0.016  29.520  0.00  0.00     0.092 A 
ATOM      9  C   UNL d   1      61.071   0.114  29.085  0.00  0.00     0.002 A 
ATOM     10  C   UNL d   1      60.855  -0.270  29.780  0.00  0.00     0.002 A 
ATOM     11  C   UNL d   1      60.062  -0.321  30.001  0.00  0.00     0.020 A 
ENDBRANCH   1   2
BRANCH   1  12
ATOM     12  C   UNL d   1      57.726   0.185  30.659  0.00  0.00     0.046 C 
BRANCH  12  13
ATOM     13  C   UNL d   1      57.195  -0.171  31.181  0.00  0.00     0.124 C 
BRANCH  13  14
ATOM     14  O   UNL d   1      57.284  -0.067  31.996  0.00  0.00    -0.303 OA
BRANCH  14  15
ATOM     15  C   UNL d   1      56.736  -0.395  32.516  0.00  0.00     0.122 A 
ATOM     16  C   UNL d   1      56.627  -0.063  33.264  0.00  0.00     0.117 A 
ATOM     17  C   UNL d   1      56.080  -0.388  33.787  0.00  0.00     0.026 A 
ATOM     18  C   UNL d   1      55.638  -1.052  33.559  0.00  0.00     0.002 A 
ATOM     19  C   UNL d   1      55.743  -1.385  32.815  0.00  0.00     0.002 A 
ATOM     20  C   UNL d   1      56.292  -1.057  32.294  0.00  0.00     0.027 A 
BRANCH  16  21
ATOM     21  O   UNL d   1      57.071   0.599  33.488  0.00  0.00    -0.326 OA
ATOM     22  C   UNL d   1      57.313   0.682  34.274  0.00  0.00     0.181 C 
ENDBRANCH  16  21
ENDBRANCH  14  15
ENDBRANCH  13  14
ENDBRANCH  12  13
ENDBRANCH   1  12
TORSDOF 6
ENDMDL
MODEL 6
REMARK VINA RESULT:      -3.8      1.970      5.214
REMARK  6 active torsions:
REMARK  status: ('A' for Active; 'I' for Inactive)
REMARK    1  A    between atoms: C_9  and  N_2 
REMARK    2  A    between atoms: O_11  and  C_7 
REMARK    3  A    between atoms: C_8  and  O_10 
REMARK    4  A    between atoms: C_12  and  C_9 
REMARK    5  A    between atoms: O_10  and  C_15 
REMARK    6  A    between atoms: C_15  and  C_12 
ROOT
ATOM      1  C   UNL d   1      58.417   0.680  30.754  0.00  0.00     0.087 C 
ENDROOT
BRANCH   1   2
ATOM      2  N   UNL d   1      58.676   0.605  29.975  0.00  0.00    -0.251 N 
ATOM      3  C   UNL d   1      58.228   0.578  29.274  0.00  0.00     0.378 A 
ATOM      4  O   UNL d   1      58.752   0.498  28.636  0.00  0.00    -0.258 OA
ATOM      5  O   UNL d   1      57.408   0.624  29.233  0.00  0.00    -0.237 OA
ATOM      6  C   UNL d   1      59.518   0.475  28.938  0.00  0.00     0.121 A 
ATOM      7  C   UNL d   1      60.263   0.403  28.575  0.00  0.00     0.026 A 
ATOM      8  C   UNL d   1      59.473   0.542  29.765  0.00  0.00     0.092 A 
ATOM      9  C   UNL d   1      60.946   0.398  29.030  0.00  0.00     0.002 A 
ATOM     10  C   UNL d   1      60.897   0.463  29.849  0.00  0.00     0.002 A 
ATOM     11  C   UNL d   1      60.164   0.535  30.220  0.00  0.00     0.020 A 
ENDBRANCH   1   2
BRANCH   1  12
ATOM     12  C   UNL d   1      57.876   0.148  31.058  0.00  0.00     0.046 C 
BRANCH  12  13
ATOM     13  C   UNL d   1      57.578   0.253  31.819  0.00  0.00     0.124 C 
BRANCH  13  14
ATOM     14  O   UNL d   1      57.042  -0.291  32.132  0.00  0.00    -0.303 OA
BRANCH  14  15
ATOM     15  C   UNL d   1      56.638  -0.119  32.831  0.00  0.00     0.122 A 
ATOM     16  C   UNL d   1      55.988  -0.575  33.054  0.00  0.00     0.117 A 
ATOM     17  C   UNL d   1      55.582  -0.406  33.750  0.00  0.00     0.026 A 
ATOM     18  C   UNL d   1      55.830   0.226  34.228  0.00  0.00     0.002 A 
ATOM     19  C   UNL d   1      56.478   0.682  34.009  0.00  0.00     0.002 A 
ATOM     20  C   UNL d   1      56.881   0.510  33.310  0.00  0.00     0.027 A 
BRANCH  16  21
ATOM     21  O   UNL d   1      55.743  -1.204  32.575  0.00  0.00    -0.326 OA
ATOM     22  C   UNL d   1      55.409  -1.876  32.922  0.00  0.00     0.181 C 
ENDBRANCH  16  21
ENDBRANCH  14  15
ENDBRANCH  13  14
ENDBRANCH  12  13
ENDBRANCH   1  12
TORSDOF 6
ENDMDL
MODEL 7
REMARK VINA RESULT:      -3.1      1.573      5.586
REMARK  6 active torsions:
REMARK  status: ('A' for Active; 'I' for Inactive)
REMARK    1  A    between atoms: C_9  and  N_2 
REMARK    2  A    between atoms: O_11  and  C_7 
REMARK    3  A    between atoms: C_8  and  O_10 
REMARK    4  A    between atoms: C_12  and  C_9 
REMARK    5  A    between atoms: O_10  and  C_15 
REMARK    6  A    between atoms: C_15  and  C_12 
ROOT
ATOM      1  C   UNL d   1      57.374   0.239  31.316  0.00  0.00     0.087 C 
ENDROOT
BRANCH   1   2
ATOM      2  N   UNL d   1      57.715  -0.303  30.797  0.00  0.00    -0.251 N 
ATOM      3  C   UNL d   1      57.555  -1.115  30.707  0.00  0.00     0.378 A 
ATOM      4  O   UNL d   1      58.049  -1.411  30.109  0.00  0.00    -0.258 OA
ATOM      5  O   UNL d   1      57.000  -1.540  31.141  0.00  0.00    -0.237 OA
ATOM      6  C   UNL d   1      58.511  -0.789  29.831  0.00  0.00     0.121 A 
ATOM      7  C   UNL d   1      59.099  -0.744  29.244  0.00  0.00     0.026 A 
ATOM      8  C   UNL d   1      58.307  -0.103  30.254  0.00  0.00     0.092 A 
ATOM      9  C   UNL d   1      59.473  -0.031  29.085  0.00  0.00     0.002 A 
ATOM     10  C   UNL d   1      59.267   0.645  29.507  0.00  0.00     0.002 A 
ATOM     11  C   UNL d   1      58.686   0.614  30.092  0.00  0.00     0.020 A 
ENDBRANCH   1   2
BRANCH   1  12
ATOM     12  C   UNL d   1      56.780   0.001  31.823  0.00  0.00     0.046 C 
BRANCH  12  13
ATOM     13  C   UNL d   1      56.705   0.353  32.565  0.00  0.00     0.124 C 
BRANCH  13  14
ATOM     14  O   UNL d   1      55.959   0.433  32.911  0.00  0.00    -0.303 OA
BRANCH  14  15
ATOM     15  C   UNL d   1      55.890   0.513  33.729  0.00  0.00     0.122 A 
ATOM     16  C   UNL d   1      55.144   0.578  34.075  0.00  0.00     0.117 A 
ATOM     17  C   UNL d   1      55.070   0.658  34.891  0.00  0.00     0.026 A 
ATOM     18  C   UNL d   1      55.752   0.672  35.366  0.00  0.00     0.002 A 
ATOM     19  C   UNL d   1      56.497   0.608  35.024  0.00  0.00     0.002 A 
ATOM     20  C   UNL d   1      56.566   0.528  34.206  0.00  0.00     0.027 A 
BRANCH  16  21
ATOM     21  O   UNL d   1      54.468   0.563  33.598  0.00  0.00    -0.326 OA
ATOM     22  C   UNL d   1      53.724   0.682  33.941  0.00  0.00     0.181 C 
ENDBRANCH  16  21
ENDBRANCH  14  15
ENDBRANCH  13  14
ENDBRANCH  12  13
ENDBRANCH   1  12
TORSDOF 6
ENDMDL
