MODEL 1
REMARK VINA RESULT:      51.3      0.000      0.000
REMARK  4 active torsions:
REMARK  status: ('A' for Active; 'I' for Inactive)
REMARK    1  A    between atoms: N_5  and  C_9 
REMARK    2  A    between atoms: O_11  and  C_8 
REMARK    3  A    between atoms: C_20  and  O_11 
REMARK    4  A    between atoms: C_21  and  C_20 
ROOT
ATOM      1  C   UNL d   1      14.625  13.392  -1.473  0.00  0.00     0.009 A 
ATOM      2  C   UNL d   1      14.261  12.997  -2.094  0.00  0.00     0.046 A 
ATOM      3  C   UNL d   1      14.822  12.997  -0.785  0.00  0.00     0.064 A 
ATOM      4  C   UNL d   1      14.654  12.195  -0.713  0.00  0.00     0.300 A 
ATOM      5  C   UNL d   1      14.088  12.195  -2.033  0.00  0.00     0.105 A 
ATOM      6  O   UNL d   1      14.289  11.791  -1.329  0.00  0.00    -0.273 OA
ATOM      7  C   UNL d   1      14.064  13.404  -2.791  0.00  0.00     0.102 A 
ATOM      8  C   UNL d   1      13.725  11.791  -2.646  0.00  0.00     0.025 A 
ATOM      9  C   UNL d   1      13.693  12.997  -3.419  0.00  0.00     0.025 A 
ATOM     10  O   UNL d   1      14.850  11.779  -0.014  0.00  0.00    -0.259 OA
ATOM     11  C   UNL d   1      13.528  12.195  -3.339  0.00  0.00     0.004 A 
ATOM     12  C   UNL d   1      14.795  14.198  -1.546  0.00  0.00     0.000 A 
ATOM     13  C   UNL d   1      15.188  13.392  -0.159  0.00  0.00     0.005 A 
ATOM     14  C   UNL d   1      13.159  11.791  -3.967  0.00  0.00     0.000 C 
ATOM     15  C   UNL d   1      15.161  14.609  -0.930  0.00  0.00     0.000 A 
ATOM     16  C   UNL d   1      15.358  14.198  -0.232  0.00  0.00     0.000 A 
ENDROOT
BRANCH   7  17
ATOM     17  O   UNL d   1      14.232  14.198  -2.859  0.00  0.00    -0.305 OA
BRANCH  17  18
ATOM     18  C   UNL d   1      13.848  14.659  -3.436  0.00  0.00     0.122 C 
BRANCH  18  19
ATOM     19  C   UNL d   1      14.233  15.313  -3.753  0.00  0.00     0.025 A 
ATOM     20  C   UNL d   1      14.547  15.887  -3.251  0.00  0.00     0.004 A 
ATOM     21  C   UNL d   1      14.933  16.542  -3.555  0.00  0.00     0.024 A 
ATOM     22  C   UNL d   1      15.008  16.628  -4.370  0.00  0.00     0.127 A 
ATOM     23  C   UNL d   1      14.700  16.062  -4.884  0.00  0.00     0.024 A 
ATOM     24  C   UNL d   1      14.306  15.395  -4.568  0.00  0.00     0.004 A 
BRANCH  22  25
ATOM     25  N   UNL d   1      15.395  17.284  -4.687  0.00  0.00    -0.114 N 
ATOM     26  O   UNL d   1      16.200  17.264  -4.833  0.00  0.00    -0.532 OA
ATOM     27  O   UNL d   1      14.959  17.965  -4.858  0.00  0.00    -0.532 OA
ENDBRANCH  22  25
ENDBRANCH  18  19
ENDBRANCH  17  18
ENDBRANCH   7  17
TORSDOF 4
ENDMDL
MODEL 2
REMARK VINA RESULT:      51.3      1.847      3.176
REMARK  4 active torsions:
REMARK  status: ('A' for Active; 'I' for Inactive)
REMARK    1  A    between atoms: N_5  and  C_9 
REMARK    2  A    between atoms: O_11  and  C_8 
REMARK    3  A    between atoms: C_20  and  O_11 
REMARK    4  A    between atoms: C_21  and  C_20 
ROOT
ATOM      1  C   UNL d   1      13.504  13.431  -3.447  0.00  0.00     0.009 A 
ATOM      2  C   UNL d   1      13.834  13.024  -2.815  0.00  0.00     0.046 A 
ATOM      3  C   UNL d   1      13.166  13.027  -4.073  0.00  0.00     0.064 A 
ATOM      4  C   UNL d   1      13.157  12.204  -4.070  0.00  0.00     0.300 A 
ATOM      5  C   UNL d   1      13.830  12.201  -2.800  0.00  0.00     0.105 A 
ATOM      6  O   UNL d   1      13.484  11.789  -3.441  0.00  0.00    -0.273 OA
ATOM      7  C   UNL d   1      14.176  13.441  -2.181  0.00  0.00     0.102 A 
ATOM      8  C   UNL d   1      14.156  11.786  -2.175  0.00  0.00     0.025 A 
ATOM      9  C   UNL d   1      14.510  13.021  -1.541  0.00  0.00     0.025 A 
ATOM     10  O   UNL d   1      12.814  11.780  -4.703  0.00  0.00    -0.259 OA
ATOM     11  C   UNL d   1      14.496  12.198  -1.546  0.00  0.00     0.004 A 
ATOM     12  C   UNL d   1      13.514  14.258  -3.450  0.00  0.00     0.000 A 
ATOM     13  C   UNL d   1      12.834  13.434  -4.709  0.00  0.00     0.005 A 
ATOM     14  C   UNL d   1      14.830  11.783  -0.906  0.00  0.00     0.000 C 
ATOM     15  C   UNL d   1      13.186  14.681  -4.079  0.00  0.00     0.000 A 
ATOM     16  C   UNL d   1      12.844  14.261  -4.713  0.00  0.00     0.000 A 
ENDROOT
BRANCH   7  17
ATOM     17  O   UNL d   1      14.184  14.255  -2.188  0.00  0.00    -0.305 OA
BRANCH  17  18
ATOM     18  C   UNL d   1      14.054  14.680  -1.484  0.00  0.00     0.122 C 
BRANCH  18  19
ATOM     19  C   UNL d   1      14.532  15.326  -1.309  0.00  0.00     0.025 A 
ATOM     20  C   UNL d   1      14.539  15.979  -1.813  0.00  0.00     0.004 A 
ATOM     21  C   UNL d   1      15.011  16.628  -1.649  0.00  0.00     0.024 A 
ATOM     22  C   UNL d   1      15.483  16.628  -0.974  0.00  0.00     0.127 A 
ATOM     23  C   UNL d   1      15.486  15.983  -0.461  0.00  0.00     0.024 A 
ATOM     24  C   UNL d   1      15.002  15.322  -0.633  0.00  0.00     0.004 A 
BRANCH  22  25
ATOM     25  N   UNL d   1      15.962  17.277  -0.799  0.00  0.00    -0.114 N 
ATOM     26  O   UNL d   1      16.661  17.180  -0.386  0.00  0.00    -0.532 OA
ATOM     27  O   UNL d   1      15.728  18.029  -1.047  0.00  0.00    -0.532 OA
ENDBRANCH  22  25
ENDBRANCH  18  19
ENDBRANCH  17  18
ENDBRANCH   7  17
TORSDOF 4
ENDMDL
