MODEL 1
REMARK VINA RESULT:      56.3      0.000      0.000
REMARK  5 active torsions:
REMARK  status: ('A' for Active; 'I' for Inactive)
REMARK    1  A    between atoms: C_14  and  N_4 
REMARK    2  A    between atoms: C_15  and  C_9 
REMARK    3  A    between atoms: O_20  and  C_12 
REMARK    4  A    between atoms: O_21  and  C_13 
REMARK    5  A    between atoms: C_18  and  C_14 
ROOT
ATOM      1  C   UNL d   1      45.869 -16.421  43.709  0.00  0.00     0.056 A 
ATOM      2  C   UNL d   1      45.798 -17.051  44.246  0.00  0.00     0.107 A 
ATOM      3  C   UNL d   1      46.009 -17.813  44.019  0.00  0.00     0.038 A 
ATOM      4  N   UNL d   1      46.361 -17.332  42.729  0.00  0.00    -0.304 N 
ATOM      5  N   UNL d   1      45.503 -16.743  44.954  0.00  0.00    -0.148 NA
ATOM      6  C   UNL d   1      46.152 -16.563  42.947  0.00  0.00     0.083 A 
ATOM      7  N   UNL d   1      45.393 -15.931  44.858  0.00  0.00    -0.148 NA
ATOM      8  C   UNL d   1      46.292 -17.955  43.256  0.00  0.00     0.068 A 
ATOM      9  C   UNL d   1      45.617 -15.727  44.091  0.00  0.00     0.106 A 
ATOM     10  C   UNL d   1      46.500 -18.716  43.037  0.00  0.00     0.044 A 
ATOM     11  C   UNL d   1      45.937 -18.436  44.554  0.00  0.00     0.029 A 
ATOM     12  C   UNL d   1      46.431 -19.339  43.564  0.00  0.00     0.118 A 
ATOM     13  C   UNL d   1      46.148 -19.198  44.327  0.00  0.00     0.116 A 
ENDROOT
BRANCH   4  14
ATOM     14  C   UNL d   1      46.647 -17.475  41.960  0.00  0.00     0.080 C 
BRANCH  14  15
ATOM     15  C   UNL d   1      46.130 -17.716  41.366  0.00  0.00     0.018 A 
ATOM     16  C   UNL d   1      45.330 -17.530  41.419  0.00  0.00     0.002 A 
ATOM     17  C   UNL d   1      44.805 -17.772  40.822  0.00  0.00     0.000 A 
ATOM     18  C   UNL d   1      45.091 -18.201  40.172  0.00  0.00     0.000 A 
ATOM     19  C   UNL d   1      45.899 -18.387  40.123  0.00  0.00     0.000 A 
ATOM     20  C   UNL d   1      44.573 -18.447  39.570  0.00  0.00     0.000 C 
ATOM     21  C   UNL d   1      46.415 -18.146  40.716  0.00  0.00     0.002 A 
ENDBRANCH  14  15
ENDBRANCH   4  14
BRANCH   9  22
ATOM     22  C   UNL d   1      45.562 -14.942  43.845  0.00  0.00     0.020 A 
ATOM     23  C   UNL d   1      44.821 -14.605  43.716  0.00  0.00     0.004 A 
ATOM     24  C   UNL d   1      44.758 -13.817  43.468  0.00  0.00     0.030 A 
ATOM     25  C   UNL d   1      45.454 -13.366  43.349  0.00  0.00     0.140 A 
ATOM     26  C   UNL d   1      46.194 -13.711  43.481  0.00  0.00     0.030 A 
ATOM     27  F   UNL d   1      45.411 -12.576  43.101  0.00  0.00    -0.204 F 
ATOM     28  C   UNL d   1      46.249 -14.494  43.727  0.00  0.00     0.004 A 
ENDBRANCH   9  22
BRANCH  12  29
ATOM     29  O   UNL d   1      46.645 -20.114  43.337  0.00  0.00    -0.326 OA
ATOM     30  C   UNL d   1      46.644 -20.330  42.538  0.00  0.00     0.181 C 
ENDBRANCH  12  29
BRANCH  13  31
ATOM     31  O   UNL d   1      46.077 -19.832  44.864  0.00  0.00    -0.326 OA
ATOM     32  C   UNL d   1      45.404 -20.309  44.855  0.00  0.00     0.181 C 
ENDBRANCH  13  31
TORSDOF 5
ENDMDL
