MODEL 1
REMARK VINA RESULT:      -2.9      0.000      0.000
REMARK  4 active torsions:
REMARK  status: ('A' for Active; 'I' for Inactive)
REMARK    1  A    between atoms: C_6  and  C_1 
REMARK       I    between atoms: N_9  and  C_6 
REMARK    2  A    between atoms: C_13  and  N_9 
REMARK    3  A    between atoms: O_12  and  C_14 
REMARK    4  A    between atoms: C_14  and  C_13 
ROOT
ATOM      1  C   UNL d   1      31.215  16.577 -23.870  0.00  0.00     0.084 A 
ATOM      2  C   UNL d   1      31.260  15.816 -23.546  0.00  0.00     0.137 A 
ATOM      3  S   UNL d   1      30.506  15.482 -23.578  0.00  0.00    -0.066 SA
ATOM      4  C   UNL d   1      30.437  16.707 -24.099  0.00  0.00     0.013 A 
ATOM      5  C   UNL d   1      29.999  16.038 -23.921  0.00  0.00     0.031 A 
ATOM      6  N   UNL d   1      31.943  15.453 -23.243  0.00  0.00    -0.141 N 
ATOM      7  C   UNL d   1      30.067  17.358 -24.450  0.00  0.00     0.001 A 
ATOM      8  C   UNL d   1      29.191  16.003 -24.088  0.00  0.00     0.006 A 
ATOM      9  C   UNL d   1      29.258  17.325 -24.619  0.00  0.00     0.000 A 
ATOM     10  C   UNL d   1      28.824  16.649 -24.438  0.00  0.00     0.001 A 
ENDROOT
BRANCH   1  11
ATOM     11  C   UNL d   1      31.848  17.105 -23.946  0.00  0.00     0.281 C 
ATOM     12  O   UNL d   1      32.293  17.115 -24.639  0.00  0.00    -0.265 OA
ATOM     13  N   UNL d   1      32.037  17.622 -23.333  0.00  0.00    -0.204 NA
BRANCH  13  14
ATOM     14  C   UNL d   1      32.669  18.149 -23.408  0.00  0.00     0.128 C 
BRANCH  14  15
ATOM     15  C   UNL d   1      32.956  18.554 -22.751  0.00  0.00     0.137 C 
BRANCH  15  16
ATOM     16  O   UNL d   1      32.948  19.377 -22.734  0.00  0.00    -0.325 OA
ATOM     17  C   UNL d   1      33.241  19.784 -22.078  0.00  0.00     0.182 C 
ENDBRANCH  15  16
ENDBRANCH  14  15
ENDBRANCH  13  14
ENDBRANCH   1  11
TORSDOF 4
ENDMDL
MODEL 2
REMARK VINA RESULT:      -2.2      1.729      3.544
REMARK  4 active torsions:
REMARK  status: ('A' for Active; 'I' for Inactive)
REMARK    1  A    between atoms: C_6  and  C_1 
REMARK       I    between atoms: N_9  and  C_6 
REMARK    2  A    between atoms: C_13  and  N_9 
REMARK    3  A    between atoms: O_12  and  C_14 
REMARK    4  A    between atoms: C_14  and  C_13 
ROOT
ATOM      1  C   UNL d   1      31.852  16.799 -24.161  0.00  0.00     0.084 A 
ATOM      2  C   UNL d   1      32.382  16.522 -23.590  0.00  0.00     0.137 A 
ATOM      3  S   UNL d   1      32.969  17.094 -23.489  0.00  0.00    -0.066 SA
ATOM      4  C   UNL d   1      32.112  17.538 -24.410  0.00  0.00     0.013 A 
ATOM      5  C   UNL d   1      32.797  17.722 -24.000  0.00  0.00     0.031 A 
ATOM      6  N   UNL d   1      32.334  15.796 -23.188  0.00  0.00    -0.141 N 
ATOM      7  C   UNL d   1      31.809  18.072 -24.963  0.00  0.00     0.001 A 
ATOM      8  C   UNL d   1      33.192  18.436 -24.131  0.00  0.00     0.006 A 
ATOM      9  C   UNL d   1      32.203  18.788 -25.097  0.00  0.00     0.000 A 
ATOM     10  C   UNL d   1      32.890  18.966 -24.681  0.00  0.00     0.001 A 
ENDROOT
BRANCH   1  11
ATOM     11  C   UNL d   1      31.180  16.396 -24.429  0.00  0.00     0.281 C 
ATOM     12  O   UNL d   1      31.228  15.917 -25.097  0.00  0.00    -0.265 OA
ATOM     13  N   UNL d   1      30.462  16.470 -24.032  0.00  0.00    -0.204 NA
BRANCH  13  14
ATOM     14  C   UNL d   1      29.791  16.068 -24.299  0.00  0.00     0.128 C 
BRANCH  14  15
ATOM     15  C   UNL d   1      29.055  16.208 -23.956  0.00  0.00     0.137 C 
BRANCH  15  16
ATOM     16  O   UNL d   1      28.402  15.759 -24.177  0.00  0.00    -0.325 OA
ATOM     17  C   UNL d   1      27.871  15.487 -23.607  0.00  0.00     0.182 C 
ENDBRANCH  15  16
ENDBRANCH  14  15
ENDBRANCH  13  14
ENDBRANCH   1  11
TORSDOF 4
ENDMDL
MODEL 3
REMARK VINA RESULT:      -2.0      1.699      4.120
REMARK  4 active torsions:
REMARK  status: ('A' for Active; 'I' for Inactive)
REMARK    1  A    between atoms: C_6  and  C_1 
REMARK       I    between atoms: N_9  and  C_6 
REMARK    2  A    between atoms: C_13  and  N_9 
REMARK    3  A    between atoms: O_12  and  C_14 
REMARK    4  A    between atoms: C_14  and  C_13 
ROOT
ATOM      1  C   UNL d   1      32.848  18.651 -23.588  0.00  0.00     0.084 A 
ATOM      2  C   UNL d   1      32.983  19.032 -24.310  0.00  0.00     0.137 A 
ATOM      3  S   UNL d   1      33.151  19.824 -24.152  0.00  0.00    -0.066 SA
ATOM      4  C   UNL d   1      32.933  19.208 -22.990  0.00  0.00     0.013 A 
ATOM      5  C   UNL d   1      33.119  19.929 -23.332  0.00  0.00     0.031 A 
ATOM      6  N   UNL d   1      32.954  18.680 -25.062  0.00  0.00    -0.141 N 
ATOM      7  C   UNL d   1      32.865  19.150 -22.168  0.00  0.00     0.001 A 
ATOM      8  C   UNL d   1      33.240  20.601 -22.867  0.00  0.00     0.006 A 
ATOM      9  C   UNL d   1      32.985  19.821 -21.700  0.00  0.00     0.000 A 
ATOM     10  C   UNL d   1      33.171  20.542 -22.050  0.00  0.00     0.001 A 
ENDROOT
BRANCH   1  11
ATOM     11  C   UNL d   1      32.661  17.850 -23.495  0.00  0.00     0.281 C 
ATOM     12  O   UNL d   1      33.239  17.321 -23.240  0.00  0.00    -0.265 OA
ATOM     13  N   UNL d   1      31.901  17.577 -23.654  0.00  0.00    -0.204 NA
BRANCH  13  14
ATOM     14  C   UNL d   1      31.714  16.777 -23.561  0.00  0.00     0.128 C 
BRANCH  14  15
ATOM     15  C   UNL d   1      31.008  16.475 -23.861  0.00  0.00     0.137 C 
BRANCH  15  16
ATOM     16  O   UNL d   1      30.448  16.147 -23.355  0.00  0.00    -0.325 OA
ATOM     17  C   UNL d   1      29.764  15.799 -23.659  0.00  0.00     0.182 C 
ENDBRANCH  15  16
ENDBRANCH  14  15
ENDBRANCH  13  14
ENDBRANCH   1  11
TORSDOF 4
ENDMDL
MODEL 4
REMARK VINA RESULT:      -1.9      3.829      6.523
REMARK  4 active torsions:
REMARK  status: ('A' for Active; 'I' for Inactive)
REMARK    1  A    between atoms: C_6  and  C_1 
REMARK       I    between atoms: N_9  and  C_6 
REMARK    2  A    between atoms: C_13  and  N_9 
REMARK    3  A    between atoms: O_12  and  C_14 
REMARK    4  A    between atoms: C_14  and  C_13 
ROOT
ATOM      1  C   UNL d   1      32.739  22.012 -21.165  0.00  0.00     0.084 A 
ATOM      2  C   UNL d   1      32.806  22.585 -21.758  0.00  0.00     0.137 A 
ATOM      3  S   UNL d   1      33.000  23.302 -21.398  0.00  0.00    -0.066 SA
ATOM      4  C   UNL d   1      32.892  22.376 -20.444  0.00  0.00     0.013 A 
ATOM      5  C   UNL d   1      33.052  23.167 -20.583  0.00  0.00     0.031 A 
ATOM      6  N   UNL d   1      32.697  22.462 -22.572  0.00  0.00    -0.141 N 
ATOM      7  C   UNL d   1      32.905  22.084 -19.671  0.00  0.00     0.001 A 
ATOM      8  C   UNL d   1      33.228  23.680 -19.960  0.00  0.00     0.006 A 
ATOM      9  C   UNL d   1      33.081  22.596 -19.045  0.00  0.00     0.000 A 
ATOM     10  C   UNL d   1      33.241  23.390 -19.192  0.00  0.00     0.001 A 
ENDROOT
BRANCH   1  11
ATOM     11  C   UNL d   1      32.551  21.215 -21.286  0.00  0.00     0.281 C 
ATOM     12  O   UNL d   1      31.813  20.928 -21.059  0.00  0.00    -0.265 OA
ATOM     13  N   UNL d   1      33.097  20.704 -21.632  0.00  0.00    -0.204 NA
BRANCH  13  14
ATOM     14  C   UNL d   1      32.910  19.908 -21.753  0.00  0.00     0.128 C 
BRANCH  14  15
ATOM     15  C   UNL d   1      33.241  19.492 -22.382  0.00  0.00     0.137 C 
BRANCH  15  16
ATOM     16  O   UNL d   1      32.797  18.930 -22.788  0.00  0.00    -0.325 OA
ATOM     17  C   UNL d   1      33.019  18.691 -23.546  0.00  0.00     0.182 C 
ENDBRANCH  15  16
ENDBRANCH  14  15
ENDBRANCH  13  14
ENDBRANCH   1  11
TORSDOF 4
ENDMDL
MODEL 5
REMARK VINA RESULT:      -1.4      3.380      5.779
REMARK  4 active torsions:
REMARK  status: ('A' for Active; 'I' for Inactive)
REMARK    1  A    between atoms: C_6  and  C_1 
REMARK       I    between atoms: N_9  and  C_6 
REMARK    2  A    between atoms: C_13  and  N_9 
REMARK    3  A    between atoms: O_12  and  C_14 
REMARK    4  A    between atoms: C_14  and  C_13 
ROOT
ATOM      1  C   UNL d   1      32.657  21.570 -21.498  0.00  0.00     0.084 A 
ATOM      2  C   UNL d   1      32.251  21.942 -20.879  0.00  0.00     0.137 A 
ATOM      3  S   UNL d   1      32.147  22.735 -21.085  0.00  0.00    -0.066 SA
ATOM      4  C   UNL d   1      32.801  22.132 -22.079  0.00  0.00     0.013 A 
ATOM      5  C   UNL d   1      32.490  22.848 -21.830  0.00  0.00     0.031 A 
ATOM      6  N   UNL d   1      31.994  21.582 -20.176  0.00  0.00    -0.141 N 
ATOM      7  C   UNL d   1      33.180  22.083 -22.812  0.00  0.00     0.001 A 
ATOM      8  C   UNL d   1      32.549  23.523 -22.301  0.00  0.00     0.006 A 
ATOM      9  C   UNL d   1      33.241  22.758 -23.286  0.00  0.00     0.000 A 
ATOM     10  C   UNL d   1      32.926  23.474 -23.029  0.00  0.00     0.001 A 
ENDROOT
BRANCH   1  11
ATOM     11  C   UNL d   1      32.875  20.772 -21.517  0.00  0.00     0.281 C 
ATOM     12  O   UNL d   1      33.240  20.430 -20.862  0.00  0.00    -0.265 OA
ATOM     13  N   UNL d   1      32.731  20.315 -22.187  0.00  0.00    -0.204 NA
BRANCH  13  14
ATOM     14  C   UNL d   1      32.949  19.517 -22.206  0.00  0.00     0.128 C 
BRANCH  14  15
ATOM     15  C   UNL d   1      32.934  19.097 -22.915  0.00  0.00     0.137 C 
BRANCH  15  16
ATOM     16  O   UNL d   1      32.699  18.308 -22.925  0.00  0.00    -0.325 OA
ATOM     17  C   UNL d   1      32.896  17.823 -23.563  0.00  0.00     0.182 C 
ENDBRANCH  15  16
ENDBRANCH  14  15
ENDBRANCH  13  14
ENDBRANCH   1  11
TORSDOF 4
ENDMDL
MODEL 6
REMARK VINA RESULT:      -0.4      2.554      5.216
REMARK  4 active torsions:
REMARK  status: ('A' for Active; 'I' for Inactive)
REMARK    1  A    between atoms: C_6  and  C_1 
REMARK       I    between atoms: N_9  and  C_6 
REMARK    2  A    between atoms: C_13  and  N_9 
REMARK    3  A    between atoms: O_12  and  C_14 
REMARK    4  A    between atoms: C_14  and  C_13 
ROOT
ATOM      1  C   UNL d   1      33.009  20.516 -22.374  0.00  0.00     0.084 A 
ATOM      2  C   UNL d   1      33.156  20.990 -23.038  0.00  0.00     0.137 A 
ATOM      3  S   UNL d   1      33.203  21.774 -22.784  0.00  0.00    -0.066 SA
ATOM      4  C   UNL d   1      32.967  21.009 -21.718  0.00  0.00     0.013 A 
ATOM      5  C   UNL d   1      33.085  21.781 -21.965  0.00  0.00     0.031 A 
ATOM      6  N   UNL d   1      33.241  20.724 -23.820  0.00  0.00    -0.141 N 
ATOM      7  C   UNL d   1      32.834  20.850 -20.917  0.00  0.00     0.001 A 
ATOM      8  C   UNL d   1      33.074  22.406 -21.425  0.00  0.00     0.006 A 
ATOM      9  C   UNL d   1      32.822  21.474 -20.374  0.00  0.00     0.000 A 
ATOM     10  C   UNL d   1      32.942  22.248 -20.630  0.00  0.00     0.001 A 
ENDROOT
BRANCH   1  11
ATOM     11  C   UNL d   1      32.922  19.693 -22.382  0.00  0.00     0.281 C 
ATOM     12  O   UNL d   1      33.241  19.242 -21.771  0.00  0.00    -0.265 OA
ATOM     13  N   UNL d   1      32.520  19.321 -22.996  0.00  0.00    -0.204 NA
BRANCH  13  14
ATOM     14  C   UNL d   1      32.433  18.499 -23.003  0.00  0.00     0.128 C 
BRANCH  14  15
ATOM     15  C   UNL d   1      32.254  18.104 -23.704  0.00  0.00     0.137 C 
BRANCH  15  16
ATOM     16  O   UNL d   1      31.945  17.341 -23.684  0.00  0.00    -0.325 OA
ATOM     17  C   UNL d   1      32.016  16.845 -24.340  0.00  0.00     0.182 C 
ENDBRANCH  15  16
ENDBRANCH  14  15
ENDBRANCH  13  14
ENDBRANCH   1  11
TORSDOF 4
ENDMDL
MODEL 7
REMARK VINA RESULT:      -0.2      2.071      2.532
REMARK  4 active torsions:
REMARK  status: ('A' for Active; 'I' for Inactive)
REMARK    1  A    between atoms: C_6  and  C_1 
REMARK       I    between atoms: N_9  and  C_6 
REMARK    2  A    between atoms: C_13  and  N_9 
REMARK    3  A    between atoms: O_12  and  C_14 
REMARK    4  A    between atoms: C_14  and  C_13 
ROOT
ATOM      1  C   UNL d   1      29.529  16.336 -23.862  0.00  0.00     0.084 A 
ATOM      2  C   UNL d   1      29.059  16.129 -23.212  0.00  0.00     0.137 A 
ATOM      3  S   UNL d   1      28.474  16.707 -23.128  0.00  0.00    -0.066 SA
ATOM      4  C   UNL d   1      29.233  17.037 -24.174  0.00  0.00     0.013 A 
ATOM      5  C   UNL d   1      28.587  17.267 -23.726  0.00  0.00     0.031 A 
ATOM      6  N   UNL d   1      29.157  15.460 -22.730  0.00  0.00    -0.141 N 
ATOM      7  C   UNL d   1      29.474  17.500 -24.815  0.00  0.00     0.001 A 
ATOM      8  C   UNL d   1      28.170  17.957 -23.907  0.00  0.00     0.006 A 
ATOM      9  C   UNL d   1      29.058  18.191 -24.998  0.00  0.00     0.000 A 
ATOM     10  C   UNL d   1      28.409  18.416 -24.545  0.00  0.00     0.001 A 
ENDROOT
BRANCH   1  11
ATOM     11  C   UNL d   1      30.179  15.907 -24.140  0.00  0.00     0.281 C 
ATOM     12  O   UNL d   1      30.110  15.458 -24.827  0.00  0.00    -0.265 OA
ATOM     13  N   UNL d   1      30.896  15.924 -23.735  0.00  0.00    -0.204 NA
BRANCH  13  14
ATOM     14  C   UNL d   1      31.545  15.495 -24.014  0.00  0.00     0.128 C 
BRANCH  14  15
ATOM     15  C   UNL d   1      32.308  15.799 -23.943  0.00  0.00     0.137 C 
BRANCH  15  16
ATOM     16  O   UNL d   1      32.880  15.621 -24.508  0.00  0.00    -0.325 OA
ATOM     17  C   UNL d   1      33.241  16.223 -24.941  0.00  0.00     0.182 C 
ENDBRANCH  15  16
ENDBRANCH  14  15
ENDBRANCH  13  14
ENDBRANCH   1  11
TORSDOF 4
ENDMDL
