MODEL 1
REMARK VINA RESULT:      64.5      0.000      0.000
REMARK  4 active torsions:
REMARK  status: ('A' for Active; 'I' for Inactive)
REMARK    1  A    between atoms: C_13  and  C_2 
REMARK       I    between atoms: N_7  and  C_8 
REMARK    2  A    between atoms: C_8  and  C_15 
REMARK    3  A    between atoms: S_14  and  C_10 
REMARK    4  A    between atoms: C_15  and  S_14 
ROOT
ATOM      1  N   UNL d   1      14.579  13.076  -1.128  0.00  0.00    -0.191 N 
ATOM      2  C   UNL d   1      14.404  12.327  -1.411  0.00  0.00     0.187 A 
ATOM      3  N   UNL d   1      14.710  11.781  -0.880  0.00  0.00    -0.127 NA
ATOM      4  C   UNL d   1      14.991  13.008  -0.424  0.00  0.00     0.187 A 
ATOM      5  N   UNL d   1      14.408  13.839  -1.433  0.00  0.00    -0.156 NA
ATOM      6  N   UNL d   1      15.075  12.195  -0.266  0.00  0.00    -0.127 NA
ATOM      7  C   UNL d   1      14.655  14.512  -1.025  0.00  0.00     0.131 A 
ATOM      8  C   UNL d   1      15.238  13.682  -0.016  0.00  0.00     0.043 A 
ATOM      9  C   UNL d   1      15.071  14.433  -0.316  0.00  0.00     0.031 A 
ENDROOT
BRANCH   7  10
ATOM     10  S   UNL d   1      14.488  15.263  -1.325  0.00  0.00    -0.061 SA
BRANCH  10  11
ATOM     11  C   UNL d   1      14.976  15.594  -1.900  0.00  0.00     0.098 C 
BRANCH  11  12
ATOM     12  C   UNL d   1      15.117  16.393  -1.900  0.00  0.00     0.271 C 
ATOM     13  N   UNL d   1      15.048  16.822  -2.599  0.00  0.00    -0.273 N 
ATOM     14  C   UNL d   1      14.838  16.440  -3.292  0.00  0.00     0.067 A 
ATOM     15  C   UNL d   1      15.192  17.631  -2.591  0.00  0.00     0.083 A 
ATOM     16  C   UNL d   1      14.772  16.869  -3.982  0.00  0.00     0.016 A 
ATOM     17  C   UNL d   1      14.696  15.631  -3.291  0.00  0.00     0.018 A 
ATOM     18  C   UNL d   1      14.560  16.493  -4.688  0.00  0.00     0.001 A 
ATOM     19  C   UNL d   1      14.911  17.676  -3.996  0.00  0.00     0.003 A 
ATOM     20  C   UNL d   1      14.415  15.679  -4.697  0.00  0.00     0.000 A 
ATOM     21  C   UNL d   1      14.484  15.245  -3.990  0.00  0.00     0.002 A 
ATOM     22  C   UNL d   1      15.123  18.052  -3.286  0.00  0.00     0.019 A 
ATOM     23  O   UNL d   1      15.328  16.779  -1.201  0.00  0.00    -0.266 OA
ENDBRANCH  11  12
ENDBRANCH  10  11
ENDBRANCH   7  10
BRANCH   2  24
ATOM     24  C   UNL d   1      13.998  12.146  -2.100  0.00  0.00     0.038 A 
ATOM     25  C   UNL d   1      13.181  12.089  -2.097  0.00  0.00     0.003 A 
ATOM     26  C   UNL d   1      12.769  11.906  -2.790  0.00  0.00     0.000 A 
ATOM     27  C   UNL d   1      13.191  11.781  -3.490  0.00  0.00     0.000 A 
ATOM     28  C   UNL d   1      14.014  11.838  -3.499  0.00  0.00     0.000 A 
ATOM     29  C   UNL d   1      14.421  12.021  -2.800  0.00  0.00     0.003 A 
ENDBRANCH   2  24
TORSDOF 4
ENDMDL
MODEL 2
REMARK VINA RESULT:      66.4      1.488      2.716
REMARK  4 active torsions:
REMARK  status: ('A' for Active; 'I' for Inactive)
REMARK    1  A    between atoms: C_13  and  C_2 
REMARK       I    between atoms: N_7  and  C_8 
REMARK    2  A    between atoms: C_8  and  C_15 
REMARK    3  A    between atoms: S_14  and  C_10 
REMARK    4  A    between atoms: C_15  and  S_14 
ROOT
ATOM      1  N   UNL d   1      13.687  12.737  -2.756  0.00  0.00    -0.191 N 
ATOM      2  C   UNL d   1      13.770  12.371  -2.027  0.00  0.00     0.187 A 
ATOM      3  N   UNL d   1      13.203  11.779  -1.979  0.00  0.00    -0.127 NA
ATOM      4  C   UNL d   1      13.074  12.382  -3.167  0.00  0.00     0.187 A 
ATOM      5  N   UNL d   1      14.107  13.371  -3.110  0.00  0.00    -0.156 NA
ATOM      6  N   UNL d   1      12.769  11.780  -2.681  0.00  0.00    -0.127 NA
ATOM      7  C   UNL d   1      13.902  13.633  -3.865  0.00  0.00     0.131 A 
ATOM      8  C   UNL d   1      12.870  12.644  -3.923  0.00  0.00     0.043 A 
ATOM      9  C   UNL d   1      13.283  13.268  -4.271  0.00  0.00     0.031 A 
ENDROOT
BRANCH   7  10
ATOM     10  S   UNL d   1      14.316  14.257  -4.214  0.00  0.00    -0.061 SA
BRANCH  10  11
ATOM     11  C   UNL d   1      14.046  15.029  -4.122  0.00  0.00     0.098 C 
BRANCH  11  12
ATOM     12  C   UNL d   1      14.271  15.601  -4.653  0.00  0.00     0.271 C 
ATOM     13  N   UNL d   1      14.622  16.295  -4.383  0.00  0.00    -0.273 N 
ATOM     14  C   UNL d   1      14.743  16.405  -3.581  0.00  0.00     0.067 A 
ATOM     15  C   UNL d   1      14.848  16.870  -4.926  0.00  0.00     0.083 A 
ATOM     16  C   UNL d   1      15.092  17.094  -3.319  0.00  0.00     0.016 A 
ATOM     17  C   UNL d   1      14.515  15.825  -3.046  0.00  0.00     0.018 A 
ATOM     18  C   UNL d   1      15.219  17.215  -2.510  0.00  0.00     0.001 A 
ATOM     19  C   UNL d   1      15.324  17.679  -3.843  0.00  0.00     0.003 A 
ATOM     20  C   UNL d   1      14.993  16.638  -1.964  0.00  0.00     0.000 A 
ATOM     21  C   UNL d   1      14.637  15.936  -2.235  0.00  0.00     0.002 A 
ATOM     22  C   UNL d   1      15.196  17.555  -4.655  0.00  0.00     0.019 A 
ATOM     23  O   UNL d   1      14.149  15.490  -5.462  0.00  0.00    -0.266 OA
ENDBRANCH  11  12
ENDBRANCH  10  11
ENDBRANCH   7  10
BRANCH   2  24
ATOM     24  C   UNL d   1      14.317  12.555  -1.446  0.00  0.00     0.038 A 
ATOM     25  C   UNL d   1      15.115  12.597  -1.624  0.00  0.00     0.003 A 
ATOM     26  C   UNL d   1      15.669  12.783  -1.039  0.00  0.00     0.000 A 
ATOM     27  C   UNL d   1      15.408  12.928  -0.267  0.00  0.00     0.000 A 
ATOM     28  C   UNL d   1      14.605  12.887  -0.082  0.00  0.00     0.000 A 
ATOM     29  C   UNL d   1      14.056  12.700  -0.674  0.00  0.00     0.003 A 
ENDBRANCH   2  24
TORSDOF 4
ENDMDL
