MODEL 1
REMARK VINA RESULT:      -4.5      0.000      0.000
REMARK  9 active torsions:
REMARK  status: ('A' for Active; 'I' for Inactive)
REMARK    1  A    between atoms: N_4  and  C_1 
REMARK       I    between atoms: C_7  and  N_4 
REMARK    2  A    between atoms: C_13  and  C_7 
REMARK    3  A    between atoms: C_8  and  C_14 
REMARK    4  A    between atoms: O_12  and  C_8 
REMARK    5  A    between atoms: S_11  and  C_13 
REMARK    6  A    between atoms: C_14  and  S_11 
REMARK    7  A    between atoms: C_16  and  O_12 
REMARK    8  A    between atoms: C_17  and  C_16 
REMARK    9  A    between atoms: C_18  and  C_17 
ROOT
ATOM      1  C   UNL d   1     -41.604-122.486 -52.900  0.00  0.00     0.127 C 
ENDROOT
BRANCH   1   2
ATOM      2  S   UNL d   1     -41.387-122.293 -52.127  0.00  0.00    -0.089 SA
BRANCH   2   3
ATOM      3  C   UNL d   1     -41.957-122.027 -51.593  0.00  0.00     0.103 C 
BRANCH   3   4
ATOM      4  C   UNL d   1     -41.835-122.108 -50.785  0.00  0.00     0.307 C 
ATOM      5  O   UNL d   1     -41.123-121.877 -50.450  0.00  0.00    -0.258 OA
BRANCH   4   6
ATOM      6  O   UNL d   1     -42.429-122.420 -50.318  0.00  0.00    -0.271 OA
BRANCH   6   7
ATOM      7  C   UNL d   1     -42.259-122.705 -49.563  0.00  0.00     0.126 C 
BRANCH   7   8
ATOM      8  C   UNL d   1     -42.855-123.051 -49.109  0.00  0.00     0.027 C 
BRANCH   8   9
ATOM      9  C   UNL d   1     -42.664-123.621 -48.543  0.00  0.00     0.002 C 
ATOM     10  C   UNL d   1     -42.723-123.450 -47.750  0.00  0.00     0.000 C 
ENDBRANCH   8   9
ENDBRANCH   7   8
ENDBRANCH   6   7
ENDBRANCH   4   6
ENDBRANCH   3   4
ENDBRANCH   2   3
ENDBRANCH   1   2
BRANCH   1  11
ATOM     11  C   UNL d   1     -41.441-123.237 -53.200  0.00  0.00     0.275 C 
ATOM     12  N   UNL d   1     -41.597-123.402 -53.986  0.00  0.00    -0.187 NA
ATOM     13  O   UNL d   1     -41.123-123.817 -52.708  0.00  0.00    -0.266 OA
BRANCH  12  14
ATOM     14  C   UNL d   1     -41.916-122.822 -54.478  0.00  0.00     0.194 A 
ATOM     15  N   UNL d   1     -42.687-122.532 -54.445  0.00  0.00    -0.107 NA
ATOM     16  O   UNL d   1     -42.765-121.962 -55.035  0.00  0.00    -0.210 OA
ATOM     17  C   UNL d   1     -42.057-121.892 -55.433  0.00  0.00     0.128 A 
ATOM     18  C   UNL d   1     -41.525-122.424 -55.091  0.00  0.00     0.068 A 
ATOM     19  C   UNL d   1     -41.904-121.376 -56.069  0.00  0.00     0.029 C 
ENDBRANCH  12  14
ENDBRANCH   1  11
TORSDOF 9
ENDMDL
MODEL 2
REMARK VINA RESULT:      -4.3      2.134      5.488
REMARK  9 active torsions:
REMARK  status: ('A' for Active; 'I' for Inactive)
REMARK    1  A    between atoms: N_4  and  C_1 
REMARK       I    between atoms: C_7  and  N_4 
REMARK    2  A    between atoms: C_13  and  C_7 
REMARK    3  A    between atoms: C_8  and  C_14 
REMARK    4  A    between atoms: O_12  and  C_8 
REMARK    5  A    between atoms: S_11  and  C_13 
REMARK    6  A    between atoms: C_14  and  S_11 
REMARK    7  A    between atoms: C_16  and  O_12 
REMARK    8  A    between atoms: C_17  and  C_16 
REMARK    9  A    between atoms: C_18  and  C_17 
ROOT
ATOM      1  C   UNL d   1     -42.132-123.096 -49.979  0.00  0.00     0.127 C 
ENDROOT
BRANCH   1   2
ATOM      2  S   UNL d   1     -42.003-123.281 -50.772  0.00  0.00    -0.089 SA
BRANCH   2   3
ATOM      3  C   UNL d   1     -41.613-122.744 -51.262  0.00  0.00     0.103 C 
BRANCH   3   4
ATOM      4  C   UNL d   1     -41.413-122.955 -52.030  0.00  0.00     0.307 C 
ATOM      5  O   UNL d   1     -41.168-123.720 -52.197  0.00  0.00    -0.258 OA
BRANCH   4   6
ATOM      6  O   UNL d   1     -41.459-122.397 -52.627  0.00  0.00    -0.271 OA
BRANCH   6   7
ATOM      7  C   UNL d   1     -41.425-122.629 -53.418  0.00  0.00     0.126 C 
BRANCH   7   8
ATOM      8  C   UNL d   1     -41.683-122.115 -54.009  0.00  0.00     0.027 C 
BRANCH   8   9
ATOM      9  C   UNL d   1     -42.056-122.414 -54.681  0.00  0.00     0.002 C 
ATOM     10  C   UNL d   1     -42.205-121.933 -55.320  0.00  0.00     0.000 C 
ENDBRANCH   8   9
ENDBRANCH   7   8
ENDBRANCH   6   7
ENDBRANCH   4   6
ENDBRANCH   3   4
ENDBRANCH   2   3
ENDBRANCH   1   2
BRANCH   1  11
ATOM     11  C   UNL d   1     -42.898-123.100 -49.672  0.00  0.00     0.275 C 
ATOM     12  N   UNL d   1     -43.013-123.180 -48.867  0.00  0.00    -0.187 NA
ATOM     13  O   UNL d   1     -43.545-123.022 -50.179  0.00  0.00    -0.266 OA
BRANCH  12  14
ATOM     14  C   UNL d   1     -42.367-123.258 -48.360  0.00  0.00     0.194 A 
ATOM     15  N   UNL d   1     -41.765-123.817 -48.430  0.00  0.00    -0.107 NA
ATOM     16  O   UNL d   1     -41.237-123.694 -47.809  0.00  0.00    -0.210 OA
ATOM     17  C   UNL d   1     -41.499-123.069 -47.355  0.00  0.00     0.128 A 
ATOM     18  C   UNL d   1     -42.202-122.794 -47.694  0.00  0.00     0.068 A 
ATOM     19  C   UNL d   1     -41.124-122.767 -46.676  0.00  0.00     0.029 C 
ENDBRANCH  12  14
ENDBRANCH   1  11
TORSDOF 9
ENDMDL
MODEL 3
REMARK VINA RESULT:      -3.8      1.214      1.524
REMARK  9 active torsions:
REMARK  status: ('A' for Active; 'I' for Inactive)
REMARK    1  A    between atoms: N_4  and  C_1 
REMARK       I    between atoms: C_7  and  N_4 
REMARK    2  A    between atoms: C_13  and  C_7 
REMARK    3  A    between atoms: C_8  and  C_14 
REMARK    4  A    between atoms: O_12  and  C_8 
REMARK    5  A    between atoms: S_11  and  C_13 
REMARK    6  A    between atoms: C_14  and  S_11 
REMARK    7  A    between atoms: C_16  and  O_12 
REMARK    8  A    between atoms: C_17  and  C_16 
REMARK    9  A    between atoms: C_18  and  C_17 
ROOT
ATOM      1  C   UNL d   1     -41.666-122.202 -52.107  0.00  0.00     0.127 C 
ENDROOT
BRANCH   1   2
ATOM      2  S   UNL d   1     -41.362-122.437 -51.377  0.00  0.00    -0.089 SA
BRANCH   2   3
ATOM      3  C   UNL d   1     -41.869-122.541 -50.734  0.00  0.00     0.103 C 
BRANCH   3   4
ATOM      4  C   UNL d   1     -41.841-123.234 -50.294  0.00  0.00     0.307 C 
ATOM      5  O   UNL d   1     -41.270-123.801 -50.453  0.00  0.00    -0.258 OA
BRANCH   4   6
ATOM      6  O   UNL d   1     -42.387-123.354 -49.697  0.00  0.00    -0.271 OA
BRANCH   6   7
ATOM      7  C   UNL d   1     -42.140-123.601 -48.950  0.00  0.00     0.126 C 
BRANCH   7   8
ATOM      8  C   UNL d   1     -42.698-123.810 -48.379  0.00  0.00     0.027 C 
BRANCH   8   9
ATOM      9  C   UNL d   1     -42.489-123.817 -47.581  0.00  0.00     0.002 C 
ATOM     10  C   UNL d   1     -43.061-123.790 -47.004  0.00  0.00     0.000 C 
ENDBRANCH   8   9
ENDBRANCH   7   8
ENDBRANCH   6   7
ENDBRANCH   4   6
ENDBRANCH   3   4
ENDBRANCH   2   3
ENDBRANCH   1   2
BRANCH   1  11
ATOM     11  C   UNL d   1     -41.406-121.501 -52.457  0.00  0.00     0.275 C 
ATOM     12  N   UNL d   1     -41.406-121.430 -53.271  0.00  0.00    -0.187 NA
ATOM     13  O   UNL d   1     -41.148-120.876 -51.985  0.00  0.00    -0.266 OA
BRANCH  12  14
ATOM     14  C   UNL d   1     -41.664-122.055 -53.744  0.00  0.00     0.194 A 
ATOM     15  N   UNL d   1     -42.446-122.212 -53.952  0.00  0.00    -0.107 NA
ATOM     16  O   UNL d   1     -42.448-122.885 -54.426  0.00  0.00    -0.210 OA
ATOM     17  C   UNL d   1     -41.683-123.151 -54.517  0.00  0.00     0.128 A 
ATOM     18  C   UNL d   1     -41.190-122.638 -54.095  0.00  0.00     0.068 A 
ATOM     19  C   UNL d   1     -41.446-123.818 -54.957  0.00  0.00     0.029 C 
ENDBRANCH  12  14
ENDBRANCH   1  11
TORSDOF 9
ENDMDL
MODEL 4
REMARK VINA RESULT:      -2.7      1.601      4.997
REMARK  9 active torsions:
REMARK  status: ('A' for Active; 'I' for Inactive)
REMARK    1  A    between atoms: N_4  and  C_1 
REMARK       I    between atoms: C_7  and  N_4 
REMARK    2  A    between atoms: C_13  and  C_7 
REMARK    3  A    between atoms: C_8  and  C_14 
REMARK    4  A    between atoms: O_12  and  C_8 
REMARK    5  A    between atoms: S_11  and  C_13 
REMARK    6  A    between atoms: C_14  and  S_11 
REMARK    7  A    between atoms: C_16  and  O_12 
REMARK    8  A    between atoms: C_17  and  C_16 
REMARK    9  A    between atoms: C_18  and  C_17 
ROOT
ATOM      1  C   UNL d   1     -41.515-122.424 -51.437  0.00  0.00     0.127 C 
ENDROOT
BRANCH   1   2
ATOM      2  S   UNL d   1     -41.275-122.382 -52.226  0.00  0.00    -0.089 SA
BRANCH   2   3
ATOM      3  C   UNL d   1     -41.123-123.075 -52.647  0.00  0.00     0.103 C 
BRANCH   3   4
ATOM      4  C   UNL d   1     -41.328-123.129 -53.441  0.00  0.00     0.307 C 
ATOM      5  O   UNL d   1     -41.153-123.807 -53.866  0.00  0.00    -0.258 OA
BRANCH   4   6
ATOM      6  O   UNL d   1     -41.708-122.501 -53.802  0.00  0.00    -0.271 OA
BRANCH   6   7
ATOM      7  C   UNL d   1     -41.792-122.481 -54.622  0.00  0.00     0.126 C 
BRANCH   7   8
ATOM      8  C   UNL d   1     -42.262-121.901 -54.974  0.00  0.00     0.027 C 
BRANCH   8   9
ATOM      9  C   UNL d   1     -42.488-121.977 -55.764  0.00  0.00     0.002 C 
ATOM     10  C   UNL d   1     -43.274-121.953 -55.973  0.00  0.00     0.000 C 
ENDBRANCH   8   9
ENDBRANCH   7   8
ENDBRANCH   6   7
ENDBRANCH   4   6
ENDBRANCH   3   4
ENDBRANCH   2   3
ENDBRANCH   1   2
BRANCH   1  11
ATOM     11  C   UNL d   1     -41.464-121.758 -50.953  0.00  0.00     0.275 C 
ATOM     12  N   UNL d   1     -41.721-121.798 -50.178  0.00  0.00    -0.187 NA
ATOM     13  O   UNL d   1     -41.153-121.054 -51.252  0.00  0.00    -0.266 OA
BRANCH  12  14
ATOM     14  C   UNL d   1     -42.032-122.501 -49.879  0.00  0.00     0.194 A 
ATOM     15  N   UNL d   1     -41.739-123.258 -50.025  0.00  0.00    -0.107 NA
ATOM     16  O   UNL d   1     -42.216-123.793 -49.619  0.00  0.00    -0.210 OA
ATOM     17  C   UNL d   1     -42.800-123.383 -49.223  0.00  0.00     0.128 A 
ATOM     18  C   UNL d   1     -42.690-122.579 -49.382  0.00  0.00     0.068 A 
ATOM     19  C   UNL d   1     -43.395-123.719 -48.747  0.00  0.00     0.029 C 
ENDBRANCH  12  14
ENDBRANCH   1  11
TORSDOF 9
ENDMDL
