MODEL 1
REMARK VINA RESULT:      15.9      0.000      0.000
REMARK  4 active torsions:
REMARK  status: ('A' for Active; 'I' for Inactive)
REMARK    1  A    between atoms: N_6  and  S_1 
REMARK    2  A    between atoms: C_7  and  S_1 
REMARK    3  A    between atoms: C_13  and  N_6 
REMARK    4  A    between atoms: O_18  and  C_15 
ROOT
ATOM      1  S   UNL d   1      45.114 -15.218  44.516  0.00  0.00     0.285 S 
ATOM      2  O   UNL d   1      44.367 -14.888  44.502  0.00  0.00    -0.198 OA
ATOM      3  O   UNL d   1      44.781 -15.973  44.520  0.00  0.00    -0.198 OA
ENDROOT
BRANCH   1   4
ATOM      4  N   UNL d   1      45.867 -15.555  44.531  0.00  0.00    -0.158 NA
BRANCH   4   5
ATOM      5  C   UNL d   1      45.965 -16.362  44.361  0.00  0.00     0.095 A 
ATOM      6  C   UNL d   1      46.161 -16.598  43.595  0.00  0.00     0.040 A 
ATOM      7  C   UNL d   1      46.255 -17.398  43.434  0.00  0.00     0.089 A 
ATOM      8  N   UNL d   1      46.448 -17.793  42.730  0.00  0.00    -0.238 NA
ATOM      9  C   UNL d   1      46.159 -17.963  44.019  0.00  0.00     0.049 A 
ATOM     10  C   UNL d   1      46.468 -18.598  42.889  0.00  0.00     0.111 A 
ATOM     11  C   UNL d   1      46.639 -19.207  42.344  0.00  0.00     0.028 C 
ATOM     12  S   UNL d   1      46.289 -18.706  43.688  0.00  0.00    -0.066 SA
ATOM     13  C   UNL d   1      45.961 -17.721  44.791  0.00  0.00     0.010 A 
ATOM     14  C   UNL d   1      45.865 -16.916  44.955  0.00  0.00     0.021 A 
ENDBRANCH   4   5
ENDBRANCH   1   4
BRANCH   1  15
ATOM     15  C   UNL d   1      45.455 -14.467  44.513  0.00  0.00     0.107 A 
ATOM     16  C   UNL d   1      45.112 -13.853  44.077  0.00  0.00     0.037 A 
ATOM     17  C   UNL d   1      45.459 -13.104  44.079  0.00  0.00     0.095 A 
ATOM     18  C   UNL d   1      46.148 -12.969  44.517  0.00  0.00     0.024 A 
ATOM     19  C   UNL d   1      46.488 -13.583  44.950  0.00  0.00     0.003 A 
ATOM     20  C   UNL d   1      46.141 -14.331  44.948  0.00  0.00     0.013 A 
BRANCH  17  21
ATOM     21  O   UNL d   1      45.120 -12.492  43.646  0.00  0.00    -0.328 OA
ATOM     22  C   UNL d   1      45.253 -12.436  42.834  0.00  0.00     0.181 C 
ENDBRANCH  17  21
ENDBRANCH   1  15
TORSDOF 4
ENDMDL
MODEL 2
REMARK VINA RESULT:      17.1      1.635      4.645
REMARK  4 active torsions:
REMARK  status: ('A' for Active; 'I' for Inactive)
REMARK    1  A    between atoms: N_6  and  S_1 
REMARK    2  A    between atoms: C_7  and  S_1 
REMARK    3  A    between atoms: C_13  and  N_6 
REMARK    4  A    between atoms: O_18  and  C_15 
ROOT
ATOM      1  S   UNL d   1      46.265 -17.507  43.570  0.00  0.00     0.285 S 
ATOM      2  O   UNL d   1      46.298 -17.773  42.798  0.00  0.00    -0.198 OA
ATOM      3  O   UNL d   1      46.176 -16.733  43.298  0.00  0.00    -0.198 OA
ENDROOT
BRANCH   1   4
ATOM      4  N   UNL d   1      46.231 -17.234  44.347  0.00  0.00    -0.158 NA
BRANCH   4   5
ATOM      5  C   UNL d   1      45.902 -16.489  44.513  0.00  0.00     0.095 A 
ATOM      6  C   UNL d   1      46.352 -15.808  44.397  0.00  0.00     0.040 A 
ATOM      7  C   UNL d   1      46.020 -15.076  44.563  0.00  0.00     0.089 A 
ATOM      8  N   UNL d   1      46.332 -14.308  44.502  0.00  0.00    -0.238 NA
ATOM      9  C   UNL d   1      45.252 -15.010  44.839  0.00  0.00     0.049 A 
ATOM     10  C   UNL d   1      45.753 -13.779  44.742  0.00  0.00     0.111 A 
ATOM     11  C   UNL d   1      45.823 -12.948  44.771  0.00  0.00     0.028 C 
ATOM     12  S   UNL d   1      45.081 -14.213  44.952  0.00  0.00    -0.066 SA
ATOM     13  C   UNL d   1      44.800 -15.701  44.955  0.00  0.00     0.010 A 
ATOM     14  C   UNL d   1      45.133 -16.439  44.788  0.00  0.00     0.021 A 
ENDBRANCH   4   5
ENDBRANCH   1   4
BRANCH   1  15
ATOM     15  C   UNL d   1      46.353 -18.278  43.849  0.00  0.00     0.107 A 
ATOM     16  C   UNL d   1      46.296 -18.920  43.330  0.00  0.00     0.037 A 
ATOM     17  C   UNL d   1      46.386 -19.689  43.617  0.00  0.00     0.095 A 
ATOM     18  C   UNL d   1      46.533 -19.815  44.421  0.00  0.00     0.024 A 
ATOM     19  C   UNL d   1      46.589 -19.174  44.935  0.00  0.00     0.003 A 
ATOM     20  C   UNL d   1      46.499 -18.405  44.649  0.00  0.00     0.013 A 
BRANCH  17  21
ATOM     21  O   UNL d   1      46.330 -20.330  43.104  0.00  0.00    -0.328 OA
ATOM     22  C   UNL d   1      46.584 -20.258  42.322  0.00  0.00     0.181 C 
ENDBRANCH  17  21
ENDBRANCH   1  15
TORSDOF 4
ENDMDL
