MODEL 1
REMARK VINA RESULT:      -2.5      0.000      0.000
REMARK  5 active torsions:
REMARK  status: ('A' for Active; 'I' for Inactive)
REMARK    1  A    between atoms: N_3  and  C_1 
REMARK       I    between atoms: C_6  and  N_3 
REMARK    2  A    between atoms: C_9  and  C_6 
REMARK    3  A    between atoms: C_12  and  C_7 
REMARK    4  A    between atoms: S_8  and  C_9 
REMARK    5  A    between atoms: C_11  and  S_8 
ROOT
ATOM      1  N   UNL d   1      33.027  19.175 -22.351  0.00  0.00    -0.181 NA
ATOM      2  C   UNL d   1      32.892  18.925 -23.125  0.00  0.00     0.287 C 
ATOM      3  O   UNL d   1      32.805  19.484 -23.722  0.00  0.00    -0.265 OA
ENDROOT
BRANCH   2   4
ATOM      4  C   UNL d   1      32.845  18.121 -23.296  0.00  0.00     0.087 C 
ATOM      5  C   UNL d   1      33.240  17.578 -22.824  0.00  0.00     0.012 C 
BRANCH   4   6
ATOM      6  S   UNL d   1      32.397  17.869 -23.945  0.00  0.00    -0.082 SA
BRANCH   6   7
ATOM      7  C   UNL d   1      32.059  17.130 -23.946  0.00  0.00     0.030 A 
ATOM      8  C   UNL d   1      31.246  17.052 -23.832  0.00  0.00     0.006 A 
ATOM      9  C   UNL d   1      30.900  16.298 -23.833  0.00  0.00     0.001 A 
ATOM     10  C   UNL d   1      31.378  15.632 -23.949  0.00  0.00     0.000 A 
ATOM     11  C   UNL d   1      32.184  15.715 -24.062  0.00  0.00     0.001 A 
ATOM     12  C   UNL d   1      32.537  16.463 -24.062  0.00  0.00     0.006 A 
ENDBRANCH   6   7
ENDBRANCH   4   6
ENDBRANCH   2   4
BRANCH   1  13
ATOM     13  C   UNL d   1      33.075  19.975 -22.174  0.00  0.00     0.219 A 
ATOM     14  S   UNL d   1      32.967  20.318 -21.434  0.00  0.00    -0.026 SA
ATOM     15  C   UNL d   1      33.065  21.134 -21.509  0.00  0.00     0.135 A 
ATOM     16  N   UNL d   1      33.234  21.294 -22.303  0.00  0.00    -0.139 NA
ATOM     17  N   UNL d   1      33.240  20.579 -22.713  0.00  0.00    -0.121 NA
BRANCH  15  18
ATOM     18  C   UNL d   1      33.007  21.694 -20.906  0.00  0.00     0.028 C 
ATOM     19  C   UNL d   1      32.263  21.994 -20.703  0.00  0.00     0.002 C 
ENDBRANCH  15  18
ENDBRANCH   1  13
TORSDOF 5
ENDMDL
MODEL 2
REMARK VINA RESULT:      -2.3      1.191      4.923
REMARK  5 active torsions:
REMARK  status: ('A' for Active; 'I' for Inactive)
REMARK    1  A    between atoms: N_3  and  C_1 
REMARK       I    between atoms: C_6  and  N_3 
REMARK    2  A    between atoms: C_9  and  C_6 
REMARK    3  A    between atoms: C_12  and  C_7 
REMARK    4  A    between atoms: S_8  and  C_9 
REMARK    5  A    between atoms: C_11  and  S_8 
ROOT
ATOM      1  N   UNL d   1      32.833  19.402 -22.432  0.00  0.00    -0.181 NA
ATOM      2  C   UNL d   1      33.023  20.203 -22.474  0.00  0.00     0.287 C 
ATOM      3  O   UNL d   1      33.240  20.530 -23.196  0.00  0.00    -0.265 OA
ENDROOT
BRANCH   2   4
ATOM      4  C   UNL d   1      32.995  20.669 -21.796  0.00  0.00     0.087 C 
ATOM      5  C   UNL d   1      32.727  20.350 -21.089  0.00  0.00     0.012 C 
BRANCH   4   6
ATOM      6  S   UNL d   1      33.239  21.460 -21.835  0.00  0.00    -0.082 SA
BRANCH   6   7
ATOM      7  C   UNL d   1      32.945  22.005 -21.311  0.00  0.00     0.030 A 
ATOM      8  C   UNL d   1      32.366  22.539 -21.556  0.00  0.00     0.006 A 
ATOM      9  C   UNL d   1      32.065  23.096 -21.021  0.00  0.00     0.001 A 
ATOM     10  C   UNL d   1      32.351  23.108 -20.244  0.00  0.00     0.000 A 
ATOM     11  C   UNL d   1      32.925  22.577 -20.005  0.00  0.00     0.001 A 
ATOM     12  C   UNL d   1      33.231  22.018 -20.533  0.00  0.00     0.006 A 
ENDBRANCH   6   7
ENDBRANCH   4   6
ENDBRANCH   2   4
BRANCH   1  13
ATOM     13  C   UNL d   1      32.859  18.932 -23.104  0.00  0.00     0.219 A 
ATOM     14  S   UNL d   1      32.911  18.111 -23.122  0.00  0.00    -0.026 SA
ATOM     15  C   UNL d   1      32.921  17.870 -23.912  0.00  0.00     0.135 A 
ATOM     16  N   UNL d   1      32.875  18.549 -24.382  0.00  0.00    -0.139 NA
ATOM     17  N   UNL d   1      32.837  19.204 -23.883  0.00  0.00    -0.121 NA
BRANCH  15  18
ATOM     18  C   UNL d   1      32.969  17.094 -24.189  0.00  0.00     0.028 C 
ATOM     19  C   UNL d   1      32.529  16.874 -24.855  0.00  0.00     0.002 C 
ENDBRANCH  15  18
ENDBRANCH   1  13
TORSDOF 5
ENDMDL
MODEL 3
REMARK VINA RESULT:      -2.1      1.251      4.600
REMARK  5 active torsions:
REMARK  status: ('A' for Active; 'I' for Inactive)
REMARK    1  A    between atoms: N_3  and  C_1 
REMARK       I    between atoms: C_6  and  N_3 
REMARK    2  A    between atoms: C_9  and  C_6 
REMARK    3  A    between atoms: C_12  and  C_7 
REMARK    4  A    between atoms: S_8  and  C_9 
REMARK    5  A    between atoms: C_11  and  S_8 
ROOT
ATOM      1  N   UNL d   1      32.554  18.861 -23.729  0.00  0.00    -0.181 NA
ATOM      2  C   UNL d   1      32.896  19.028 -22.998  0.00  0.00     0.287 C 
ATOM      3  O   UNL d   1      33.006  18.421 -22.455  0.00  0.00    -0.265 OA
ENDROOT
BRANCH   2   4
ATOM      4  C   UNL d   1      33.126  19.797 -22.817  0.00  0.00     0.087 C 
ATOM      5  C   UNL d   1      33.239  20.344 -23.418  0.00  0.00     0.012 C 
BRANCH   4   6
ATOM      6  S   UNL d   1      33.241  20.012 -22.026  0.00  0.00    -0.082 SA
BRANCH   6   7
ATOM      7  C   UNL d   1      32.929  20.705 -21.741  0.00  0.00     0.030 A 
ATOM      8  C   UNL d   1      33.065  21.412 -22.143  0.00  0.00     0.006 A 
ATOM      9  C   UNL d   1      32.747  22.121 -21.853  0.00  0.00     0.001 A 
ATOM     10  C   UNL d   1      32.295  22.108 -21.159  0.00  0.00     0.000 A 
ATOM     11  C   UNL d   1      32.162  21.405 -20.763  0.00  0.00     0.001 A 
ATOM     12  C   UNL d   1      32.476  20.693 -21.047  0.00  0.00     0.006 A 
ENDBRANCH   6   7
ENDBRANCH   4   6
ENDBRANCH   2   4
BRANCH   1  13
ATOM     13  C   UNL d   1      32.322  18.096 -23.917  0.00  0.00     0.219 A 
ATOM     14  S   UNL d   1      31.610  17.739 -23.714  0.00  0.00    -0.026 SA
ATOM     15  C   UNL d   1      31.611  16.969 -24.014  0.00  0.00     0.135 A 
ATOM     16  N   UNL d   1      32.331  16.854 -24.405  0.00  0.00    -0.139 NA
ATOM     17  N   UNL d   1      32.770  17.549 -24.345  0.00  0.00    -0.121 NA
BRANCH  15  18
ATOM     18  C   UNL d   1      31.007  16.413 -23.941  0.00  0.00     0.028 C 
ATOM     19  C   UNL d   1      31.066  15.824 -23.362  0.00  0.00     0.002 C 
ENDBRANCH  15  18
ENDBRANCH   1  13
TORSDOF 5
ENDMDL
MODEL 4
REMARK VINA RESULT:      -2.0      1.559      2.299
REMARK  5 active torsions:
REMARK  status: ('A' for Active; 'I' for Inactive)
REMARK    1  A    between atoms: N_3  and  C_1 
REMARK       I    between atoms: C_6  and  N_3 
REMARK    2  A    between atoms: C_9  and  C_6 
REMARK    3  A    between atoms: C_12  and  C_7 
REMARK    4  A    between atoms: S_8  and  C_9 
REMARK    5  A    between atoms: C_11  and  S_8 
ROOT
ATOM      1  N   UNL d   1      32.802  20.798 -21.285  0.00  0.00    -0.181 NA
ATOM      2  C   UNL d   1      33.051  20.732 -22.068  0.00  0.00     0.287 C 
ATOM      3  O   UNL d   1      33.217  21.411 -22.498  0.00  0.00    -0.265 OA
ENDROOT
BRANCH   2   4
ATOM      4  C   UNL d   1      33.131  19.988 -22.413  0.00  0.00     0.087 C 
ATOM      5  C   UNL d   1      33.220  19.324 -21.940  0.00  0.00     0.012 C 
BRANCH   4   6
ATOM      6  S   UNL d   1      33.121  19.920 -23.238  0.00  0.00    -0.082 SA
BRANCH   6   7
ATOM      7  C   UNL d   1      33.041  19.192 -23.587  0.00  0.00     0.030 A 
ATOM      8  C   UNL d   1      33.235  19.094 -24.383  0.00  0.00     0.006 A 
ATOM      9  C   UNL d   1      33.153  18.350 -24.740  0.00  0.00     0.001 A 
ATOM     10  C   UNL d   1      32.875  17.712 -24.290  0.00  0.00     0.000 A 
ATOM     11  C   UNL d   1      32.684  17.814 -23.501  0.00  0.00     0.001 A 
ATOM     12  C   UNL d   1      32.763  18.553 -23.138  0.00  0.00     0.006 A 
ENDBRANCH   6   7
ENDBRANCH   4   6
ENDBRANCH   2   4
BRANCH   1  13
ATOM     13  C   UNL d   1      32.720  21.535 -20.934  0.00  0.00     0.219 A 
ATOM     14  S   UNL d   1      33.200  21.852 -20.346  0.00  0.00    -0.026 SA
ATOM     15  C   UNL d   1      32.917  22.604 -20.157  0.00  0.00     0.135 A 
ATOM     16  N   UNL d   1      32.257  22.750 -20.634  0.00  0.00    -0.139 NA
ATOM     17  N   UNL d   1      32.135  22.091 -21.113  0.00  0.00    -0.121 NA
BRANCH  15  18
ATOM     18  C   UNL d   1      33.231  23.121 -19.597  0.00  0.00     0.028 C 
ATOM     19  C   UNL d   1      32.771  23.337 -18.942  0.00  0.00     0.002 C 
ENDBRANCH  15  18
ENDBRANCH   1  13
TORSDOF 5
ENDMDL
MODEL 5
REMARK VINA RESULT:      -0.8      4.502      6.203
REMARK  5 active torsions:
REMARK  status: ('A' for Active; 'I' for Inactive)
REMARK    1  A    between atoms: N_3  and  C_1 
REMARK       I    between atoms: C_6  and  N_3 
REMARK    2  A    between atoms: C_9  and  C_6 
REMARK    3  A    between atoms: C_12  and  C_7 
REMARK    4  A    between atoms: S_8  and  C_9 
REMARK    5  A    between atoms: C_11  and  S_8 
ROOT
ATOM      1  N   UNL d   1      33.038  22.518 -20.977  0.00  0.00    -0.181 NA
ATOM      2  C   UNL d   1      32.497  22.148 -20.477  0.00  0.00     0.287 C 
ATOM      3  O   UNL d   1      31.895  21.690 -20.798  0.00  0.00    -0.265 OA
ENDROOT
BRANCH   2   4
ATOM      4  C   UNL d   1      32.563  22.239 -19.661  0.00  0.00     0.087 C 
ATOM      5  C   UNL d   1      32.580  21.578 -19.175  0.00  0.00     0.012 C 
BRANCH   4   6
ATOM      6  S   UNL d   1      32.610  23.000 -19.339  0.00  0.00    -0.082 SA
BRANCH   6   7
ATOM      7  C   UNL d   1      32.636  23.103 -18.534  0.00  0.00     0.030 A 
ATOM      8  C   UNL d   1      33.211  22.714 -18.089  0.00  0.00     0.006 A 
ATOM      9  C   UNL d   1      33.237  22.818 -17.266  0.00  0.00     0.001 A 
ATOM     10  C   UNL d   1      32.683  23.315 -16.902  0.00  0.00     0.000 A 
ATOM     11  C   UNL d   1      32.114  23.699 -17.348  0.00  0.00     0.001 A 
ATOM     12  C   UNL d   1      32.081  23.600 -18.169  0.00  0.00     0.006 A 
ENDBRANCH   6   7
ENDBRANCH   4   6
ENDBRANCH   2   4
BRANCH   1  13
ATOM     13  C   UNL d   1      32.979  22.431 -21.791  0.00  0.00     0.219 A 
ATOM     14  S   UNL d   1      32.925  23.039 -22.343  0.00  0.00    -0.026 SA
ATOM     15  C   UNL d   1      32.876  22.703 -23.095  0.00  0.00     0.135 A 
ATOM     16  N   UNL d   1      32.899  21.881 -23.004  0.00  0.00    -0.139 NA
ATOM     17  N   UNL d   1      32.963  21.714 -22.199  0.00  0.00    -0.121 NA
BRANCH  15  18
ATOM     18  C   UNL d   1      32.814  23.107 -23.812  0.00  0.00     0.028 C 
ATOM     19  C   UNL d   1      33.191  22.802 -24.483  0.00  0.00     0.002 C 
ENDBRANCH  15  18
ENDBRANCH   1  13
TORSDOF 5
ENDMDL
MODEL 6
REMARK VINA RESULT:      -0.1      3.406      5.349
REMARK  5 active torsions:
REMARK  status: ('A' for Active; 'I' for Inactive)
REMARK    1  A    between atoms: N_3  and  C_1 
REMARK       I    between atoms: C_6  and  N_3 
REMARK    2  A    between atoms: C_9  and  C_6 
REMARK    3  A    between atoms: C_12  and  C_7 
REMARK    4  A    between atoms: S_8  and  C_9 
REMARK    5  A    between atoms: C_11  and  S_8 
ROOT
ATOM      1  N   UNL d   1      29.512  16.446 -24.136  0.00  0.00    -0.181 NA
ATOM      2  C   UNL d   1      29.635  17.135 -24.572  0.00  0.00     0.287 C 
ATOM      3  O   UNL d   1      29.008  17.471 -24.984  0.00  0.00    -0.265 OA
ENDROOT
BRANCH   2   4
ATOM      4  C   UNL d   1      30.381  17.483 -24.591  0.00  0.00     0.087 C 
ATOM      5  C   UNL d   1      30.522  18.125 -25.082  0.00  0.00     0.012 C 
BRANCH   4   6
ATOM      6  S   UNL d   1      30.984  17.178 -24.112  0.00  0.00    -0.082 SA
BRANCH   6   7
ATOM      7  C   UNL d   1      31.715  17.532 -24.099  0.00  0.00     0.030 A 
ATOM      8  C   UNL d   1      31.832  18.214 -23.650  0.00  0.00     0.006 A 
ATOM      9  C   UNL d   1      32.578  18.576 -23.637  0.00  0.00     0.001 A 
ATOM     10  C   UNL d   1      33.197  18.246 -24.077  0.00  0.00     0.000 A 
ATOM     11  C   UNL d   1      33.076  17.570 -24.521  0.00  0.00     0.001 A 
ATOM     12  C   UNL d   1      32.334  17.202 -24.540  0.00  0.00     0.006 A 
ENDBRANCH   6   7
ENDBRANCH   4   6
ENDBRANCH   2   4
BRANCH   1  13
ATOM     13  C   UNL d   1      28.771  16.094 -24.113  0.00  0.00     0.219 A 
ATOM     14  S   UNL d   1      28.277  16.042 -23.457  0.00  0.00    -0.026 SA
ATOM     15  C   UNL d   1      27.588  15.645 -23.682  0.00  0.00     0.135 A 
ATOM     16  N   UNL d   1      27.661  15.453 -24.483  0.00  0.00    -0.139 NA
ATOM     17  N   UNL d   1      28.390  15.730 -24.749  0.00  0.00    -0.121 NA
BRANCH  15  18
ATOM     18  C   UNL d   1      26.942  15.470 -23.200  0.00  0.00     0.028 C 
ATOM     19  C   UNL d   1      26.180  15.490 -23.522  0.00  0.00     0.002 C 
ENDBRANCH  15  18
ENDBRANCH   1  13
TORSDOF 5
ENDMDL
