MODEL 1
REMARK VINA RESULT:      -3.4      0.000      0.000
REMARK  6 active torsions:
REMARK  status: ('A' for Active; 'I' for Inactive)
REMARK    1  A    between atoms: C_6  and  C_1 
REMARK    2  A    between atoms: C_9  and  N_3 
REMARK       I    between atoms: N_7  and  C_6 
REMARK    3  A    between atoms: C_8  and  N_7 
REMARK    4  A    between atoms: C_10  and  C_9 
REMARK    5  A    between atoms: O_25  and  C_15 
REMARK    6  A    between atoms: O_26  and  C_20 
ROOT
ATOM      1  C   UNL d   1      57.313  -0.522  31.123  0.00  0.00     0.199 A 
ATOM      2  C   UNL d   1      57.711  -0.134  30.518  0.00  0.00     0.211 A 
ATOM      3  N   UNL d   1      58.084  -0.703  30.055  0.00  0.00    -0.190 N 
ATOM      4  N   UNL d   1      57.436  -1.333  31.037  0.00  0.00    -0.122 NA
ATOM      5  N   UNL d   1      57.919  -1.450  30.369  0.00  0.00    -0.058 NA
ATOM      6  N   UNL d   1      57.734   0.679  30.396  0.00  0.00    -0.125 N 
ENDROOT
BRANCH   1   7
ATOM      7  C   UNL d   1      56.866  -0.167  31.715  0.00  0.00     0.302 C 
ATOM      8  N   UNL d   1      56.967  -0.395  32.501  0.00  0.00    -0.204 NA
ATOM      9  O   UNL d   1      56.313   0.420  31.521  0.00  0.00    -0.263 OA
BRANCH   8  10
ATOM     10  C   UNL d   1      56.514  -0.035  33.094  0.00  0.00     0.109 A 
ATOM     11  C   UNL d   1      55.691  -0.033  33.045  0.00  0.00     0.045 A 
ATOM     12  C   UNL d   1      55.244   0.323  33.631  0.00  0.00     0.096 A 
ATOM     13  C   UNL d   1      55.612   0.682  34.276  0.00  0.00     0.026 A 
ATOM     14  C   UNL d   1      56.442   0.681  34.328  0.00  0.00     0.028 A 
ATOM     15  C   UNL d   1      56.889   0.321  33.733  0.00  0.00     0.112 A 
BRANCH  12  16
ATOM     16  O   UNL d   1      54.420   0.325  33.582  0.00  0.00    -0.328 OA
ATOM     17  C   UNL d   1      53.969   0.007  34.184  0.00  0.00     0.181 C 
ENDBRANCH  12  16
BRANCH  15  18
ATOM     18  O   UNL d   1      57.705   0.316  33.777  0.00  0.00    -0.327 OA
ATOM     19  C   UNL d   1      58.091   0.621  34.440  0.00  0.00     0.181 C 
ENDBRANCH  15  18
ENDBRANCH   8  10
ENDBRANCH   1   7
BRANCH   3  20
ATOM     20  C   UNL d   1      58.543  -0.561  29.391  0.00  0.00     0.106 C 
BRANCH  20  21
ATOM     21  C   UNL d   1      59.126  -1.100  29.157  0.00  0.00     0.047 A 
ATOM     22  C   UNL d   1      59.899  -0.852  29.060  0.00  0.00     0.142 A 
ATOM     23  C   UNL d   1      60.479  -1.394  28.826  0.00  0.00     0.036 A 
ATOM     24  F   UNL d   1      60.107  -0.068  29.192  0.00  0.00    -0.204 F 
ATOM     25  C   UNL d   1      60.281  -2.185  28.691  0.00  0.00     0.037 A 
ATOM     26  C   UNL d   1      59.491  -2.430  28.792  0.00  0.00     0.007 A 
ATOM     27 BR   UNL d   1      60.854  -2.731  28.457  0.00  0.00    -0.049 Br
ATOM     28  C   UNL d   1      58.919  -1.884  29.025  0.00  0.00     0.004 A 
ENDBRANCH  20  21
ENDBRANCH   3  20
TORSDOF 6
ENDMDL
MODEL 2
REMARK VINA RESULT:      -1.8      2.661      5.572
REMARK  6 active torsions:
REMARK  status: ('A' for Active; 'I' for Inactive)
REMARK    1  A    between atoms: C_6  and  C_1 
REMARK    2  A    between atoms: C_9  and  N_3 
REMARK       I    between atoms: N_7  and  C_6 
REMARK    3  A    between atoms: C_8  and  N_7 
REMARK    4  A    between atoms: C_10  and  C_9 
REMARK    5  A    between atoms: O_25  and  C_15 
REMARK    6  A    between atoms: O_26  and  C_20 
ROOT
ATOM      1  C   UNL d   1      57.415  -0.555  31.322  0.00  0.00     0.199 A 
ATOM      2  C   UNL d   1      56.917   0.092  31.405  0.00  0.00     0.211 A 
ATOM      3  N   UNL d   1      56.671   0.123  32.189  0.00  0.00    -0.190 N 
ATOM      4  N   UNL d   1      57.481  -0.930  32.054  0.00  0.00    -0.122 NA
ATOM      5  N   UNL d   1      57.015  -0.507  32.600  0.00  0.00    -0.058 NA
ATOM      6  N   UNL d   1      56.701   0.617  30.810  0.00  0.00    -0.125 N 
ENDROOT
BRANCH   1   7
ATOM      7  C   UNL d   1      57.788  -0.795  30.629  0.00  0.00     0.302 C 
ATOM      8  N   UNL d   1      58.611  -0.809  30.588  0.00  0.00    -0.204 NA
ATOM      9  O   UNL d   1      57.335  -1.022  29.973  0.00  0.00    -0.263 OA
BRANCH   8  10
ATOM     10  C   UNL d   1      58.983  -1.051  29.887  0.00  0.00     0.109 A 
ATOM     11  C   UNL d   1      58.839  -1.803  29.579  0.00  0.00     0.045 A 
ATOM     12  C   UNL d   1      59.206  -2.041  28.888  0.00  0.00     0.096 A 
ATOM     13  C   UNL d   1      59.723  -1.533  28.493  0.00  0.00     0.026 A 
ATOM     14  C   UNL d   1      59.870  -0.775  28.801  0.00  0.00     0.028 A 
ATOM     15  C   UNL d   1      59.496  -0.539  29.500  0.00  0.00     0.112 A 
BRANCH  12  16
ATOM     16  O   UNL d   1      59.062  -2.793  28.579  0.00  0.00    -0.328 OA
ATOM     17  C   UNL d   1      59.457  -3.443  28.875  0.00  0.00     0.181 C 
ENDBRANCH  12  16
BRANCH  15  18
ATOM     18  O   UNL d   1      59.636   0.205  29.810  0.00  0.00    -0.327 OA
ATOM     19  C   UNL d   1      60.397   0.524  29.808  0.00  0.00     0.181 C 
ENDBRANCH  15  18
ENDBRANCH   8  10
ENDBRANCH   1   7
BRANCH   3  20
ATOM     20  C   UNL d   1      56.168   0.682  32.517  0.00  0.00     0.106 C 
BRANCH  20  21
ATOM     21  C   UNL d   1      55.988   0.666  33.325  0.00  0.00     0.047 A 
ATOM     22  C   UNL d   1      55.209   0.635  33.571  0.00  0.00     0.142 A 
ATOM     23  C   UNL d   1      55.033   0.619  34.379  0.00  0.00     0.036 A 
ATOM     24  F   UNL d   1      54.597   0.619  33.022  0.00  0.00    -0.204 F 
ATOM     25  C   UNL d   1      55.640   0.635  34.939  0.00  0.00     0.037 A 
ATOM     26  C   UNL d   1      56.432   0.666  34.681  0.00  0.00     0.007 A 
ATOM     27 BR   UNL d   1      55.472   0.619  35.747  0.00  0.00    -0.049 Br
ATOM     28  C   UNL d   1      56.599   0.682  33.873  0.00  0.00     0.004 A 
ENDBRANCH  20  21
ENDBRANCH   3  20
TORSDOF 6
ENDMDL
