MODEL 1
REMARK VINA RESULT:       9.1      0.000      0.000
REMARK  2 active torsions:
REMARK  status: ('A' for Active; 'I' for Inactive)
REMARK    1  A    between atoms: C_2  and  N_1 
REMARK    2  A    between atoms: O_12  and  C_10 
ROOT
ATOM      1  C   UNL d   1      23.999  12.734  -1.842  0.00  0.00     0.072 A 
ATOM      2  C   UNL d   1      23.760  13.096  -2.540  0.00  0.00     0.042 A 
ATOM      3  C   UNL d   1      24.030  12.793  -3.257  0.00  0.00     0.096 A 
ATOM      4  C   UNL d   1      24.502  12.077  -1.864  0.00  0.00     0.018 A 
ATOM      5  C   UNL d   1      24.768  11.779  -2.562  0.00  0.00     0.004 A 
ATOM      6  C   UNL d   1      24.531  12.141  -3.285  0.00  0.00     0.024 A 
ENDROOT
BRANCH   1   7
ATOM      7  N   UNL d   1      23.729  13.036  -1.122  0.00  0.00    -0.242 N 
ATOM      8  C   UNL d   1      23.081  12.783  -0.700  0.00  0.00     0.267 A 
ATOM      9  C   UNL d   1      23.015  13.239  -0.015  0.00  0.00     0.066 A 
ATOM     10  O   UNL d   1      22.571  12.172  -0.920  0.00  0.00    -0.267 OA
ATOM     11  C   UNL d   1      23.641  13.785  -0.019  0.00  0.00     0.066 A 
ATOM     12  C   UNL d   1      24.090  13.665  -0.705  0.00  0.00     0.267 A 
ATOM     13  O   UNL d   1      24.758  14.084  -0.926  0.00  0.00    -0.267 OA
ENDBRANCH   1   7
BRANCH   3  14
ATOM     14  O   UNL d   1      23.791  13.157  -3.969  0.00  0.00    -0.328 OA
ATOM     15  C   UNL d   1      24.140  12.922  -4.663  0.00  0.00     0.181 C 
ENDBRANCH   3  14
TORSDOF 2
ENDMDL
