MODEL 1
REMARK VINA RESULT:      -8.0      0.000      0.000
REMARK  4 active torsions:
REMARK  status: ('A' for Active; 'I' for Inactive)
REMARK    1  A    between atoms: C_8  and  N_1 
REMARK    2  A    between atoms: N_7  and  C_4 
REMARK    3  A    between atoms: N_6  and  C_10 
REMARK    4  A    between atoms: C_15  and  N_7 
ROOT
ATOM      1  N   UNL d   1      48.271  35.427  52.515  0.00  0.00    -0.241 N 
ATOM      2  C   UNL d   1      48.795  35.624  53.102  0.00  0.00     0.269 A 
ATOM      3  C   UNL d   1      48.631  34.877  52.028  0.00  0.00     0.285 A 
ATOM      4  C   UNL d   1      49.386  34.753  52.344  0.00  0.00     0.142 A 
ATOM      5  C   UNL d   1      49.477  35.198  52.979  0.00  0.00     0.085 A 
ATOM      6  O   UNL d   1      48.682  36.167  53.735  0.00  0.00    -0.267 OA
ATOM      7  O   UNL d   1      48.300  34.513  51.347  0.00  0.00    -0.265 OA
ENDROOT
BRANCH   4   8
ATOM      8  N   UNL d   1      50.001  34.226  52.049  0.00  0.00    -0.241 NA
BRANCH   8   9
ATOM      9  C   UNL d   1      50.685  34.064  52.491  0.00  0.00     0.082 A 
ATOM     10  C   UNL d   1      51.385  34.477  52.316  0.00  0.00     0.021 A 
ATOM     11  C   UNL d   1      52.067  34.308  52.766  0.00  0.00     0.019 A 
ATOM     12  C   UNL d   1      52.051  33.755  53.360  0.00  0.00     0.064 A 
ATOM     13  C   UNL d   1      51.374  33.352  53.534  0.00  0.00     0.019 A 
ATOM     14  C   UNL d   1      50.683  33.505  53.098  0.00  0.00     0.021 A 
BRANCH  12  15
ATOM     15  N   UNL d   1      52.744  33.605  53.794  0.00  0.00    -0.300 N 
ATOM     16  C   UNL d   1      52.956  34.118  54.405  0.00  0.00     0.107 A 
ATOM     17  C   UNL d   1      53.646  33.960  54.831  0.00  0.00     0.142 A 
ATOM     18  O   UNL d   1      54.104  33.307  54.645  0.00  0.00    -0.300 OA
ATOM     19  C   UNL d   1      53.876  32.814  54.038  0.00  0.00     0.142 A 
ATOM     20  C   UNL d   1      53.187  32.950  53.595  0.00  0.00     0.107 A 
ENDBRANCH  12  15
ENDBRANCH   8   9
ENDBRANCH   4   8
BRANCH   1  21
ATOM     21  C   UNL d   1      47.531  35.761  52.482  0.00  0.00     0.070 A 
ATOM     22  C   UNL d   1      47.341  36.337  51.897  0.00  0.00     0.018 A 
ATOM     23  C   UNL d   1      46.592  36.670  51.869  0.00  0.00     0.002 A 
ATOM     24  C   UNL d   1      46.018  36.437  52.421  0.00  0.00     0.000 A 
ATOM     25  C   UNL d   1      46.196  35.881  52.988  0.00  0.00     0.002 A 
ATOM     26  C   UNL d   1      46.950  35.547  53.015  0.00  0.00     0.018 A 
ENDBRANCH   1  21
TORSDOF 4
ENDMDL
MODEL 2
REMARK VINA RESULT:      -7.9      2.041      6.166
REMARK  4 active torsions:
REMARK  status: ('A' for Active; 'I' for Inactive)
REMARK    1  A    between atoms: C_8  and  N_1 
REMARK    2  A    between atoms: N_7  and  C_4 
REMARK    3  A    between atoms: N_6  and  C_10 
REMARK    4  A    between atoms: C_15  and  N_7 
ROOT
ATOM      1  N   UNL d   1      53.127  30.978  53.493  0.00  0.00    -0.241 N 
ATOM      2  C   UNL d   1      52.822  31.021  52.743  0.00  0.00     0.269 A 
ATOM      3  C   UNL d   1      53.158  31.738  53.797  0.00  0.00     0.285 A 
ATOM      4  C   UNL d   1      52.861  32.233  53.205  0.00  0.00     0.142 A 
ATOM      5  C   UNL d   1      52.664  31.803  52.583  0.00  0.00     0.085 A 
ATOM      6  O   UNL d   1      52.682  30.389  52.204  0.00  0.00    -0.267 OA
ATOM      7  O   UNL d   1      53.435  31.965  54.557  0.00  0.00    -0.265 OA
ENDROOT
BRANCH   4   8
ATOM      8  N   UNL d   1      52.769  33.090  53.230  0.00  0.00    -0.241 NA
BRANCH   8   9
ATOM      9  C   UNL d   1      52.046  33.456  53.049  0.00  0.00     0.082 A 
ATOM     10  C   UNL d   1      51.998  33.944  52.379  0.00  0.00     0.021 A 
ATOM     11  C   UNL d   1      51.267  34.307  52.204  0.00  0.00     0.019 A 
ATOM     12  C   UNL d   1      50.618  34.189  52.675  0.00  0.00     0.064 A 
ATOM     13  C   UNL d   1      50.659  33.715  53.328  0.00  0.00     0.019 A 
ATOM     14  C   UNL d   1      51.377  33.344  53.519  0.00  0.00     0.021 A 
BRANCH  12  15
ATOM     15  N   UNL d   1      49.901  34.562  52.481  0.00  0.00    -0.300 N 
ATOM     16  C   UNL d   1      49.564  34.425  51.740  0.00  0.00     0.107 A 
ATOM     17  C   UNL d   1      48.851  34.800  51.555  0.00  0.00     0.142 A 
ATOM     18  O   UNL d   1      48.493  35.295  52.102  0.00  0.00    -0.300 OA
ATOM     19  C   UNL d   1      48.844  35.415  52.827  0.00  0.00     0.142 A 
ATOM     20  C   UNL d   1      49.559  35.050  53.037  0.00  0.00     0.107 A 
ENDBRANCH  12  15
ENDBRANCH   8   9
ENDBRANCH   4   8
BRANCH   1  21
ATOM     21  C   UNL d   1      53.343  30.267  53.820  0.00  0.00     0.070 A 
ATOM     22  C   UNL d   1      54.086  29.915  53.641  0.00  0.00     0.018 A 
ATOM     23  C   UNL d   1      54.298  29.196  53.975  0.00  0.00     0.002 A 
ATOM     24  C   UNL d   1      53.774  28.815  54.493  0.00  0.00     0.000 A 
ATOM     25  C   UNL d   1      53.054  29.149  54.670  0.00  0.00     0.002 A 
ATOM     26  C   UNL d   1      52.843  29.872  54.333  0.00  0.00     0.018 A 
ENDBRANCH   1  21
TORSDOF 4
ENDMDL
