MODEL 1
REMARK VINA RESULT:      -0.5      0.000      0.000
REMARK  1 active torsions:
REMARK  status: ('A' for Active; 'I' for Inactive)
REMARK    1  A    between atoms: C_10  and  N_2 
ROOT
ATOM      1  C   UNL d   1     -41.791-122.271 -52.846  0.00  0.00     0.166 A 
ATOM      2  N   UNL d   1     -41.936-121.961 -53.603  0.00  0.00    -0.291 N 
ATOM      3  C   UNL d   1     -41.465-123.018 -52.959  0.00  0.00     0.117 A 
ATOM      4  C   UNL d   1     -41.701-122.509 -54.156  0.00  0.00     0.067 A 
ATOM      5  N   UNL d   1     -41.918-121.963 -52.081  0.00  0.00    -0.225 NA
ATOM      6  C   UNL d   1     -41.407-123.167 -53.755  0.00  0.00     0.037 A 
ATOM      7  N   UNL d   1     -41.266-123.454 -52.280  0.00  0.00    -0.241 NA
ATOM      8  C   UNL d   1     -41.718-122.403 -51.431  0.00  0.00     0.101 A 
ATOM      9  C   UNL d   1     -41.388-123.158 -51.539  0.00  0.00     0.099 A 
ATOM     10  C   UNL d   1     -41.713-122.501 -54.986  0.00  0.00     0.018 A 
ATOM     11  C   UNL d   1     -41.127-123.817 -54.183  0.00  0.00     0.003 A 
ATOM     12  C   UNL d   1     -41.184-123.606 -50.886  0.00  0.00     0.021 A 
ATOM     13  C   UNL d   1     -41.837-122.114 -50.688  0.00  0.00     0.021 A 
ATOM     14  C   UNL d   1     -41.431-123.155 -55.412  0.00  0.00     0.002 A 
ATOM     15  C   UNL d   1     -41.137-123.813 -55.011  0.00  0.00     0.000 A 
ATOM     16  C   UNL d   1     -41.624-122.584 -50.019  0.00  0.00     0.002 A 
ATOM     17  C   UNL d   1     -41.300-123.323 -50.107  0.00  0.00     0.002 A 
ENDROOT
BRANCH   2  18
ATOM     18  C   UNL d   1     -42.256-121.235 -53.761  0.00  0.00     0.066 C 
ATOM     19  C   UNL d   1     -43.062-121.195 -54.014  0.00  0.00     0.019 C 
ATOM     20  C   UNL d   1     -41.798-120.560 -53.672  0.00  0.00     0.019 C 
ENDBRANCH   2  18
TORSDOF 1
ENDMDL
MODEL 2
REMARK VINA RESULT:       0.0      1.168      1.829
REMARK  1 active torsions:
REMARK  status: ('A' for Active; 'I' for Inactive)
REMARK    1  A    between atoms: C_10  and  N_2 
ROOT
ATOM      1  C   UNL d   1     -41.785-122.236 -51.129  0.00  0.00     0.166 A 
ATOM      2  N   UNL d   1     -41.675-121.848 -51.856  0.00  0.00    -0.291 N 
ATOM      3  C   UNL d   1     -41.655-123.036 -51.272  0.00  0.00     0.117 A 
ATOM      4  C   UNL d   1     -41.484-122.403 -52.419  0.00  0.00     0.067 A 
ATOM      5  N   UNL d   1     -41.985-121.957 -50.369  0.00  0.00    -0.225 NA
ATOM      6  C   UNL d   1     -41.472-123.143 -52.055  0.00  0.00     0.037 A 
ATOM      7  N   UNL d   1     -41.731-123.555 -50.628  0.00  0.00    -0.241 NA
ATOM      8  C   UNL d   1     -42.055-122.477 -49.753  0.00  0.00     0.101 A 
ATOM      9  C   UNL d   1     -41.924-123.287 -49.891  0.00  0.00     0.099 A 
ATOM     10  C   UNL d   1     -41.316-122.336 -53.230  0.00  0.00     0.018 A 
ATOM     11  C   UNL d   1     -41.292-123.816 -52.502  0.00  0.00     0.003 A 
ATOM     12  C   UNL d   1     -41.993-123.817 -49.273  0.00  0.00     0.021 A 
ATOM     13  C   UNL d   1     -42.247-122.217 -49.015  0.00  0.00     0.021 A 
ATOM     14  C   UNL d   1     -41.136-123.014 -53.674  0.00  0.00     0.002 A 
ATOM     15  C   UNL d   1     -41.124-123.754 -53.310  0.00  0.00     0.000 A 
ATOM     16  C   UNL d   1     -42.316-122.772 -48.382  0.00  0.00     0.002 A 
ATOM     17  C   UNL d   1     -42.193-123.565 -48.499  0.00  0.00     0.002 A 
ENDROOT
BRANCH   2  18
ATOM     18  C   UNL d   1     -41.747-121.051 -51.979  0.00  0.00     0.066 C 
ATOM     19  C   UNL d   1     -41.126-120.544 -51.709  0.00  0.00     0.019 C 
ATOM     20  C   UNL d   1     -42.412-120.756 -52.358  0.00  0.00     0.019 C 
ENDBRANCH   2  18
TORSDOF 1
ENDMDL
MODEL 3
REMARK VINA RESULT:       0.3      0.982      3.725
REMARK  1 active torsions:
REMARK  status: ('A' for Active; 'I' for Inactive)
REMARK    1  A    between atoms: C_10  and  N_2 
ROOT
ATOM      1  C   UNL d   1     -41.753-122.466 -52.865  0.00  0.00     0.166 A 
ATOM      2  N   UNL d   1     -41.681-122.645 -52.056  0.00  0.00    -0.291 N 
ATOM      3  C   UNL d   1     -41.606-121.660 -52.937  0.00  0.00     0.117 A 
ATOM      4  C   UNL d   1     -41.495-121.963 -51.656  0.00  0.00     0.067 A 
ATOM      5  N   UNL d   1     -41.933-122.937 -53.530  0.00  0.00    -0.225 NA
ATOM      6  C   UNL d   1     -41.448-121.349 -52.205  0.00  0.00     0.037 A 
ATOM      7  N   UNL d   1     -41.643-121.333 -53.701  0.00  0.00    -0.241 NA
ATOM      8  C   UNL d   1     -41.965-122.601 -54.266  0.00  0.00     0.101 A 
ATOM      9  C   UNL d   1     -41.817-121.787 -54.345  0.00  0.00     0.099 A 
ATOM     10  C   UNL d   1     -41.359-121.811 -50.851  0.00  0.00     0.018 A 
ATOM     11  C   UNL d   1     -41.265-120.583 -51.949  0.00  0.00     0.003 A 
ATOM     12  C   UNL d   1     -41.848-121.442 -55.086  0.00  0.00     0.021 A 
ATOM     13  C   UNL d   1     -42.137-123.048 -54.914  0.00  0.00     0.021 A 
ATOM     14  C   UNL d   1     -41.176-121.042 -50.599  0.00  0.00     0.002 A 
ATOM     15  C   UNL d   1     -41.129-120.428 -51.148  0.00  0.00     0.000 A 
ATOM     16  C   UNL d   1     -42.167-122.683 -55.675  0.00  0.00     0.002 A 
ATOM     17  C   UNL d   1     -42.026-121.890 -55.771  0.00  0.00     0.002 A 
ENDROOT
BRANCH   2  18
ATOM     18  C   UNL d   1     -41.780-123.378 -51.727  0.00  0.00     0.066 C 
ATOM     19  C   UNL d   1     -42.566-123.672 -51.626  0.00  0.00     0.019 C 
ATOM     20  C   UNL d   1     -41.123-123.814 -51.501  0.00  0.00     0.019 C 
ENDBRANCH   2  18
TORSDOF 1
ENDMDL
