MODEL 1
REMARK VINA RESULT:      11.0      0.000      0.000
REMARK  0 active torsions:
REMARK  status: ('A' for Active; 'I' for Inactive)
ROOT
ATOM      1  N   UNL d   1     -54.730-101.194 -37.610  0.00  0.00    -0.270 NA
ATOM      2  C   UNL d   1     -54.744-102.213 -36.309  0.00  0.00    -0.001 A 
ATOM      3  C   UNL d   1     -54.740-102.521 -37.074  0.00  0.00    -0.004 A 
ATOM      4  C   UNL d   1     -54.734-100.894 -36.850  0.00  0.00     0.076 A 
ATOM      5  C   UNL d   1     -54.733-102.011 -37.725  0.00  0.00     0.103 A 
ATOM      6  C   UNL d   1     -54.741-101.403 -36.199  0.00  0.00     0.017 A 
ATOM      7  C   UNL d   1     -54.751-102.723 -35.657  0.00  0.00    -0.000 C 
ATOM      8  C   UNL d   1     -54.731-100.076 -36.735  0.00  0.00     0.019 A 
ATOM      9  C   UNL d   1     -54.736-102.828 -37.839  0.00  0.00     0.029 C 
ATOM     10  C   UNL d   1     -54.726-101.501 -38.376  0.00  0.00     0.029 C 
ATOM     11  C   UNL d   1     -54.745-101.099 -35.436  0.00  0.00     0.002 A 
ATOM     12  C   UNL d   1     -54.735 -99.772 -35.973  0.00  0.00     0.002 A 
ATOM     13  C   UNL d   1     -54.742-100.278 -35.318  0.00  0.00     0.000 A 
ENDROOT
TORSDOF 0
ENDMDL
