MODEL 1
REMARK VINA RESULT:      -7.7      0.000      0.000
REMARK  2 active torsions:
REMARK  status: ('A' for Active; 'I' for Inactive)
REMARK    1  A    between atoms: C_6  and  C_1 
REMARK    2  A    between atoms: C_7  and  C_5 
ROOT
ATOM      1  C   UNL d   1     -46.043  13.034  22.634  0.00  0.00     0.169 A 
ATOM      2  C   UNL d   1     -46.731  13.090  22.173  0.00  0.00     0.048 A 
ATOM      3  N   UNL d   1     -46.797  12.485  23.698  0.00  0.00    -0.148 NA
ATOM      4  N   UNL d   1     -46.074  12.731  23.398  0.00  0.00    -0.142 NA
ATOM      5  C   UNL d   1     -47.484  12.539  23.242  0.00  0.00     0.105 A 
ENDROOT
BRANCH   5   6
ATOM      6  C   UNL d   1     -48.278  12.351  23.356  0.00  0.00     0.019 A 
ATOM      7  C   UNL d   1     -48.852  12.934  23.248  0.00  0.00     0.002 A 
ATOM      8  C   UNL d   1     -49.646  12.748  23.362  0.00  0.00     0.000 A 
ATOM      9  C   UNL d   1     -50.248  13.350  23.251  0.00  0.00     0.000 C 
ATOM     10  C   UNL d   1     -49.865  11.979  23.584  0.00  0.00     0.000 A 
ATOM     11  C   UNL d   1     -49.285  11.404  23.690  0.00  0.00     0.000 A 
ATOM     12  C   UNL d   1     -50.662  11.795  23.698  0.00  0.00     0.000 C 
ATOM     13  C   UNL d   1     -48.494  11.587  23.577  0.00  0.00     0.002 A 
ENDBRANCH   5   6
BRANCH   1  14
ATOM     14  C   UNL d   1     -45.320  13.286  22.319  0.00  0.00     0.231 C 
ATOM     15  O   UNL d   1     -44.741  12.734  22.132  0.00  0.00    -0.643 OA
ATOM     16  O   UNL d   1     -45.182  14.084  22.195  0.00  0.00    -0.643 OA
ENDBRANCH   1  14
TORSDOF 2
ENDMDL
MODEL 2
REMARK VINA RESULT:      -7.5      1.437      2.136
REMARK  2 active torsions:
REMARK  status: ('A' for Active; 'I' for Inactive)
REMARK    1  A    between atoms: C_6  and  C_1 
REMARK    2  A    between atoms: C_7  and  C_5 
ROOT
ATOM      1  C   UNL d   1     -46.172  13.295  22.748  0.00  0.00     0.169 A 
ATOM      2  C   UNL d   1     -46.904  12.920  22.642  0.00  0.00     0.048 A 
ATOM      3  N   UNL d   1     -46.831  14.532  22.941  0.00  0.00    -0.148 NA
ATOM      4  N   UNL d   1     -46.133  14.103  22.898  0.00  0.00    -0.142 NA
ATOM      5  C   UNL d   1     -47.562  14.162  22.835  0.00  0.00     0.105 A 
ENDROOT
BRANCH   5   6
ATOM      6  C   UNL d   1     -48.348  14.408  22.840  0.00  0.00     0.019 A 
ATOM      7  C   UNL d   1     -48.924  13.921  23.174  0.00  0.00     0.002 A 
ATOM      8  C   UNL d   1     -49.710  14.166  23.179  0.00  0.00     0.000 A 
ATOM      9  C   UNL d   1     -50.313  13.663  23.525  0.00  0.00     0.000 C 
ATOM     10  C   UNL d   1     -49.920  14.898  22.849  0.00  0.00     0.000 A 
ATOM     11  C   UNL d   1     -49.338  15.377  22.518  0.00  0.00     0.000 A 
ATOM     12  C   UNL d   1     -50.709  15.141  22.855  0.00  0.00     0.000 C 
ATOM     13  C   UNL d   1     -48.555  15.136  22.512  0.00  0.00     0.002 A 
ENDBRANCH   5   6
BRANCH   1  14
ATOM     14  C   UNL d   1     -45.475  12.851  22.703  0.00  0.00     0.231 C 
ATOM     15  O   UNL d   1     -45.377  12.195  23.189  0.00  0.00    -0.643 OA
ATOM     16  O   UNL d   1     -44.886  13.063  22.175  0.00  0.00    -0.643 OA
ENDBRANCH   1  14
TORSDOF 2
ENDMDL
MODEL 3
REMARK VINA RESULT:      -7.5      1.614      2.345
REMARK  2 active torsions:
REMARK  status: ('A' for Active; 'I' for Inactive)
REMARK    1  A    between atoms: C_6  and  C_1 
REMARK    2  A    between atoms: C_7  and  C_5 
ROOT
ATOM      1  C   UNL d   1     -46.181  12.115  23.334  0.00  0.00     0.169 A 
ATOM      2  C   UNL d   1     -47.004  12.021  23.277  0.00  0.00     0.048 A 
ATOM      3  N   UNL d   1     -46.324  13.511  23.154  0.00  0.00    -0.148 NA
ATOM      4  N   UNL d   1     -45.838  12.861  23.272  0.00  0.00    -0.142 NA
ATOM      5  C   UNL d   1     -47.144  13.422  23.096  0.00  0.00     0.105 A 
ENDROOT
BRANCH   5   6
ATOM      6  C   UNL d   1     -47.781  13.931  22.982  0.00  0.00     0.019 A 
ATOM      7  C   UNL d   1     -48.537  13.694  23.212  0.00  0.00     0.002 A 
ATOM      8  C   UNL d   1     -49.174  14.203  23.098  0.00  0.00     0.000 A 
ATOM      9  C   UNL d   1     -49.963  13.961  23.334  0.00  0.00     0.000 C 
ATOM     10  C   UNL d   1     -49.055  14.948  22.754  0.00  0.00     0.000 A 
ATOM     11  C   UNL d   1     -48.297  15.177  22.529  0.00  0.00     0.000 A 
ATOM     12  C   UNL d   1     -49.696  15.457  22.641  0.00  0.00     0.000 C 
ATOM     13  C   UNL d   1     -47.661  14.673  22.641  0.00  0.00     0.002 A 
ENDBRANCH   5   6
BRANCH   1  14
ATOM     14  C   UNL d   1     -45.703  11.451  23.454  0.00  0.00     0.231 C 
ATOM     15  O   UNL d   1     -44.892  11.503  23.327  0.00  0.00    -0.643 OA
ATOM     16  O   UNL d   1     -46.036  10.743  23.698  0.00  0.00    -0.643 OA
ENDBRANCH   1  14
TORSDOF 2
ENDMDL
MODEL 4
REMARK VINA RESULT:      -7.5      2.724      3.817
REMARK  2 active torsions:
REMARK  status: ('A' for Active; 'I' for Inactive)
REMARK    1  A    between atoms: C_6  and  C_1 
REMARK    2  A    between atoms: C_7  and  C_5 
ROOT
ATOM      1  C   UNL d   1     -49.462  15.037  22.961  0.00  0.00     0.169 A 
ATOM      2  C   UNL d   1     -49.419  14.340  23.411  0.00  0.00     0.048 A 
ATOM      3  N   UNL d   1     -48.164  14.792  22.453  0.00  0.00    -0.148 NA
ATOM      4  N   UNL d   1     -48.834  15.265  22.480  0.00  0.00    -0.142 NA
ATOM      5  C   UNL d   1     -48.118  14.098  22.899  0.00  0.00     0.105 A 
ENDROOT
BRANCH   5   6
ATOM      6  C   UNL d   1     -47.553  13.508  23.005  0.00  0.00     0.019 A 
ATOM      7  C   UNL d   1     -47.786  12.770  23.293  0.00  0.00     0.002 A 
ATOM      8  C   UNL d   1     -47.222  12.180  23.399  0.00  0.00     0.000 A 
ATOM      9  C   UNL d   1     -47.459  11.410  23.698  0.00  0.00     0.000 C 
ATOM     10  C   UNL d   1     -46.426  12.327  23.219  0.00  0.00     0.000 A 
ATOM     11  C   UNL d   1     -46.203  13.067  22.933  0.00  0.00     0.000 A 
ATOM     12  C   UNL d   1     -45.862  11.733  23.327  0.00  0.00     0.000 C 
ATOM     13  C   UNL d   1     -46.762  13.656  22.826  0.00  0.00     0.002 A 
ENDBRANCH   5   6
BRANCH   1  14
ATOM     14  C   UNL d   1     -50.143  15.504  22.998  0.00  0.00     0.231 C 
ATOM     15  O   UNL d   1     -50.644  15.549  22.347  0.00  0.00    -0.643 OA
ATOM     16  O   UNL d   1     -50.319  15.922  23.681  0.00  0.00    -0.643 OA
ENDBRANCH   1  14
TORSDOF 2
ENDMDL
MODEL 5
REMARK VINA RESULT:      -7.2      2.645      3.765
REMARK  2 active torsions:
REMARK  status: ('A' for Active; 'I' for Inactive)
REMARK    1  A    between atoms: C_6  and  C_1 
REMARK    2  A    between atoms: C_7  and  C_5 
ROOT
ATOM      1  C   UNL d   1     -49.787  14.665  22.661  0.00  0.00     0.169 A 
ATOM      2  C   UNL d   1     -49.266  14.639  23.307  0.00  0.00     0.048 A 
ATOM      3  N   UNL d   1     -49.179  13.506  22.122  0.00  0.00    -0.148 NA
ATOM      4  N   UNL d   1     -49.745  14.098  22.066  0.00  0.00    -0.142 NA
ATOM      5  C   UNL d   1     -48.660  13.477  22.764  0.00  0.00     0.105 A 
ENDROOT
BRANCH   5   6
ATOM      6  C   UNL d   1     -48.044  12.981  22.996  0.00  0.00     0.019 A 
ATOM      7  C   UNL d   1     -47.266  13.190  22.819  0.00  0.00     0.002 A 
ATOM      8  C   UNL d   1     -46.650  12.696  23.051  0.00  0.00     0.000 A 
ATOM      9  C   UNL d   1     -45.838  12.908  22.870  0.00  0.00     0.000 C 
ATOM     10  C   UNL d   1     -46.813  11.992  23.459  0.00  0.00     0.000 A 
ATOM     11  C   UNL d   1     -47.593  11.792  23.631  0.00  0.00     0.000 A 
ATOM     12  C   UNL d   1     -46.193  11.498  23.691  0.00  0.00     0.000 C 
ATOM     13  C   UNL d   1     -48.207  12.282  23.402  0.00  0.00     0.002 A 
ENDBRANCH   5   6
BRANCH   1  14
ATOM     14  C   UNL d   1     -50.352  15.267  22.616  0.00  0.00     0.231 C 
ATOM     15  O   UNL d   1     -50.290  15.922  23.109  0.00  0.00    -0.643 OA
ATOM     16  O   UNL d   1     -50.972  15.211  22.083  0.00  0.00    -0.643 OA
ENDBRANCH   1  14
TORSDOF 2
ENDMDL
