MODEL 1
REMARK VINA RESULT:     -10.4      0.000      0.000
REMARK  3 active torsions:
REMARK  status: ('A' for Active; 'I' for Inactive)
REMARK    1  A    between atoms: N_6  and  C_1 
REMARK    2  A    between atoms: C_7  and  N_2 
REMARK    3  A    between atoms: C_8  and  N_6 
ROOT
ATOM      1  C   UNL d   1      52.852  32.635  53.266  0.00  0.00     0.735 A 
ATOM      2  N   UNL d   1      53.485  32.274  53.659  0.00  0.00    -0.139 N 
ATOM      3  N   UNL d   1      52.400  32.047  52.898  0.00  0.00    -0.059 NA
ATOM      4  C   UNL d   1      53.427  31.460  53.536  0.00  0.00     0.100 A 
ATOM      5  C   UNL d   1      52.754  31.324  53.064  0.00  0.00     0.116 A 
ATOM      6  C   UNL d   1      53.891  30.827  53.786  0.00  0.00     0.020 A 
ATOM      7  C   UNL d   1      52.559  30.549  52.852  0.00  0.00     0.021 A 
ATOM      8  C   UNL d   1      53.692  30.060  53.571  0.00  0.00     0.002 A 
ATOM      9  C   UNL d   1      53.023  29.916  53.102  0.00  0.00     0.002 A 
ENDROOT
BRANCH   1  10
ATOM     10  N   UNL d   1      52.695  33.445  53.243  0.00  0.00    -0.061 NA
BRANCH  10  11
ATOM     11  C   UNL d   1      51.971  33.720  52.971  0.00  0.00     0.100 A 
ATOM     12  C   UNL d   1      51.912  34.001  52.203  0.00  0.00     0.020 A 
ATOM     13  C   UNL d   1      51.190  34.280  51.919  0.00  0.00     0.002 A 
ATOM     14  C   UNL d   1      50.520  34.276  52.413  0.00  0.00     0.000 A 
ATOM     15  C   UNL d   1      50.587  33.992  53.186  0.00  0.00     0.002 A 
ATOM     16  C   UNL d   1      51.307  33.717  53.461  0.00  0.00     0.020 A 
ENDBRANCH  10  11
ENDBRANCH   1  10
BRANCH   2  17
ATOM     17  C   UNL d   1      54.068  32.659  54.095  0.00  0.00     0.082 C 
ATOM     18  C   UNL d   1      54.749  32.940  53.716  0.00  0.00     0.020 C 
ATOM     19  C   UNL d   1      53.980  32.769  54.906  0.00  0.00     0.020 C 
ENDBRANCH   2  17
TORSDOF 3
ENDMDL
MODEL 2
REMARK VINA RESULT:      -9.5      0.860      3.330
REMARK  3 active torsions:
REMARK  status: ('A' for Active; 'I' for Inactive)
REMARK    1  A    between atoms: N_6  and  C_1 
REMARK    2  A    between atoms: C_7  and  N_2 
REMARK    3  A    between atoms: C_8  and  N_6 
ROOT
ATOM      1  C   UNL d   1      53.488  32.315  53.652  0.00  0.00     0.735 A 
ATOM      2  N   UNL d   1      53.727  33.055  53.937  0.00  0.00    -0.139 N 
ATOM      3  N   UNL d   1      52.767  32.405  53.255  0.00  0.00    -0.059 NA
ATOM      4  C   UNL d   1      53.154  33.607  53.716  0.00  0.00     0.100 A 
ATOM      5  C   UNL d   1      52.562  33.200  53.294  0.00  0.00     0.116 A 
ATOM      6  C   UNL d   1      53.090  34.419  53.840  0.00  0.00     0.020 A 
ATOM      7  C   UNL d   1      51.912  33.621  53.004  0.00  0.00     0.021 A 
ATOM      8  C   UNL d   1      52.442  34.829  53.548  0.00  0.00     0.002 A 
ATOM      9  C   UNL d   1      51.847  34.432  53.127  0.00  0.00     0.002 A 
ENDROOT
BRANCH   1  10
ATOM     10  N   UNL d   1      53.897  31.605  53.746  0.00  0.00    -0.061 NA
BRANCH  10  11
ATOM     11  C   UNL d   1      53.519  30.887  53.616  0.00  0.00     0.100 A 
ATOM     12  C   UNL d   1      53.316  30.418  54.257  0.00  0.00     0.020 A 
ATOM     13  C   UNL d   1      52.937  29.696  54.138  0.00  0.00     0.002 A 
ATOM     14  C   UNL d   1      52.760  29.442  53.364  0.00  0.00     0.000 A 
ATOM     15  C   UNL d   1      52.968  29.920  52.723  0.00  0.00     0.002 A 
ATOM     16  C   UNL d   1      53.344  30.636  52.850  0.00  0.00     0.020 A 
ENDBRANCH  10  11
ENDBRANCH   1  10
BRANCH   2  17
ATOM     17  C   UNL d   1      54.414  33.211  54.363  0.00  0.00     0.082 C 
ATOM     18  C   UNL d   1      55.125  33.350  53.963  0.00  0.00     0.020 C 
ATOM     19  C   UNL d   1      54.400  33.230  55.185  0.00  0.00     0.020 C 
ENDBRANCH   2  17
TORSDOF 3
ENDMDL
MODEL 3
REMARK VINA RESULT:      -9.0      0.842      2.235
REMARK  3 active torsions:
REMARK  status: ('A' for Active; 'I' for Inactive)
REMARK    1  A    between atoms: N_6  and  C_1 
REMARK    2  A    between atoms: C_7  and  N_2 
REMARK    3  A    between atoms: C_8  and  N_6 
ROOT
ATOM      1  C   UNL d   1      52.832  33.057  53.634  0.00  0.00     0.735 A 
ATOM      2  N   UNL d   1      53.460  32.591  53.903  0.00  0.00    -0.139 N 
ATOM      3  N   UNL d   1      52.888  33.805  53.986  0.00  0.00    -0.059 NA
ATOM      4  C   UNL d   1      53.908  33.048  54.424  0.00  0.00     0.100 A 
ATOM      5  C   UNL d   1      53.550  33.799  54.472  0.00  0.00     0.116 A 
ATOM      6  C   UNL d   1      54.589  32.887  54.859  0.00  0.00     0.020 A 
ATOM      7  C   UNL d   1      53.886  34.376  54.960  0.00  0.00     0.021 A 
ATOM      8  C   UNL d   1      54.916  33.465  55.341  0.00  0.00     0.002 A 
ATOM      9  C   UNL d   1      54.566  34.215  55.395  0.00  0.00     0.002 A 
ENDROOT
BRANCH   1  10
ATOM     10  N   UNL d   1      52.246  32.821  53.103  0.00  0.00    -0.061 NA
BRANCH  10  11
ATOM     11  C   UNL d   1      51.638  33.334  52.899  0.00  0.00     0.100 A 
ATOM     12  C   UNL d   1      51.724  33.816  52.241  0.00  0.00     0.020 A 
ATOM     13  C   UNL d   1      51.120  34.335  52.027  0.00  0.00     0.002 A 
ATOM     14  C   UNL d   1      50.422  34.369  52.480  0.00  0.00     0.000 A 
ATOM     15  C   UNL d   1      50.342  33.880  53.141  0.00  0.00     0.002 A 
ATOM     16  C   UNL d   1      50.946  33.368  53.347  0.00  0.00     0.020 A 
ENDBRANCH  10  11
ENDBRANCH   1  10
BRANCH   2  17
ATOM     17  C   UNL d   1      53.611  31.811  53.689  0.00  0.00     0.082 C 
ATOM     18  C   UNL d   1      54.089  31.647  53.033  0.00  0.00     0.020 C 
ATOM     19  C   UNL d   1      53.290  31.189  54.122  0.00  0.00     0.020 C 
ENDBRANCH   2  17
TORSDOF 3
ENDMDL
MODEL 4
REMARK VINA RESULT:      -8.9      0.973      3.587
REMARK  3 active torsions:
REMARK  status: ('A' for Active; 'I' for Inactive)
REMARK    1  A    between atoms: N_6  and  C_1 
REMARK    2  A    between atoms: C_7  and  N_2 
REMARK    3  A    between atoms: C_8  and  N_6 
ROOT
ATOM      1  C   UNL d   1      52.721  32.698  53.282  0.00  0.00     0.735 A 
ATOM      2  N   UNL d   1      52.384  33.454  53.278  0.00  0.00    -0.139 N 
ATOM      3  N   UNL d   1      53.326  32.682  53.848  0.00  0.00    -0.059 NA
ATOM      4  C   UNL d   1      52.780  33.910  53.841  0.00  0.00     0.100 A 
ATOM      5  C   UNL d   1      53.362  33.428  54.191  0.00  0.00     0.116 A 
ATOM      6  C   UNL d   1      52.691  34.693  54.083  0.00  0.00     0.020 A 
ATOM      7  C   UNL d   1      53.847  33.744  54.781  0.00  0.00     0.021 A 
ATOM      8  C   UNL d   1      53.177  35.000  54.669  0.00  0.00     0.002 A 
ATOM      9  C   UNL d   1      53.759  34.527  55.023  0.00  0.00     0.002 A 
ENDROOT
BRANCH   1  10
ATOM     10  N   UNL d   1      52.495  32.064  52.805  0.00  0.00    -0.061 NA
BRANCH  10  11
ATOM     11  C   UNL d   1      52.710  31.297  53.004  0.00  0.00     0.100 A 
ATOM     12  C   UNL d   1      52.152  30.799  53.341  0.00  0.00     0.020 A 
ATOM     13  C   UNL d   1      52.356  30.027  53.544  0.00  0.00     0.002 A 
ATOM     14  C   UNL d   1      53.131  29.752  53.407  0.00  0.00     0.000 A 
ATOM     15  C   UNL d   1      53.687  30.259  53.068  0.00  0.00     0.002 A 
ATOM     16  C   UNL d   1      53.477  31.025  52.868  0.00  0.00     0.020 A 
ENDBRANCH  10  11
ENDBRANCH   1  10
BRANCH   2  17
ATOM     17  C   UNL d   1      51.765  33.705  52.797  0.00  0.00     0.082 C 
ATOM     18  C   UNL d   1      50.982  33.624  53.056  0.00  0.00     0.020 C 
ATOM     19  C   UNL d   1      51.916  34.038  52.060  0.00  0.00     0.020 C 
ENDBRANCH   2  17
TORSDOF 3
ENDMDL
MODEL 5
REMARK VINA RESULT:      -8.5      0.914      2.942
REMARK  3 active torsions:
REMARK  status: ('A' for Active; 'I' for Inactive)
REMARK    1  A    between atoms: N_6  and  C_1 
REMARK    2  A    between atoms: C_7  and  N_2 
REMARK    3  A    between atoms: C_8  and  N_6 
ROOT
ATOM      1  C   UNL d   1      53.377  32.569  53.785  0.00  0.00     0.735 A 
ATOM      2  N   UNL d   1      52.732  32.318  53.331  0.00  0.00    -0.139 N 
ATOM      3  N   UNL d   1      53.845  31.910  53.968  0.00  0.00    -0.059 NA
ATOM      4  C   UNL d   1      52.799  31.501  53.230  0.00  0.00     0.100 A 
ATOM      5  C   UNL d   1      53.489  31.253  53.625  0.00  0.00     0.116 A 
ATOM      6  C   UNL d   1      52.330  30.951  52.834  0.00  0.00     0.020 A 
ATOM      7  C   UNL d   1      53.695  30.453  53.616  0.00  0.00     0.021 A 
ATOM      8  C   UNL d   1      52.540  30.158  52.829  0.00  0.00     0.002 A 
ATOM      9  C   UNL d   1      53.226  29.903  53.221  0.00  0.00     0.002 A 
ENDROOT
BRANCH   1  10
ATOM     10  N   UNL d   1      53.531  33.345  54.020  0.00  0.00    -0.061 NA
BRANCH  10  11
ATOM     11  C   UNL d   1      54.182  33.516  54.490  0.00  0.00     0.100 A 
ATOM     12  C   UNL d   1      54.102  33.504  55.306  0.00  0.00     0.020 A 
ATOM     13  C   UNL d   1      54.749  33.675  55.788  0.00  0.00     0.002 A 
ATOM     14  C   UNL d   1      55.485  33.859  55.445  0.00  0.00     0.000 A 
ATOM     15  C   UNL d   1      55.558  33.868  54.622  0.00  0.00     0.002 A 
ATOM     16  C   UNL d   1      54.912  33.698  54.150  0.00  0.00     0.020 A 
ENDBRANCH  10  11
ENDBRANCH   1  10
BRANCH   2  17
ATOM     17  C   UNL d   1      52.133  32.797  53.034  0.00  0.00     0.082 C 
ATOM     18  C   UNL d   1      51.420  32.872  53.448  0.00  0.00     0.020 C 
ATOM     19  C   UNL d   1      52.235  33.204  52.326  0.00  0.00     0.020 C 
ENDBRANCH   2  17
TORSDOF 3
ENDMDL
MODEL 6
REMARK VINA RESULT:      -8.5      0.946      3.507
REMARK  3 active torsions:
REMARK  status: ('A' for Active; 'I' for Inactive)
REMARK    1  A    between atoms: N_6  and  C_1 
REMARK    2  A    between atoms: C_7  and  N_2 
REMARK    3  A    between atoms: C_8  and  N_6 
ROOT
ATOM      1  C   UNL d   1      53.140  32.866  53.626  0.00  0.00     0.735 A 
ATOM      2  N   UNL d   1      52.539  32.477  53.210  0.00  0.00    -0.139 N 
ATOM      3  N   UNL d   1      52.956  33.673  53.663  0.00  0.00    -0.059 NA
ATOM      4  C   UNL d   1      51.981  33.043  52.987  0.00  0.00     0.100 A 
ATOM      5  C   UNL d   1      52.243  33.781  53.269  0.00  0.00     0.116 A 
ATOM      6  C   UNL d   1      51.273  32.988  52.568  0.00  0.00     0.020 A 
ATOM      7  C   UNL d   1      51.786  34.455  53.124  0.00  0.00     0.021 A 
ATOM      8  C   UNL d   1      50.825  33.661  52.428  0.00  0.00     0.002 A 
ATOM      9  C   UNL d   1      51.079  34.401  52.706  0.00  0.00     0.002 A 
ENDROOT
BRANCH   1  10
ATOM     10  N   UNL d   1      53.810  32.513  53.952  0.00  0.00    -0.061 NA
BRANCH  10  11
ATOM     11  C   UNL d   1      54.320  32.947  54.427  0.00  0.00     0.100 A 
ATOM     12  C   UNL d   1      54.963  33.324  54.085  0.00  0.00     0.020 A 
ATOM     13  C   UNL d   1      55.482  33.763  54.552  0.00  0.00     0.002 A 
ATOM     14  C   UNL d   1      55.353  33.823  55.373  0.00  0.00     0.000 A 
ATOM     15  C   UNL d   1      54.703  33.440  55.710  0.00  0.00     0.002 A 
ATOM     16  C   UNL d   1      54.192  33.006  55.240  0.00  0.00     0.020 A 
ENDBRANCH  10  11
ENDBRANCH   1  10
BRANCH   2  17
ATOM     17  C   UNL d   1      52.506  31.671  53.048  0.00  0.00     0.082 C 
ATOM     18  C   UNL d   1      52.023  31.178  53.506  0.00  0.00     0.020 C 
ATOM     19  C   UNL d   1      52.949  31.349  52.434  0.00  0.00     0.020 C 
ENDBRANCH   2  17
TORSDOF 3
ENDMDL
