MODEL 1
REMARK VINA RESULT:      -8.7      0.000      0.000
REMARK  3 active torsions:
REMARK  status: ('A' for Active; 'I' for Inactive)
REMARK    1  A    between atoms: C_2  and  N_1 
REMARK    2  A    between atoms: C_3  and  N_1 
REMARK    3  A    between atoms: C_7  and  C_3 
ROOT
ATOM      1  N   UNL d   1      53.676  31.971  53.796  0.00  0.00    -0.184 N 
ATOM      2  O   UNL d   1      53.993  32.452  53.201  0.00  0.00    -0.080 OA
ENDROOT
BRANCH   1   3
ATOM      3  C   UNL d   1      53.414  31.211  53.609  0.00  0.00     0.090 A 
ATOM      4  C   UNL d   1      52.815  31.091  53.044  0.00  0.00     0.018 A 
ATOM      5  C   UNL d   1      52.474  31.733  52.663  0.00  0.00     0.002 C 
ATOM      6  C   UNL d   1      52.554  30.331  52.856  0.00  0.00     0.002 A 
ATOM      7  C   UNL d   1      52.889  29.656  53.235  0.00  0.00     0.000 A 
ATOM      8  C   UNL d   1      53.496  29.799  53.805  0.00  0.00     0.002 A 
ATOM      9  C   UNL d   1      53.748  30.565  53.983  0.00  0.00     0.020 A 
ENDBRANCH   1   3
BRANCH   1  10
ATOM     10  C   UNL d   1      53.624  32.251  54.563  0.00  0.00     0.108 C 
BRANCH  10  11
ATOM     11  C   UNL d   1      53.926  32.998  54.756  0.00  0.00     0.023 A 
ATOM     12  C   UNL d   1      54.728  33.097  54.955  0.00  0.00     0.022 A 
ATOM     13  C   UNL d   1      55.035  33.831  55.147  0.00  0.00     0.099 A 
ATOM     14  N   UNL d   1      54.538  34.491  55.144  0.00  0.00    -0.242 NA
ATOM     15  C   UNL d   1      53.727  34.391  54.943  0.00  0.00     0.099 A 
ATOM     16  C   UNL d   1      53.431  33.650  54.752  0.00  0.00     0.022 A 
ENDBRANCH  10  11
ENDBRANCH   1  10
TORSDOF 3
ENDMDL
MODEL 2
REMARK VINA RESULT:      -8.3      2.135      3.574
REMARK  3 active torsions:
REMARK  status: ('A' for Active; 'I' for Inactive)
REMARK    1  A    between atoms: C_2  and  N_1 
REMARK    2  A    between atoms: C_3  and  N_1 
REMARK    3  A    between atoms: C_7  and  C_3 
ROOT
ATOM      1  N   UNL d   1      52.816  33.492  53.611  0.00  0.00    -0.184 N 
ATOM      2  O   UNL d   1      52.456  32.773  53.409  0.00  0.00    -0.080 OA
ENDROOT
BRANCH   1   3
ATOM      3  C   UNL d   1      53.481  33.491  54.099  0.00  0.00     0.090 A 
ATOM      4  C   UNL d   1      54.122  32.982  53.950  0.00  0.00     0.018 A 
ATOM      5  C   UNL d   1      54.100  32.469  53.310  0.00  0.00     0.002 C 
ATOM      6  C   UNL d   1      54.787  32.981  54.438  0.00  0.00     0.002 A 
ATOM      7  C   UNL d   1      54.833  33.499  55.102  0.00  0.00     0.000 A 
ATOM      8  C   UNL d   1      54.172  34.009  55.236  0.00  0.00     0.002 A 
ATOM      9  C   UNL d   1      53.513  33.998  54.740  0.00  0.00     0.020 A 
ENDBRANCH   1   3
BRANCH   1  10
ATOM     10  C   UNL d   1      52.510  34.194  53.326  0.00  0.00     0.108 C 
BRANCH  10  11
ATOM     11  C   UNL d   1      51.777  34.204  52.937  0.00  0.00     0.023 A 
ATOM     12  C   UNL d   1      51.065  34.218  53.368  0.00  0.00     0.022 A 
ATOM     13  C   UNL d   1      50.338  34.228  52.992  0.00  0.00     0.099 A 
ATOM     14  N   UNL d   1      50.308  34.224  52.167  0.00  0.00    -0.242 NA
ATOM     15  C   UNL d   1      51.028  34.211  51.732  0.00  0.00     0.099 A 
ATOM     16  C   UNL d   1      51.751  34.201  52.119  0.00  0.00     0.022 A 
ENDBRANCH  10  11
ENDBRANCH   1  10
TORSDOF 3
ENDMDL
MODEL 3
REMARK VINA RESULT:      -8.1      1.120      3.667
REMARK  3 active torsions:
REMARK  status: ('A' for Active; 'I' for Inactive)
REMARK    1  A    between atoms: C_2  and  N_1 
REMARK    2  A    between atoms: C_3  and  N_1 
REMARK    3  A    between atoms: C_7  and  C_3 
ROOT
ATOM      1  N   UNL d   1      53.360  32.729  54.054  0.00  0.00    -0.184 N 
ATOM      2  O   UNL d   1      53.403  32.324  54.776  0.00  0.00    -0.080 OA
ENDROOT
BRANCH   1   3
ATOM      3  C   UNL d   1      53.226  33.543  54.052  0.00  0.00     0.090 A 
ATOM      4  C   UNL d   1      53.683  34.054  54.524  0.00  0.00     0.018 A 
ATOM      5  C   UNL d   1      54.277  33.751  55.003  0.00  0.00     0.002 C 
ATOM      6  C   UNL d   1      53.549  34.868  54.522  0.00  0.00     0.002 A 
ATOM      7  C   UNL d   1      52.945  35.202  54.039  0.00  0.00     0.000 A 
ATOM      8  C   UNL d   1      52.492  34.667  53.566  0.00  0.00     0.002 A 
ATOM      9  C   UNL d   1      52.637  33.855  53.579  0.00  0.00     0.020 A 
ENDBRANCH   1   3
BRANCH   1  10
ATOM     10  C   UNL d   1      53.449  32.320  53.352  0.00  0.00     0.108 C 
BRANCH  10  11
ATOM     11  C   UNL d   1      53.321  31.501  53.325  0.00  0.00     0.023 A 
ATOM     12  C   UNL d   1      53.892  30.970  53.614  0.00  0.00     0.022 A 
ATOM     13  C   UNL d   1      53.774  30.161  53.592  0.00  0.00     0.099 A 
ATOM     14  N   UNL d   1      53.072  29.862  53.275  0.00  0.00    -0.242 NA
ATOM     15  C   UNL d   1      52.495  30.400  52.982  0.00  0.00     0.099 A 
ATOM     16  C   UNL d   1      52.624  31.209  53.010  0.00  0.00     0.022 A 
ENDBRANCH  10  11
ENDBRANCH   1  10
TORSDOF 3
ENDMDL
MODEL 4
REMARK VINA RESULT:      -7.8      1.796      2.461
REMARK  3 active torsions:
REMARK  status: ('A' for Active; 'I' for Inactive)
REMARK    1  A    between atoms: C_2  and  N_1 
REMARK    2  A    between atoms: C_3  and  N_1 
REMARK    3  A    between atoms: C_7  and  C_3 
ROOT
ATOM      1  N   UNL d   1      52.679  32.356  53.062  0.00  0.00    -0.184 N 
ATOM      2  O   UNL d   1      52.943  32.757  52.386  0.00  0.00    -0.080 OA
ENDROOT
BRANCH   1   3
ATOM      3  C   UNL d   1      52.918  31.577  53.192  0.00  0.00     0.090 A 
ATOM      4  C   UNL d   1      53.649  31.407  53.550  0.00  0.00     0.018 A 
ATOM      5  C   UNL d   1      54.147  32.017  53.782  0.00  0.00     0.002 C 
ATOM      6  C   UNL d   1      53.888  30.628  53.680  0.00  0.00     0.002 A 
ATOM      7  C   UNL d   1      53.394  29.984  53.452  0.00  0.00     0.000 A 
ATOM      8  C   UNL d   1      52.655  30.178  53.089  0.00  0.00     0.002 A 
ATOM      9  C   UNL d   1      52.430  30.962  52.965  0.00  0.00     0.020 A 
ENDBRANCH   1   3
BRANCH   1  10
ATOM     10  C   UNL d   1      52.186  32.734  53.593  0.00  0.00     0.108 C 
BRANCH  10  11
ATOM     11  C   UNL d   1      51.788  33.428  53.374  0.00  0.00     0.023 A 
ATOM     12  C   UNL d   1      50.999  33.404  53.111  0.00  0.00     0.022 A 
ATOM     13  C   UNL d   1      50.600  34.083  52.893  0.00  0.00     0.099 A 
ATOM     14  N   UNL d   1      50.986  34.812  52.934  0.00  0.00    -0.242 NA
ATOM     15  C   UNL d   1      51.785  34.836  53.200  0.00  0.00     0.099 A 
ATOM     16  C   UNL d   1      52.175  34.148  53.416  0.00  0.00     0.022 A 
ENDBRANCH  10  11
ENDBRANCH   1  10
TORSDOF 3
ENDMDL
