MODEL 1
REMARK VINA RESULT:      15.5      0.000      0.000
REMARK  3 active torsions:
REMARK  status: ('A' for Active; 'I' for Inactive)
REMARK    1  A    between atoms: S_3  and  C_1 
REMARK    2  A    between atoms: C_7  and  N_2 
REMARK    3  A    between atoms: C_13  and  C_7 
ROOT
ATOM      1  C   UNL d   1      44.403 -13.519  43.835  0.00  0.00     0.255 A 
ATOM      2  N   UNL d   1      45.065 -13.420  44.322  0.00  0.00    -0.278 N 
ATOM      3  N   UNL d   1      44.287 -14.299  43.674  0.00  0.00    -0.215 NA
ATOM      4  C   UNL d   1      45.380 -14.178  44.473  0.00  0.00     0.084 A 
ATOM      5  C   UNL d   1      44.900 -14.720  44.074  0.00  0.00     0.100 A 
ATOM      6  C   UNL d   1      46.025 -14.448  44.911  0.00  0.00     0.019 A 
ATOM      7  C   UNL d   1      45.068 -15.529  44.115  0.00  0.00     0.021 A 
ATOM      8  C   UNL d   1      46.195 -15.254  44.954  0.00  0.00     0.002 A 
ATOM      9  C   UNL d   1      45.715 -15.796  44.555  0.00  0.00     0.002 A 
ENDROOT
BRANCH   1  10
ATOM     10  S   UNL d   1      43.932 -12.898  43.558  0.00  0.00     0.174 S 
ATOM     11  O   UNL d   1      43.390 -13.037  44.167  0.00  0.00    -0.589 OA
ATOM     12  O   UNL d   1      43.462 -12.278  43.281  0.00  0.00    -0.589 OA
ATOM     13  O   UNL d   1      44.473 -12.759  42.951  0.00  0.00    -0.589 OA
ENDBRANCH   1  10
BRANCH   2  14
ATOM     14  C   UNL d   1      45.374 -12.724  44.613  0.00  0.00     0.082 C 
BRANCH  14  15
ATOM     15  C   UNL d   1      46.153 -12.558  44.427  0.00  0.00     0.018 C 
ATOM     16  C   UNL d   1      46.505 -12.863  43.746  0.00  0.00     0.002 C 
ATOM     17  C   UNL d   1      46.618 -12.082  44.906  0.00  0.00     0.002 C 
ENDBRANCH  14  15
ENDBRANCH   2  14
TORSDOF 3
ENDMDL
MODEL 2
REMARK VINA RESULT:      17.0      7.070      7.880
REMARK  3 active torsions:
REMARK  status: ('A' for Active; 'I' for Inactive)
REMARK    1  A    between atoms: S_3  and  C_1 
REMARK    2  A    between atoms: C_7  and  N_2 
REMARK    3  A    between atoms: C_13  and  C_7 
ROOT
ATOM      1  C   UNL d   1      45.094 -14.959  36.844  0.00  0.00     0.255 A 
ATOM      2  N   UNL d   1      44.834 -15.736  36.967  0.00  0.00    -0.278 N 
ATOM      3  N   UNL d   1      44.484 -14.497  36.592  0.00  0.00    -0.215 NA
ATOM      4  C   UNL d   1      44.021 -15.761  36.782  0.00  0.00     0.084 A 
ATOM      5  C   UNL d   1      43.805 -14.997  36.551  0.00  0.00     0.100 A 
ATOM      6  C   UNL d   1      43.454 -16.361  36.791  0.00  0.00     0.019 A 
ATOM      7  C   UNL d   1      43.024 -14.838  36.330  0.00  0.00     0.021 A 
ATOM      8  C   UNL d   1      42.675 -16.205  36.572  0.00  0.00     0.002 A 
ATOM      9  C   UNL d   1      42.459 -15.441  36.341  0.00  0.00     0.002 A 
ENDROOT
BRANCH   1  10
ATOM     10  S   UNL d   1      45.870 -14.703  36.965  0.00  0.00     0.174 S 
ATOM     11  O   UNL d   1      46.129 -15.195  36.353  0.00  0.00    -0.589 OA
ATOM     12  O   UNL d   1      46.646 -14.447  37.087  0.00  0.00    -0.589 OA
ATOM     13  O   UNL d   1      45.613 -14.212  37.576  0.00  0.00    -0.589 OA
ENDBRANCH   1  10
BRANCH   2  14
ATOM     14  C   UNL d   1      45.271 -16.376  37.221  0.00  0.00     0.082 C 
BRANCH  14  15
ATOM     15  C   UNL d   1      44.923 -16.866  37.775  0.00  0.00     0.018 C 
ATOM     16  C   UNL d   1      44.606 -17.597  37.563  0.00  0.00     0.002 C 
ATOM     17  C   UNL d   1      44.873 -16.654  38.566  0.00  0.00     0.002 C 
ENDBRANCH  14  15
ENDBRANCH   2  14
TORSDOF 3
ENDMDL
MODEL 3
REMARK VINA RESULT:      17.1      1.331      2.089
REMARK  3 active torsions:
REMARK  status: ('A' for Active; 'I' for Inactive)
REMARK    1  A    between atoms: S_3  and  C_1 
REMARK    2  A    between atoms: C_7  and  N_2 
REMARK    3  A    between atoms: C_13  and  C_7 
ROOT
ATOM      1  C   UNL d   1      45.199 -13.120  43.809  0.00  0.00     0.255 A 
ATOM      2  N   UNL d   1      45.365 -13.782  44.277  0.00  0.00    -0.278 N 
ATOM      3  N   UNL d   1      44.406 -13.059  43.681  0.00  0.00    -0.215 NA
ATOM      4  C   UNL d   1      44.638 -14.155  44.451  0.00  0.00     0.084 A 
ATOM      5  C   UNL d   1      44.047 -13.708  44.083  0.00  0.00     0.100 A 
ATOM      6  C   UNL d   1      44.434 -14.826  44.885  0.00  0.00     0.019 A 
ATOM      7  C   UNL d   1      43.255 -13.936  44.152  0.00  0.00     0.021 A 
ATOM      8  C   UNL d   1      43.645 -15.056  44.955  0.00  0.00     0.002 A 
ATOM      9  C   UNL d   1      43.053 -14.609  44.587  0.00  0.00     0.002 A 
ENDROOT
BRANCH   1  10
ATOM     10  S   UNL d   1      45.773 -12.600  43.518  0.00  0.00     0.174 S 
ATOM     11  O   UNL d   1      46.006 -12.424  44.291  0.00  0.00    -0.589 OA
ATOM     12  O   UNL d   1      46.345 -12.081  43.227  0.00  0.00    -0.589 OA
ATOM     13  O   UNL d   1      45.540 -12.776  42.746  0.00  0.00    -0.589 OA
ENDBRANCH   1  10
BRANCH   2  14
ATOM     14  C   UNL d   1      46.092 -14.045  44.534  0.00  0.00     0.082 C 
BRANCH  14  15
ATOM     15  C   UNL d   1      46.303 -14.809  44.333  0.00  0.00     0.018 C 
ATOM     16  C   UNL d   1      46.242 -15.427  44.875  0.00  0.00     0.002 C 
ATOM     17  C   UNL d   1      46.585 -14.996  43.586  0.00  0.00     0.002 C 
ENDBRANCH  14  15
ENDBRANCH   2  14
TORSDOF 3
ENDMDL
MODEL 4
REMARK VINA RESULT:      17.5      1.679      2.545
REMARK  3 active torsions:
REMARK  status: ('A' for Active; 'I' for Inactive)
REMARK    1  A    between atoms: S_3  and  C_1 
REMARK    2  A    between atoms: C_7  and  N_2 
REMARK    3  A    between atoms: C_13  and  C_7 
ROOT
ATOM      1  C   UNL d   1      44.958 -14.530  44.255  0.00  0.00     0.255 A 
ATOM      2  N   UNL d   1      45.321 -13.787  44.216  0.00  0.00    -0.278 N 
ATOM      3  N   UNL d   1      44.227 -14.503  43.916  0.00  0.00    -0.215 NA
ATOM      4  C   UNL d   1      44.790 -13.268  43.834  0.00  0.00     0.084 A 
ATOM      5  C   UNL d   1      44.116 -13.710  43.649  0.00  0.00     0.100 A 
ATOM      6  C   UNL d   1      44.824 -12.469  43.631  0.00  0.00     0.019 A 
ATOM      7  C   UNL d   1      43.479 -13.349  43.262  0.00  0.00     0.021 A 
ATOM      8  C   UNL d   1      44.191 -12.107  43.245  0.00  0.00     0.002 A 
ATOM      9  C   UNL d   1      43.517 -12.549  43.060  0.00  0.00     0.002 A 
ENDROOT
BRANCH   1  10
ATOM     10  S   UNL d   1      45.303 -15.200  44.594  0.00  0.00     0.174 S 
ATOM     11  O   UNL d   1      46.030 -14.997  44.256  0.00  0.00    -0.589 OA
ATOM     12  O   UNL d   1      45.648 -15.869  44.934  0.00  0.00    -0.589 OA
ATOM     13  O   UNL d   1      44.578 -15.403  44.932  0.00  0.00    -0.589 OA
ENDBRANCH   1  10
BRANCH   2  14
ATOM     14  C   UNL d   1      46.057 -13.574  44.492  0.00  0.00     0.082 C 
BRANCH  14  15
ATOM     15  C   UNL d   1      46.299 -12.806  44.350  0.00  0.00     0.018 C 
ATOM     16  C   UNL d   1      46.202 -12.215  44.917  0.00  0.00     0.002 C 
ATOM     17  C   UNL d   1      46.647 -12.587  43.641  0.00  0.00     0.002 C 
ENDBRANCH  14  15
ENDBRANCH   2  14
TORSDOF 3
ENDMDL
MODEL 5
REMARK VINA RESULT:      18.0      7.023      7.630
REMARK  3 active torsions:
REMARK  status: ('A' for Active; 'I' for Inactive)
REMARK    1  A    between atoms: S_3  and  C_1 
REMARK    2  A    between atoms: C_7  and  N_2 
REMARK    3  A    between atoms: C_13  and  C_7 
ROOT
ATOM      1  C   UNL d   1      44.476 -15.936  36.721  0.00  0.00     0.255 A 
ATOM      2  N   UNL d   1      44.436 -15.397  37.348  0.00  0.00    -0.278 N 
ATOM      3  N   UNL d   1      45.177 -15.863  36.332  0.00  0.00    -0.215 NA
ATOM      4  C   UNL d   1      45.149 -14.964  37.351  0.00  0.00     0.084 A 
ATOM      5  C   UNL d   1      45.606 -15.251  36.725  0.00  0.00     0.100 A 
ATOM      6  C   UNL d   1      45.443 -14.357  37.828  0.00  0.00     0.019 A 
ATOM      7  C   UNL d   1      46.355 -14.930  36.579  0.00  0.00     0.021 A 
ATOM      8  C   UNL d   1      46.189 -14.036  37.685  0.00  0.00     0.002 A 
ATOM      9  C   UNL d   1      46.646 -14.323  37.059  0.00  0.00     0.002 A 
ENDROOT
BRANCH   1  10
ATOM     10  S   UNL d   1      43.876 -16.472  36.528  0.00  0.00     0.174 S 
ATOM     11  O   UNL d   1      43.372 -15.842  36.345  0.00  0.00    -0.589 OA
ATOM     12  O   UNL d   1      43.276 -17.006  36.336  0.00  0.00    -0.589 OA
ATOM     13  O   UNL d   1      44.378 -17.100  36.711  0.00  0.00    -0.589 OA
ENDBRANCH   1  10
BRANCH   2  14
ATOM     14  C   UNL d   1      43.826 -15.289  37.877  0.00  0.00     0.082 C 
BRANCH  14  15
ATOM     15  C   UNL d   1      43.329 -14.652  37.746  0.00  0.00     0.018 C 
ATOM     16  C   UNL d   1      43.504 -13.904  38.045  0.00  0.00     0.002 C 
ATOM     17  C   UNL d   1      42.638 -14.727  37.312  0.00  0.00     0.002 C 
ENDBRANCH  14  15
ENDBRANCH   2  14
TORSDOF 3
ENDMDL
