MODEL 1
REMARK VINA RESULT:      -3.9      0.000      0.000
REMARK  8 active torsions:
REMARK  status: ('A' for Active; 'I' for Inactive)
REMARK    1  A    between atoms: C_4  and  C_1 
REMARK    2  A    between atoms: C_2  and  C_15 
REMARK    3  A    between atoms: C_3  and  C_2 
REMARK    4  A    between atoms: C_16  and  C_4 
REMARK    5  A    between atoms: O_14  and  C_9 
REMARK    6  A    between atoms: S_13  and  C_16 
REMARK    7  A    between atoms: C_15  and  S_13 
REMARK    8  A    between atoms: C_17  and  O_14 
ROOT
ATOM      1  C   UNL d   1      57.050  -0.029  31.660  0.00  0.00     0.040 A 
ATOM      2  C   UNL d   1      56.645   0.670  31.818  0.00  0.00     0.005 A 
ATOM      3  C   UNL d   1      56.841  -0.727  32.058  0.00  0.00     0.005 A 
ATOM      4  C   UNL d   1      55.823  -0.018  32.767  0.00  0.00     0.100 A 
ATOM      5  C   UNL d   1      56.032   0.680  32.369  0.00  0.00     0.025 A 
ATOM      6  C   UNL d   1      56.229  -0.717  32.609  0.00  0.00     0.025 A 
ENDROOT
BRANCH   1   7
ATOM      7  C   UNL d   1      57.666  -0.025  31.101  0.00  0.00     0.202 C 
ATOM      8  O   UNL d   1      58.200   0.600  31.066  0.00  0.00    -0.286 OA
BRANCH   7   9
ATOM      9  C   UNL d   1      57.742  -0.665  30.568  0.00  0.00     0.077 C 
BRANCH   9  10
ATOM     10  S   UNL d   1      58.348  -0.649  29.981  0.00  0.00    -0.082 SA
BRANCH  10  11
ATOM     11  C   UNL d   1      58.545  -1.339  29.577  0.00  0.00     0.042 C 
BRANCH  11  12
ATOM     12  C   UNL d   1      59.071  -1.307  28.945  0.00  0.00     0.077 C 
BRANCH  12  13
ATOM     13  C   UNL d   1      59.396  -2.003  28.640  0.00  0.00     0.211 C 
ATOM     14  O   UNL d   1      58.901  -2.639  28.458  0.00  0.00    -0.644 OA
ATOM     15  O   UNL d   1      60.208  -2.062  28.516  0.00  0.00    -0.644 OA
ENDBRANCH  12  13
ENDBRANCH  11  12
ENDBRANCH  10  11
ENDBRANCH   9  10
ENDBRANCH   7   9
ENDBRANCH   1   7
BRANCH   4  16
ATOM     16  O   UNL d   1      55.196  -0.013  33.334  0.00  0.00    -0.305 OA
BRANCH  16  17
ATOM     17  C   UNL d   1      55.095   0.641  33.826  0.00  0.00     0.123 C 
ATOM     18  C   UNL d   1      54.485   0.646  34.382  0.00  0.00     0.029 C 
ENDBRANCH  16  17
ENDBRANCH   4  16
TORSDOF 8
ENDMDL
MODEL 2
REMARK VINA RESULT:      -3.5      1.455      1.609
REMARK  8 active torsions:
REMARK  status: ('A' for Active; 'I' for Inactive)
REMARK    1  A    between atoms: C_4  and  C_1 
REMARK    2  A    between atoms: C_2  and  C_15 
REMARK    3  A    between atoms: C_3  and  C_2 
REMARK    4  A    between atoms: C_16  and  C_4 
REMARK    5  A    between atoms: O_14  and  C_9 
REMARK    6  A    between atoms: S_13  and  C_16 
REMARK    7  A    between atoms: C_15  and  S_13 
REMARK    8  A    between atoms: C_17  and  O_14 
ROOT
ATOM      1  C   UNL d   1      56.545  -0.327  32.395  0.00  0.00     0.040 A 
ATOM      2  C   UNL d   1      56.772   0.373  32.765  0.00  0.00     0.005 A 
ATOM      3  C   UNL d   1      55.860  -0.723  32.645  0.00  0.00     0.005 A 
ATOM      4  C   UNL d   1      55.637   0.285  33.633  0.00  0.00     0.100 A 
ATOM      5  C   UNL d   1      56.322   0.681  33.383  0.00  0.00     0.025 A 
ATOM      6  C   UNL d   1      55.411  -0.415  33.262  0.00  0.00     0.025 A 
ENDROOT
BRANCH   1   7
ATOM      7  C   UNL d   1      57.009  -0.626  31.773  0.00  0.00     0.202 C 
ATOM      8  O   UNL d   1      57.034  -1.434  31.615  0.00  0.00    -0.286 OA
BRANCH   7   9
ATOM      9  C   UNL d   1      57.456  -0.099  31.302  0.00  0.00     0.077 C 
BRANCH   9  10
ATOM     10  S   UNL d   1      57.696  -0.332  30.528  0.00  0.00    -0.082 SA
BRANCH  10  11
ATOM     11  C   UNL d   1      58.225   0.136  30.105  0.00  0.00     0.042 C 
BRANCH  11  12
ATOM     12  C   UNL d   1      58.798  -0.219  29.632  0.00  0.00     0.077 C 
BRANCH  12  13
ATOM     13  C   UNL d   1      59.304   0.246  29.173  0.00  0.00     0.211 C 
ATOM     14  O   UNL d   1      59.033   0.561  28.459  0.00  0.00    -0.644 OA
ATOM     15  O   UNL d   1      60.074   0.394  29.426  0.00  0.00    -0.644 OA
ENDBRANCH  12  13
ENDBRANCH  11  12
ENDBRANCH  10  11
ENDBRANCH   9  10
ENDBRANCH   7   9
ENDBRANCH   1   7
BRANCH   4  16
ATOM     16  O   UNL d   1      55.172   0.597  34.266  0.00  0.00    -0.305 OA
BRANCH  16  17
ATOM     17  C   UNL d   1      55.263   0.293  35.028  0.00  0.00     0.123 C 
ATOM     18  C   UNL d   1      54.919   0.682  35.669  0.00  0.00     0.029 C 
ENDBRANCH  16  17
ENDBRANCH   4  16
TORSDOF 8
ENDMDL
MODEL 3
REMARK VINA RESULT:      -3.3      1.108      5.184
REMARK  8 active torsions:
REMARK  status: ('A' for Active; 'I' for Inactive)
REMARK    1  A    between atoms: C_4  and  C_1 
REMARK    2  A    between atoms: C_2  and  C_15 
REMARK    3  A    between atoms: C_3  and  C_2 
REMARK    4  A    between atoms: C_16  and  C_4 
REMARK    5  A    between atoms: O_14  and  C_9 
REMARK    6  A    between atoms: S_13  and  C_16 
REMARK    7  A    between atoms: C_15  and  S_13 
REMARK    8  A    between atoms: C_17  and  O_14 
ROOT
ATOM      1  C   UNL d   1      58.452  -0.250  29.912  0.00  0.00     0.040 A 
ATOM      2  C   UNL d   1      58.307  -0.935  29.480  0.00  0.00     0.005 A 
ATOM      3  C   UNL d   1      59.222   0.060  29.949  0.00  0.00     0.005 A 
ATOM      4  C   UNL d   1      59.691  -1.007  29.122  0.00  0.00     0.100 A 
ATOM      5  C   UNL d   1      58.922  -1.316  29.085  0.00  0.00     0.025 A 
ATOM      6  C   UNL d   1      59.836  -0.320  29.555  0.00  0.00     0.025 A 
ENDROOT
BRANCH   1   7
ATOM      7  C   UNL d   1      57.822   0.124  30.305  0.00  0.00     0.202 C 
ATOM      8  O   UNL d   1      57.355   0.682  29.921  0.00  0.00    -0.286 OA
BRANCH   7   9
ATOM      9  C   UNL d   1      57.662  -0.070  31.103  0.00  0.00     0.077 C 
BRANCH   9  10
ATOM     10  S   UNL d   1      57.049   0.334  31.517  0.00  0.00    -0.082 SA
BRANCH  10  11
ATOM     11  C   UNL d   1      56.768   0.034  32.230  0.00  0.00     0.042 C 
BRANCH  11  12
ATOM     12  C   UNL d   1      56.098   0.363  32.577  0.00  0.00     0.077 C 
BRANCH  12  13
ATOM     13  C   UNL d   1      55.845   0.103  33.320  0.00  0.00     0.211 C 
ATOM     14  O   UNL d   1      56.301   0.272  33.988  0.00  0.00    -0.644 OA
ATOM     15  O   UNL d   1      55.143  -0.320  33.393  0.00  0.00    -0.644 OA
ENDBRANCH  12  13
ENDBRANCH  11  12
ENDBRANCH  10  11
ENDBRANCH   9  10
ENDBRANCH   7   9
ENDBRANCH   1   7
BRANCH   4  16
ATOM     16  O   UNL d   1      60.326  -1.393  28.719  0.00  0.00    -0.305 OA
BRANCH  16  17
ATOM     17  C   UNL d   1      60.550  -2.154  28.944  0.00  0.00     0.123 C 
ATOM     18  C   UNL d   1      61.133  -2.553  28.519  0.00  0.00     0.029 C 
ENDBRANCH  16  17
ENDBRANCH   4  16
TORSDOF 8
ENDMDL
MODEL 4
REMARK VINA RESULT:      -3.1      1.626      5.140
REMARK  8 active torsions:
REMARK  status: ('A' for Active; 'I' for Inactive)
REMARK    1  A    between atoms: C_4  and  C_1 
REMARK    2  A    between atoms: C_2  and  C_15 
REMARK    3  A    between atoms: C_3  and  C_2 
REMARK    4  A    between atoms: C_16  and  C_4 
REMARK    5  A    between atoms: O_14  and  C_9 
REMARK    6  A    between atoms: S_13  and  C_16 
REMARK    7  A    between atoms: C_15  and  S_13 
REMARK    8  A    between atoms: C_17  and  O_14 
ROOT
ATOM      1  C   UNL d   1      57.474  -0.353  30.937  0.00  0.00     0.040 A 
ATOM      2  C   UNL d   1      57.580   0.447  30.771  0.00  0.00     0.005 A 
ATOM      3  C   UNL d   1      57.870  -0.925  30.485  0.00  0.00     0.005 A 
ATOM      4  C   UNL d   1      58.474   0.109  29.706  0.00  0.00     0.100 A 
ATOM      5  C   UNL d   1      58.078   0.682  30.158  0.00  0.00     0.025 A 
ATOM      6  C   UNL d   1      58.368  -0.691  29.872  0.00  0.00     0.025 A 
ENDROOT
BRANCH   1   7
ATOM      7  C   UNL d   1      56.968  -0.575  31.559  0.00  0.00     0.202 C 
ATOM      8  O   UNL d   1      56.612  -1.317  31.570  0.00  0.00    -0.286 OA
BRANCH   7   9
ATOM      9  C   UNL d   1      56.820  -0.036  32.182  0.00  0.00     0.077 C 
BRANCH   9  10
ATOM     10  S   UNL d   1      56.071  -0.041  32.568  0.00  0.00    -0.082 SA
BRANCH  10  11
ATOM     11  C   UNL d   1      56.012   0.204  33.352  0.00  0.00     0.042 C 
BRANCH  11  12
ATOM     12  C   UNL d   1      55.373   0.664  33.591  0.00  0.00     0.077 C 
BRANCH  12  13
ATOM     13  C   UNL d   1      55.108   0.634  34.373  0.00  0.00     0.211 C 
ATOM     14  O   UNL d   1      55.657   0.667  34.990  0.00  0.00    -0.644 OA
ATOM     15  O   UNL d   1      54.304   0.573  34.537  0.00  0.00    -0.644 OA
ENDBRANCH  12  13
ENDBRANCH  11  12
ENDBRANCH  10  11
ENDBRANCH   9  10
ENDBRANCH   7   9
ENDBRANCH   1   7
BRANCH   4  16
ATOM     16  O   UNL d   1      58.986   0.344  29.075  0.00  0.00    -0.305 OA
BRANCH  16  17
ATOM     17  C   UNL d   1      59.800   0.230  29.147  0.00  0.00     0.123 C 
ATOM     18  C   UNL d   1      60.275   0.225  28.472  0.00  0.00     0.029 C 
ENDBRANCH  16  17
ENDBRANCH   4  16
TORSDOF 8
ENDMDL
MODEL 5
REMARK VINA RESULT:      -1.3      9.126      9.668
REMARK  8 active torsions:
REMARK  status: ('A' for Active; 'I' for Inactive)
REMARK    1  A    between atoms: C_4  and  C_1 
REMARK    2  A    between atoms: C_2  and  C_15 
REMARK    3  A    between atoms: C_3  and  C_2 
REMARK    4  A    between atoms: C_16  and  C_4 
REMARK    5  A    between atoms: O_14  and  C_9 
REMARK    6  A    between atoms: S_13  and  C_16 
REMARK    7  A    between atoms: C_15  and  S_13 
REMARK    8  A    between atoms: C_17  and  O_14 
ROOT
ATOM      1  C   UNL d   1      58.867  -9.574  32.890  0.00  0.00     0.040 A 
ATOM      2  C   UNL d   1      59.640  -9.687  32.630  0.00  0.00     0.005 A 
ATOM      3  C   UNL d   1      58.718  -9.444  33.696  0.00  0.00     0.005 A 
ATOM      4  C   UNL d   1      60.116  -9.541  33.972  0.00  0.00     0.100 A 
ATOM      5  C   UNL d   1      60.266  -9.672  33.166  0.00  0.00     0.025 A 
ATOM      6  C   UNL d   1      59.342  -9.428  34.232  0.00  0.00     0.025 A 
ENDROOT
BRANCH   1   7
ATOM      7  C   UNL d   1      58.246  -9.592  32.338  0.00  0.00     0.202 C 
ATOM      8  O   UNL d   1      57.471  -9.436  32.568  0.00  0.00    -0.286 OA
BRANCH   7   9
ATOM      9  C   UNL d   1      58.411  -9.773  31.538  0.00  0.00     0.077 C 
BRANCH   9  10
ATOM     10  S   UNL d   1      57.803  -9.700  30.959  0.00  0.00    -0.082 SA
BRANCH  10  11
ATOM     11  C   UNL d   1      57.978  -9.816  30.163  0.00  0.00     0.042 C 
BRANCH  11  12
ATOM     12  C   UNL d   1      57.559  -9.403  29.587  0.00  0.00     0.077 C 
BRANCH  12  13
ATOM     13  C   UNL d   1      57.932  -9.172  28.887  0.00  0.00     0.211 C 
ATOM     14  O   UNL d   1      58.544  -9.635  28.579  0.00  0.00    -0.644 OA
ATOM     15  O   UNL d   1      57.695  -8.486  28.498  0.00  0.00    -0.644 OA
ENDBRANCH  12  13
ENDBRANCH  11  12
ENDBRANCH  10  11
ENDBRANCH   9  10
ENDBRANCH   7   9
ENDBRANCH   1   7
BRANCH   4  16
ATOM     16  O   UNL d   1      60.754  -9.524  34.527  0.00  0.00    -0.305 OA
BRANCH  16  17
ATOM     17  C   UNL d   1      60.601  -9.644  35.329  0.00  0.00     0.123 C 
ATOM     18  C   UNL d   1      61.128  -9.356  35.895  0.00  0.00     0.029 C 
ENDBRANCH  16  17
ENDBRANCH   4  16
TORSDOF 8
ENDMDL
