MODEL 1
REMARK VINA RESULT:      -5.2      0.000      0.000
REMARK  1 active torsions:
REMARK  status: ('A' for Active; 'I' for Inactive)
REMARK       I    between atoms: N_2  and  C_1 
REMARK    1  A    between atoms: C_5  and  N_2 
ROOT
ATOM      1  C   UNL d   1      55.539  -0.130  33.266  0.00  0.00     0.100 A 
ATOM      2  C   UNL d   1      56.584  -0.575  32.069  0.00  0.00     0.000 A 
ATOM      3  C   UNL d   1      55.881   0.445  32.780  0.00  0.00     0.020 A 
ATOM      4  C   UNL d   1      55.719  -0.927  33.153  0.00  0.00     0.020 A 
ATOM      5  C   UNL d   1      56.404   0.222  32.182  0.00  0.00     0.002 A 
ATOM      6  C   UNL d   1      56.241  -1.150  32.555  0.00  0.00     0.002 A 
ATOM      7  C   UNL d   1      57.108  -0.800  31.469  0.00  0.00     0.000 C 
ENDROOT
BRANCH   1   8
ATOM      8  N   UNL d   1      55.014   0.090  33.867  0.00  0.00    -0.056 NA
ATOM      9  C   UNL d   1      55.295   0.458  34.544  0.00  0.00     0.787 C 
ATOM     10  N   UNL d   1      54.774   0.682  35.153  0.00  0.00     0.064 N 
ATOM     11  N   UNL d   1      56.105   0.607  34.622  0.00  0.00     0.064 N 
ENDBRANCH   1   8
TORSDOF 1
ENDMDL
MODEL 2
REMARK VINA RESULT:      -4.6      2.160      2.978
REMARK  1 active torsions:
REMARK  status: ('A' for Active; 'I' for Inactive)
REMARK       I    between atoms: N_2  and  C_1 
REMARK    1  A    between atoms: C_5  and  N_2 
ROOT
ATOM      1  C   UNL d   1      56.760  -0.073  31.729  0.00  0.00     0.100 A 
ATOM      2  C   UNL d   1      55.781  -0.197  33.052  0.00  0.00     0.000 A 
ATOM      3  C   UNL d   1      56.390   0.600  32.036  0.00  0.00     0.020 A 
ATOM      4  C   UNL d   1      56.640  -0.808  32.085  0.00  0.00     0.020 A 
ATOM      5  C   UNL d   1      55.901   0.538  32.697  0.00  0.00     0.002 A 
ATOM      6  C   UNL d   1      56.151  -0.870  32.746  0.00  0.00     0.002 A 
ATOM      7  C   UNL d   1      55.290  -0.262  33.716  0.00  0.00     0.000 C 
ENDROOT
BRANCH   1   8
ATOM      8  N   UNL d   1      57.251  -0.013  31.067  0.00  0.00    -0.056 NA
ATOM      9  C   UNL d   1      57.983   0.354  31.127  0.00  0.00     0.787 C 
ATOM     10  N   UNL d   1      58.482   0.417  30.465  0.00  0.00     0.064 N 
ATOM     11  N   UNL d   1      58.224   0.665  31.855  0.00  0.00     0.064 N 
ENDBRANCH   1   8
TORSDOF 1
ENDMDL
MODEL 3
REMARK VINA RESULT:      -2.7      8.586      9.236
REMARK  1 active torsions:
REMARK  status: ('A' for Active; 'I' for Inactive)
REMARK       I    between atoms: N_2  and  C_1 
REMARK    1  A    between atoms: C_5  and  N_2 
ROOT
ATOM      1  C   UNL d   1      60.531  -7.554  36.017  0.00  0.00     0.100 A 
ATOM      2  C   UNL d   1      59.673  -8.914  35.646  0.00  0.00     0.000 A 
ATOM      3  C   UNL d   1      59.773  -7.664  36.330  0.00  0.00     0.020 A 
ATOM      4  C   UNL d   1      60.859  -8.124  35.519  0.00  0.00     0.020 A 
ATOM      5  C   UNL d   1      59.345  -8.344  36.144  0.00  0.00     0.002 A 
ATOM      6  C   UNL d   1      60.430  -8.804  35.333  0.00  0.00     0.002 A 
ATOM      7  C   UNL d   1      59.244  -9.597  35.458  0.00  0.00     0.000 C 
ENDROOT
BRANCH   1   8
ATOM      8  N   UNL d   1      60.963  -6.874  36.202  0.00  0.00    -0.056 NA
ATOM      9  C   UNL d   1      60.612  -6.134  36.146  0.00  0.00     0.787 C 
ATOM     10  N   UNL d   1      61.041  -5.446  36.330  0.00  0.00     0.064 N 
ATOM     11  N   UNL d   1      59.824  -6.074  35.903  0.00  0.00     0.064 N 
ENDBRANCH   1   8
TORSDOF 1
ENDMDL
MODEL 4
REMARK VINA RESULT:      -2.7      9.583     10.095
REMARK  1 active torsions:
REMARK  status: ('A' for Active; 'I' for Inactive)
REMARK       I    between atoms: N_2  and  C_1 
REMARK    1  A    between atoms: C_5  and  N_2 
ROOT
ATOM      1  C   UNL d   1      59.989  -9.447  34.437  0.00  0.00     0.100 A 
ATOM      2  C   UNL d   1      60.637  -9.482  32.920  0.00  0.00     0.000 A 
ATOM      3  C   UNL d   1      60.809  -9.415  34.336  0.00  0.00     0.020 A 
ATOM      4  C   UNL d   1      59.493  -9.497  33.779  0.00  0.00     0.020 A 
ATOM      5  C   UNL d   1      61.133  -9.432  33.577  0.00  0.00     0.002 A 
ATOM      6  C   UNL d   1      59.817  -9.515  33.021  0.00  0.00     0.002 A 
ATOM      7  C   UNL d   1      60.960  -9.500  32.157  0.00  0.00     0.000 C 
ENDROOT
BRANCH   1   8
ATOM      8  N   UNL d   1      59.662  -9.430  35.196  0.00  0.00    -0.056 NA
ATOM      9  C   UNL d   1      59.517  -8.712  35.566  0.00  0.00     0.787 C 
ATOM     10  N   UNL d   1      59.188  -8.687  36.330  0.00  0.00     0.064 N 
ATOM     11  N   UNL d   1      59.701  -8.007  35.176  0.00  0.00     0.064 N 
ENDBRANCH   1   8
TORSDOF 1
ENDMDL
MODEL 5
REMARK VINA RESULT:      -2.5      1.882      2.704
REMARK  1 active torsions:
REMARK  status: ('A' for Active; 'I' for Inactive)
REMARK       I    between atoms: N_2  and  C_1 
REMARK    1  A    between atoms: C_5  and  N_2 
ROOT
ATOM      1  C   UNL d   1      57.251   0.332  31.514  0.00  0.00     0.100 A 
ATOM      2  C   UNL d   1      58.653   0.335  30.644  0.00  0.00     0.000 A 
ATOM      3  C   UNL d   1      57.274  -0.015  30.764  0.00  0.00     0.020 A 
ATOM      4  C   UNL d   1      57.929   0.680  31.829  0.00  0.00     0.020 A 
ATOM      5  C   UNL d   1      57.974  -0.014  30.329  0.00  0.00     0.002 A 
ATOM      6  C   UNL d   1      58.630   0.682  31.394  0.00  0.00     0.002 A 
ATOM      7  C   UNL d   1      59.357   0.338  30.209  0.00  0.00     0.000 C 
ENDROOT
BRANCH   1   8
ATOM      8  N   UNL d   1      56.550   0.331  31.953  0.00  0.00    -0.056 NA
ATOM      9  C   UNL d   1      56.348  -0.322  32.407  0.00  0.00     0.787 C 
ATOM     10  N   UNL d   1      55.644  -0.329  32.850  0.00  0.00     0.064 N 
ATOM     11  N   UNL d   1      56.850  -0.979  32.422  0.00  0.00     0.064 N 
ENDBRANCH   1   8
TORSDOF 1
ENDMDL
MODEL 6
REMARK VINA RESULT:      -2.2      4.952      5.652
REMARK  1 active torsions:
REMARK  status: ('A' for Active; 'I' for Inactive)
REMARK       I    between atoms: N_2  and  C_1 
REMARK    1  A    between atoms: C_5  and  N_2 
ROOT
ATOM      1  C   UNL d   1      58.943  -1.321  28.792  0.00  0.00     0.100 A 
ATOM      2  C   UNL d   1      59.808  -2.713  28.991  0.00  0.00     0.000 A 
ATOM      3  C   UNL d   1      59.729  -1.362  28.535  0.00  0.00     0.020 A 
ATOM      4  C   UNL d   1      58.591  -1.977  29.147  0.00  0.00     0.020 A 
ATOM      5  C   UNL d   1      60.160  -2.058  28.635  0.00  0.00     0.002 A 
ATOM      6  C   UNL d   1      59.022  -2.672  29.247  0.00  0.00     0.002 A 
ATOM      7  C   UNL d   1      60.240  -3.412  29.091  0.00  0.00     0.000 C 
ENDROOT
BRANCH   1   8
ATOM      8  N   UNL d   1      58.508  -0.625  28.693  0.00  0.00    -0.056 NA
ATOM      9  C   UNL d   1      58.566  -0.021  29.246  0.00  0.00     0.787 C 
ATOM     10  N   UNL d   1      58.131   0.682  29.153  0.00  0.00     0.064 N 
ATOM     11  N   UNL d   1      59.063  -0.113  29.900  0.00  0.00     0.064 N 
ENDBRANCH   1   8
TORSDOF 1
ENDMDL
MODEL 7
REMARK VINA RESULT:      -2.2      2.916      4.000
REMARK  1 active torsions:
REMARK  status: ('A' for Active; 'I' for Inactive)
REMARK       I    between atoms: N_2  and  C_1 
REMARK    1  A    between atoms: C_5  and  N_2 
ROOT
ATOM      1  C   UNL d   1      57.944  -0.160  30.151  0.00  0.00     0.100 A 
ATOM      2  C   UNL d   1      59.147   0.018  29.035  0.00  0.00     0.000 A 
ATOM      3  C   UNL d   1      58.486  -0.772  30.025  0.00  0.00     0.020 A 
ATOM      4  C   UNL d   1      58.004   0.540  29.719  0.00  0.00     0.020 A 
ATOM      5  C   UNL d   1      59.087  -0.683  29.467  0.00  0.00     0.002 A 
ATOM      6  C   UNL d   1      58.605   0.629  29.161  0.00  0.00     0.002 A 
ATOM      7  C   UNL d   1      59.750   0.109  28.475  0.00  0.00     0.000 C 
ENDROOT
BRANCH   1   8
ATOM      8  N   UNL d   1      57.340  -0.246  30.709  0.00  0.00    -0.056 NA
ATOM      9  C   UNL d   1      57.399   0.123  31.440  0.00  0.00     0.787 C 
ATOM     10  N   UNL d   1      56.795   0.041  32.006  0.00  0.00     0.064 N 
ATOM     11  N   UNL d   1      58.065   0.582  31.613  0.00  0.00     0.064 N 
ENDBRANCH   1   8
TORSDOF 1
ENDMDL
