MODEL 1
REMARK VINA RESULT:      -5.4      0.000      0.000
REMARK  4 active torsions:
REMARK  status: ('A' for Active; 'I' for Inactive)
REMARK    1  A    between atoms: S_2  and  C_1 
REMARK    2  A    between atoms: C_10  and  S_2 
REMARK    3  A    between atoms: N_7  and  C_4 
REMARK    4  A    between atoms: C_8  and  N_7 
ROOT
ATOM      1  C   UNL d   1      57.580  -0.102  30.982  0.00  0.00     0.187 A 
ATOM      2  N   UNL d   1      57.558  -0.441  30.229  0.00  0.00    -0.208 NA
ATOM      3  C   UNL d   1      58.271  -0.283  29.861  0.00  0.00     0.198 A 
ATOM      4  C   UNL d   1      58.311   0.265  31.072  0.00  0.00     0.118 A 
ATOM      5  S   UNL d   1      58.736   0.151  30.378  0.00  0.00    -0.035 SA
ATOM      6 CL   UNL d   1      58.578   0.682  31.752  0.00  0.00    -0.073 Cl
ENDROOT
BRANCH   1   7
ATOM      7  S   UNL d   1      57.028  -0.081  31.595  0.00  0.00     0.228 S 
ATOM      8  O   UNL d   1      57.312  -0.803  31.876  0.00  0.00    -0.216 OA
ATOM      9  O   UNL d   1      56.744   0.641  31.314  0.00  0.00    -0.216 OA
BRANCH   7  10
ATOM     10  C   UNL d   1      56.476  -0.060  32.208  0.00  0.00     0.089 A 
ATOM     11  C   UNL d   1      56.240  -0.765  32.575  0.00  0.00     0.011 A 
ATOM     12  C   UNL d   1      55.682  -0.744  33.194  0.00  0.00     0.001 A 
ATOM     13  C   UNL d   1      55.367  -0.017  33.441  0.00  0.00     0.000 A 
ATOM     14  C   UNL d   1      55.604   0.682  33.074  0.00  0.00     0.001 A 
ATOM     15  C   UNL d   1      54.816   0.004  34.053  0.00  0.00     0.000 C 
ATOM     16  C   UNL d   1      56.161   0.660  32.455  0.00  0.00     0.011 A 
ENDBRANCH   7  10
ENDBRANCH   1   7
BRANCH   3  17
ATOM     17  N   UNL d   1      58.475  -0.527  29.095  0.00  0.00    -0.196 NA
BRANCH  17  18
ATOM     18  C   UNL d   1      58.890  -1.230  28.987  0.00  0.00     0.196 A 
ATOM     19  N   UNL d   1      58.696  -2.016  29.147  0.00  0.00    -0.219 NA
ATOM     20  C   UNL d   1      59.334  -2.484  28.920  0.00  0.00     0.108 A 
ATOM     21  C   UNL d   1      59.920  -1.993  28.620  0.00  0.00     0.059 A 
ATOM     22  S   UNL d   1      59.647  -1.220  28.661  0.00  0.00    -0.046 SA
ENDBRANCH  17  18
ENDBRANCH   3  17
TORSDOF 4
ENDMDL
MODEL 2
REMARK VINA RESULT:      -4.3      1.483      1.709
REMARK  4 active torsions:
REMARK  status: ('A' for Active; 'I' for Inactive)
REMARK    1  A    between atoms: S_2  and  C_1 
REMARK    2  A    between atoms: C_10  and  S_2 
REMARK    3  A    between atoms: N_7  and  C_4 
REMARK    4  A    between atoms: C_8  and  N_7 
ROOT
ATOM      1  C   UNL d   1      57.351   0.149  31.500  0.00  0.00     0.187 A 
ATOM      2  N   UNL d   1      57.786   0.673  31.032  0.00  0.00    -0.208 NA
ATOM      3  C   UNL d   1      58.079   0.257  30.393  0.00  0.00     0.198 A 
ATOM      4  C   UNL d   1      57.380  -0.591  31.143  0.00  0.00     0.118 A 
ATOM      5  S   UNL d   1      57.831  -0.523  30.458  0.00  0.00    -0.035 SA
ATOM      6 CL   UNL d   1      57.015  -1.295  31.424  0.00  0.00    -0.073 Cl
ENDROOT
BRANCH   1   7
ATOM      7  S   UNL d   1      56.933   0.252  32.204  0.00  0.00     0.228 S 
ATOM      8  O   UNL d   1      56.222   0.180  31.793  0.00  0.00    -0.216 OA
ATOM      9  O   UNL d   1      57.645   0.325  32.615  0.00  0.00    -0.216 OA
BRANCH   7  10
ATOM     10  C   UNL d   1      56.516   0.355  32.908  0.00  0.00     0.089 A 
ATOM     11  C   UNL d   1      55.691   0.269  32.915  0.00  0.00     0.011 A 
ATOM     12  C   UNL d   1      55.269   0.373  33.626  0.00  0.00     0.001 A 
ATOM     13  C   UNL d   1      55.677   0.563  34.324  0.00  0.00     0.000 A 
ATOM     14  C   UNL d   1      56.496   0.648  34.314  0.00  0.00     0.001 A 
ATOM     15  C   UNL d   1      55.260   0.666  35.027  0.00  0.00     0.000 C 
ATOM     16  C   UNL d   1      56.918   0.544  33.603  0.00  0.00     0.011 A 
ENDBRANCH   7  10
ENDBRANCH   1   7
BRANCH   3  17
ATOM     17  N   UNL d   1      58.546   0.579  29.788  0.00  0.00    -0.196 NA
BRANCH  17  18
ATOM     18  C   UNL d   1      59.365   0.501  29.819  0.00  0.00     0.196 A 
ATOM     19  N   UNL d   1      59.916   0.682  30.408  0.00  0.00    -0.219 NA
ATOM     20  C   UNL d   1      60.662   0.482  30.123  0.00  0.00     0.108 A 
ATOM     21  C   UNL d   1      60.577   0.179  29.365  0.00  0.00     0.059 A 
ATOM     22  S   UNL d   1      59.778   0.190  29.176  0.00  0.00    -0.046 SA
ENDBRANCH  17  18
ENDBRANCH   3  17
TORSDOF 4
ENDMDL
MODEL 3
REMARK VINA RESULT:      -3.7      2.149      4.931
REMARK  4 active torsions:
REMARK  status: ('A' for Active; 'I' for Inactive)
REMARK    1  A    between atoms: S_2  and  C_1 
REMARK    2  A    between atoms: C_10  and  S_2 
REMARK    3  A    between atoms: N_7  and  C_4 
REMARK    4  A    between atoms: C_8  and  N_7 
ROOT
ATOM      1  C   UNL d   1      56.648   0.063  32.238  0.00  0.00     0.187 A 
ATOM      2  N   UNL d   1      56.270   0.647  32.683  0.00  0.00    -0.208 NA
ATOM      3  C   UNL d   1      55.717   0.280  33.161  0.00  0.00     0.198 A 
ATOM      4  C   UNL d   1      56.324  -0.664  32.446  0.00  0.00     0.118 A 
ATOM      5  S   UNL d   1      55.748  -0.527  33.018  0.00  0.00    -0.035 SA
ATOM      6 CL   UNL d   1      56.540  -1.414  32.133  0.00  0.00    -0.073 Cl
ENDROOT
BRANCH   1   7
ATOM      7  S   UNL d   1      57.246   0.101  31.670  0.00  0.00     0.228 S 
ATOM      8  O   UNL d   1      56.691   0.319  31.100  0.00  0.00    -0.216 OA
ATOM      9  O   UNL d   1      57.801  -0.117  32.241  0.00  0.00    -0.216 OA
BRANCH   7  10
ATOM     10  C   UNL d   1      57.844   0.139  31.103  0.00  0.00     0.089 A 
ATOM     11  C   UNL d   1      57.766  -0.282  30.392  0.00  0.00     0.011 A 
ATOM     12  C   UNL d   1      58.369  -0.244  29.819  0.00  0.00     0.001 A 
ATOM     13  C   UNL d   1      59.046   0.215  29.962  0.00  0.00     0.000 A 
ATOM     14  C   UNL d   1      59.120   0.632  30.669  0.00  0.00     0.001 A 
ATOM     15  C   UNL d   1      59.643   0.253  29.395  0.00  0.00     0.000 C 
ATOM     16  C   UNL d   1      58.517   0.594  31.242  0.00  0.00     0.011 A 
ENDBRANCH   7  10
ENDBRANCH   1   7
BRANCH   3  17
ATOM     17  N   UNL d   1      55.217   0.670  33.696  0.00  0.00    -0.196 NA
BRANCH  17  18
ATOM     18  C   UNL d   1      55.377   0.639  34.502  0.00  0.00     0.196 A 
ATOM     19  N   UNL d   1      56.084   0.568  34.923  0.00  0.00    -0.219 NA
ATOM     20  C   UNL d   1      55.900   0.568  35.726  0.00  0.00     0.108 A 
ATOM     21  C   UNL d   1      55.086   0.638  35.804  0.00  0.00     0.059 A 
ATOM     22  S   UNL d   1      54.762   0.682  35.051  0.00  0.00    -0.046 SA
ENDBRANCH  17  18
ENDBRANCH   3  17
TORSDOF 4
ENDMDL
MODEL 4
REMARK VINA RESULT:      -3.1      1.550      4.609
REMARK  4 active torsions:
REMARK  status: ('A' for Active; 'I' for Inactive)
REMARK    1  A    between atoms: S_2  and  C_1 
REMARK    2  A    between atoms: C_10  and  S_2 
REMARK    3  A    between atoms: N_7  and  C_4 
REMARK    4  A    between atoms: C_8  and  N_7 
ROOT
ATOM      1  C   UNL d   1      58.356  -0.600  29.907  0.00  0.00     0.187 A 
ATOM      2  N   UNL d   1      57.758  -0.534  30.474  0.00  0.00    -0.208 NA
ATOM      3  C   UNL d   1      57.551   0.254  30.533  0.00  0.00     0.198 A 
ATOM      4  C   UNL d   1      58.513   0.154  29.619  0.00  0.00     0.118 A 
ATOM      5  S   UNL d   1      58.014   0.681  30.007  0.00  0.00    -0.035 SA
ATOM      6 CL   UNL d   1      59.082   0.355  29.032  0.00  0.00    -0.073 Cl
ENDROOT
BRANCH   1   7
ATOM      7  S   UNL d   1      58.775  -1.249  29.618  0.00  0.00     0.228 S 
ATOM      8  O   UNL d   1      58.064  -1.638  29.461  0.00  0.00    -0.216 OA
ATOM      9  O   UNL d   1      59.485  -0.860  29.775  0.00  0.00    -0.216 OA
BRANCH   7  10
ATOM     10  C   UNL d   1      59.194  -1.898  29.329  0.00  0.00     0.089 A 
ATOM     11  C   UNL d   1      58.834  -2.414  28.788  0.00  0.00     0.011 A 
ATOM     12  C   UNL d   1      59.257  -3.070  28.496  0.00  0.00     0.001 A 
ATOM     13  C   UNL d   1      60.037  -3.203  28.747  0.00  0.00     0.000 A 
ATOM     14  C   UNL d   1      60.392  -2.688  29.284  0.00  0.00     0.001 A 
ATOM     15  C   UNL d   1      60.456  -3.851  28.458  0.00  0.00     0.000 C 
ATOM     16  C   UNL d   1      59.968  -2.033  29.576  0.00  0.00     0.011 A 
ENDBRANCH   7  10
ENDBRANCH   1   7
BRANCH   3  17
ATOM     17  N   UNL d   1      56.970   0.558  31.041  0.00  0.00    -0.196 NA
BRANCH  17  18
ATOM     18  C   UNL d   1      57.077   0.514  31.856  0.00  0.00     0.196 A 
ATOM     19  N   UNL d   1      57.726   0.682  32.338  0.00  0.00    -0.219 NA
ATOM     20  C   UNL d   1      57.505   0.534  33.117  0.00  0.00     0.108 A 
ATOM     21  C   UNL d   1      56.725   0.276  33.120  0.00  0.00     0.059 A 
ATOM     22  S   UNL d   1      56.460   0.264  32.343  0.00  0.00    -0.046 SA
ENDBRANCH  17  18
ENDBRANCH   3  17
TORSDOF 4
ENDMDL
