MODEL 1
REMARK VINA RESULT:      33.2      0.000      0.000
REMARK  3 active torsions:
REMARK  status: ('A' for Active; 'I' for Inactive)
REMARK    1  A    between atoms: C_2  and  C_1 
REMARK       I    between atoms: N_7  and  C_2 
REMARK    2  A    between atoms: C_9  and  N_7 
REMARK    3  A    between atoms: O_13  and  C_11 
ROOT
ATOM      1  C   UNL d   1     -57.088 -98.943 -45.465  0.00  0.00     0.280 C 
ATOM      2  N   UNL d   1     -56.320 -99.195 -45.608  0.00  0.00    -0.208 NA
ATOM      3  O   UNL d   1     -57.584 -98.756 -46.093  0.00  0.00    -0.265 OA
ENDROOT
BRANCH   1   4
ATOM      4  C   UNL d   1     -57.363 -98.877 -44.688  0.00  0.00     0.065 A 
ATOM      5  C   UNL d   1     -58.148 -98.869 -44.449  0.00  0.00     0.011 A 
ATOM      6  C   UNL d   1     -58.175 -98.795 -43.627  0.00  0.00     0.030 A 
ATOM      7  C   UNL d   1     -58.848 -98.921 -44.883  0.00  0.00     0.001 A 
ATOM      8  C   UNL d   1     -58.901 -98.772 -43.238  0.00  0.00     0.006 A 
ATOM      9  S   UNL d   1     -57.395 -98.755 -43.341  0.00  0.00    -0.086 SA
ATOM     10  C   UNL d   1     -59.601 -98.824 -43.671  0.00  0.00     0.001 A 
ATOM     11  C   UNL d   1     -59.574 -98.898 -44.493  0.00  0.00     0.000 A 
ATOM     12  C   UNL d   1     -56.885 -98.805 -43.991  0.00  0.00     0.040 A 
ENDBRANCH   1   4
BRANCH   2  13
ATOM     13  C   UNL d   1     -55.816 -99.384 -44.972  0.00  0.00     0.087 A 
ATOM     14  C   UNL d   1     -55.768-100.165 -44.714  0.00  0.00     0.043 A 
ATOM     15  C   UNL d   1     -55.266-100.351 -44.079  0.00  0.00     0.096 A 
ATOM     16  C   UNL d   1     -54.821 -99.756 -43.714  0.00  0.00     0.024 A 
ATOM     17  C   UNL d   1     -54.879 -98.975 -43.984  0.00  0.00     0.004 A 
ATOM     18  C   UNL d   1     -55.375 -98.788 -44.611  0.00  0.00     0.019 A 
BRANCH  15  19
ATOM     19  O   UNL d   1     -55.218-101.131 -43.822  0.00  0.00    -0.328 OA
ATOM     20  C   UNL d   1     -54.840-101.700 -44.285  0.00  0.00     0.181 C 
ENDBRANCH  15  19
ENDBRANCH   2  13
TORSDOF 3
ENDMDL
