MODEL 1
REMARK VINA RESULT:      51.5      0.000      0.000
REMARK  5 active torsions:
REMARK  status: ('A' for Active; 'I' for Inactive)
REMARK    1  A    between atoms: C_6  and  C_1 
REMARK    2  A    between atoms: C_7  and  C_6 
REMARK    3  A    between atoms: C_9  and  C_19 
REMARK       I    between atoms: N_17  and  C_9 
REMARK    4  A    between atoms: O_20  and  C_18 
REMARK    5  A    between atoms: C_19  and  O_20 
ROOT
ATOM      1  C   UNL d   1     -51.138  26.474  33.600  0.00  0.00     0.141 A 
ATOM      2  C   UNL d   1     -50.631  27.692  33.786  0.00  0.00     0.064 A 
ATOM      3  C   UNL d   1     -51.307  27.278  33.549  0.00  0.00     0.220 A 
ATOM      4  C   UNL d   1     -50.046  27.137  33.983  0.00  0.00     0.105 A 
ATOM      5  O   UNL d   1     -50.363  26.380  33.866  0.00  0.00    -0.304 OA
ATOM      6  C   UNL d   1     -49.308  27.398  34.240  0.00  0.00     0.050 A 
ATOM      7  C   UNL d   1     -50.470  28.503  33.850  0.00  0.00     0.007 A 
ATOM      8  O   UNL d   1     -52.020  27.613  33.307  0.00  0.00    -0.284 OA
ATOM      9  C   UNL d   1     -49.151  28.206  34.302  0.00  0.00     0.102 A 
ATOM     10  C   UNL d   1     -49.728  28.755  34.108  0.00  0.00     0.025 A 
ENDROOT
BRANCH   1  11
ATOM     11  C   UNL d   1     -51.662  25.857  33.413  0.00  0.00     0.053 C 
BRANCH  11  12
ATOM     12  C   UNL d   1     -51.386  25.076  33.375  0.00  0.00     0.102 A 
ATOM     13  O   UNL d   1     -50.594  24.847  33.368  0.00  0.00    -0.307 OA
ATOM     14  C   UNL d   1     -50.576  24.026  33.326  0.00  0.00     0.100 A 
ATOM     15  C   UNL d   1     -49.894  23.555  33.306  0.00  0.00     0.027 C 
ATOM     16  C   UNL d   1     -51.351  23.744  33.306  0.00  0.00     0.027 A 
ATOM     17  C   UNL d   1     -51.855  24.407  33.337  0.00  0.00     0.027 A 
ENDBRANCH  11  12
ENDBRANCH   1  11
BRANCH   9  18
ATOM     18  O   UNL d   1     -48.405  28.461  34.561  0.00  0.00    -0.300 OA
BRANCH  18  19
ATOM     19  C   UNL d   1     -48.323  28.806  35.296  0.00  0.00     0.187 C 
BRANCH  19  20
ATOM     20  C   UNL d   1     -47.710  29.341  35.434  0.00  0.00     0.323 C 
ATOM     21  O   UNL d   1     -47.072  29.125  35.901  0.00  0.00    -0.261 OA
ATOM     22  N   UNL d   1     -47.743  30.099  35.100  0.00  0.00    -0.083 NA
ATOM     23  N   UNL d   1     -47.128  30.640  35.237  0.00  0.00    -0.019 N 
ENDBRANCH  19  20
ENDBRANCH  18  19
ENDBRANCH   9  18
TORSDOF 5
ENDMDL
MODEL 2
REMARK VINA RESULT:      52.0      2.648      6.034
REMARK  5 active torsions:
REMARK  status: ('A' for Active; 'I' for Inactive)
REMARK    1  A    between atoms: C_6  and  C_1 
REMARK    2  A    between atoms: C_7  and  C_6 
REMARK    3  A    between atoms: C_9  and  C_19 
REMARK       I    between atoms: N_17  and  C_9 
REMARK    4  A    between atoms: O_20  and  C_18 
REMARK    5  A    between atoms: C_19  and  O_20 
ROOT
ATOM      1  C   UNL d   1     -47.480  30.896  35.194  0.00  0.00     0.141 A 
ATOM      2  C   UNL d   1     -47.823  29.676  35.609  0.00  0.00     0.064 A 
ATOM      3  C   UNL d   1     -47.510  30.402  35.853  0.00  0.00     0.220 A 
ATOM      4  C   UNL d   1     -47.985  29.727  34.797  0.00  0.00     0.105 A 
ATOM      5  O   UNL d   1     -47.772  30.486  34.541  0.00  0.00    -0.304 OA
ATOM      6  C   UNL d   1     -48.304  29.076  34.405  0.00  0.00     0.050 A 
ATOM      7  C   UNL d   1     -47.982  28.973  36.020  0.00  0.00     0.007 A 
ATOM      8  O   UNL d   1     -47.271  30.594  36.618  0.00  0.00    -0.284 OA
ATOM      9  C   UNL d   1     -48.461  28.378  34.816  0.00  0.00     0.102 A 
ATOM     10  C   UNL d   1     -48.301  28.327  35.618  0.00  0.00     0.025 A 
ENDROOT
BRANCH   1  11
ATOM     11  C   UNL d   1     -47.203  31.678  35.189  0.00  0.00     0.053 C 
BRANCH  11  12
ATOM     12  C   UNL d   1     -47.406  32.186  34.565  0.00  0.00     0.102 A 
ATOM     13  O   UNL d   1     -48.154  32.506  34.432  0.00  0.00    -0.307 OA
ATOM     14  C   UNL d   1     -48.105  32.974  33.759  0.00  0.00     0.100 A 
ATOM     15  C   UNL d   1     -48.727  33.405  33.418  0.00  0.00     0.027 C 
ATOM     16  C   UNL d   1     -47.331  32.947  33.472  0.00  0.00     0.027 A 
ATOM     17  C   UNL d   1     -46.898  32.451  33.982  0.00  0.00     0.027 A 
ENDBRANCH  11  12
ENDBRANCH   1  11
BRANCH   9  18
ATOM     18  O   UNL d   1     -48.783  27.727  34.415  0.00  0.00    -0.300 OA
BRANCH  18  19
ATOM     19  C   UNL d   1     -49.580  27.703  34.244  0.00  0.00     0.187 C 
BRANCH  19  20
ATOM     20  C   UNL d   1     -49.883  27.096  33.774  0.00  0.00     0.323 C 
ATOM     21  O   UNL d   1     -49.382  26.648  33.306  0.00  0.00    -0.261 OA
ATOM     22  N   UNL d   1     -50.698  26.942  33.777  0.00  0.00    -0.083 NA
ATOM     23  N   UNL d   1     -51.006  26.332  33.306  0.00  0.00    -0.019 N 
ENDBRANCH  19  20
ENDBRANCH  18  19
ENDBRANCH   9  18
TORSDOF 5
ENDMDL
