MODEL 1
REMARK VINA RESULT:      -8.1      0.000      0.000
REMARK  6 active torsions:
REMARK  status: ('A' for Active; 'I' for Inactive)
REMARK    1  A    between atoms: C_2  and  S_1 
REMARK    2  A    between atoms: N_5  and  S_1 
REMARK    3  A    between atoms: C_14  and  N_5 
REMARK    4  A    between atoms: C_7  and  C_6 
REMARK    5  A    between atoms: C_19  and  C_14 
REMARK    6  A    between atoms: O_18  and  C_19 
ROOT
ATOM      1  C   UNL d   1      53.022  31.448  53.101  0.00  0.00     0.105 A 
ATOM      2  C   UNL d   1      53.047  33.026  53.623  0.00  0.00     0.000 A 
ATOM      3  C   UNL d   1      53.736  31.800  53.317  0.00  0.00     0.013 A 
ATOM      4  C   UNL d   1      52.321  31.879  53.146  0.00  0.00     0.013 A 
ATOM      5  C   UNL d   1      52.333  32.673  53.408  0.00  0.00     0.001 A 
ATOM      6  C   UNL d   1      53.749  32.594  53.579  0.00  0.00     0.001 A 
ENDROOT
BRANCH   1   7
ATOM      7  S   UNL d   1      53.006  30.664  52.842  0.00  0.00     0.285 S 
ATOM      8  O   UNL d   1      52.989  29.888  52.580  0.00  0.00    -0.198 OA
ATOM      9  O   UNL d   1      52.844  30.917  52.076  0.00  0.00    -0.198 OA
BRANCH   7  10
ATOM     10  N   UNL d   1      53.167  30.408  53.602  0.00  0.00    -0.155 NA
BRANCH  10  11
ATOM     11  C   UNL d   1      53.179  29.594  53.774  0.00  0.00     0.138 C 
BRANCH  11  12
ATOM     12  C   UNL d   1      53.329  29.344  54.541  0.00  0.00     0.138 C 
BRANCH  12  13
ATOM     13  O   UNL d   1      53.361  28.532  54.718  0.00  0.00    -0.325 OA
ATOM     14  C   UNL d   1      53.416  28.276  55.496  0.00  0.00     0.182 C 
ENDBRANCH  12  13
ENDBRANCH  11  12
ENDBRANCH  10  11
ENDBRANCH   7  10
ENDBRANCH   1   7
BRANCH   2  15
ATOM     15  C   UNL d   1      53.055  33.802  53.879  0.00  0.00     0.000 A 
ATOM     16  C   UNL d   1      53.303  33.979  54.646  0.00  0.00     0.000 A 
ATOM     17  C   UNL d   1      53.314  34.761  54.912  0.00  0.00     0.000 A 
ATOM     18  C   UNL d   1      53.071  35.373  54.396  0.00  0.00     0.000 A 
ATOM     19  C   UNL d   1      52.823  35.197  53.629  0.00  0.00     0.000 A 
ATOM     20  C   UNL d   1      53.081  36.157  54.659  0.00  0.00     0.000 C 
ATOM     21  C   UNL d   1      52.813  34.413  53.367  0.00  0.00     0.000 A 
ENDBRANCH   2  15
TORSDOF 6
ENDMDL
MODEL 2
REMARK VINA RESULT:      -8.0      3.206      4.708
REMARK  6 active torsions:
REMARK  status: ('A' for Active; 'I' for Inactive)
REMARK    1  A    between atoms: C_2  and  S_1 
REMARK    2  A    between atoms: N_5  and  S_1 
REMARK    3  A    between atoms: C_14  and  N_5 
REMARK    4  A    between atoms: C_7  and  C_6 
REMARK    5  A    between atoms: C_19  and  C_14 
REMARK    6  A    between atoms: O_18  and  C_19 
ROOT
ATOM      1  C   UNL d   1      50.876  34.210  52.672  0.00  0.00     0.105 A 
ATOM      2  C   UNL d   1      52.274  33.944  53.530  0.00  0.00     0.000 A 
ATOM      3  C   UNL d   1      50.916  33.590  53.215  0.00  0.00     0.013 A 
ATOM      4  C   UNL d   1      51.531  34.697  52.555  0.00  0.00     0.013 A 
ATOM      5  C   UNL d   1      52.234  34.564  52.987  0.00  0.00     0.001 A 
ATOM      6  C   UNL d   1      51.619  33.457  53.647  0.00  0.00     0.001 A 
ENDROOT
BRANCH   1   7
ATOM      7  S   UNL d   1      50.183  34.345  52.243  0.00  0.00     0.285 S 
ATOM      8  O   UNL d   1      49.497  34.476  51.815  0.00  0.00    -0.198 OA
ATOM      9  O   UNL d   1      50.496  33.937  51.600  0.00  0.00    -0.198 OA
BRANCH   7  10
ATOM     10  N   UNL d   1      49.867  34.751  52.880  0.00  0.00    -0.155 NA
BRANCH  10  11
ATOM     11  C   UNL d   1      49.164  35.187  52.790  0.00  0.00     0.138 C 
BRANCH  11  12
ATOM     12  C   UNL d   1      48.825  35.549  53.443  0.00  0.00     0.138 C 
BRANCH  12  13
ATOM     13  O   UNL d   1      48.379  36.244  53.352  0.00  0.00    -0.325 OA
ATOM     14  C   UNL d   1      47.872  36.497  53.946  0.00  0.00     0.182 C 
ENDBRANCH  12  13
ENDBRANCH  11  12
ENDBRANCH  10  11
ENDBRANCH   7  10
ENDBRANCH   1   7
BRANCH   2  15
ATOM     15  C   UNL d   1      52.964  33.817  53.951  0.00  0.00     0.000 A 
ATOM     16  C   UNL d   1      53.161  34.316  54.577  0.00  0.00     0.000 A 
ATOM     17  C   UNL d   1      53.856  34.194  55.006  0.00  0.00     0.000 A 
ATOM     18  C   UNL d   1      54.359  33.558  54.800  0.00  0.00     0.000 A 
ATOM     19  C   UNL d   1      54.162  33.058  54.174  0.00  0.00     0.000 A 
ATOM     20  C   UNL d   1      55.055  33.432  55.228  0.00  0.00     0.000 C 
ATOM     21  C   UNL d   1      53.466  33.184  53.747  0.00  0.00     0.000 A 
ENDBRANCH   2  15
TORSDOF 6
ENDMDL
MODEL 3
REMARK VINA RESULT:      -7.5      2.702      3.581
REMARK  6 active torsions:
REMARK  status: ('A' for Active; 'I' for Inactive)
REMARK    1  A    between atoms: C_2  and  S_1 
REMARK    2  A    between atoms: N_5  and  S_1 
REMARK    3  A    between atoms: C_14  and  N_5 
REMARK    4  A    between atoms: C_7  and  C_6 
REMARK    5  A    between atoms: C_19  and  C_14 
REMARK    6  A    between atoms: O_18  and  C_19 
ROOT
ATOM      1  C   UNL d   1      52.151  33.036  52.955  0.00  0.00     0.105 A 
ATOM      2  C   UNL d   1      50.783  33.960  52.763  0.00  0.00     0.000 A 
ATOM      3  C   UNL d   1      52.172  33.712  52.482  0.00  0.00     0.013 A 
ATOM      4  C   UNL d   1      51.451  32.819  53.332  0.00  0.00     0.013 A 
ATOM      5  C   UNL d   1      50.762  33.284  53.235  0.00  0.00     0.001 A 
ATOM      6  C   UNL d   1      51.484  34.176  52.386  0.00  0.00     0.001 A 
ENDROOT
BRANCH   1   7
ATOM      7  S   UNL d   1      52.829  32.574  53.052  0.00  0.00     0.285 S 
ATOM      8  O   UNL d   1      53.500  32.113  53.145  0.00  0.00    -0.198 OA
ATOM      9  O   UNL d   1      52.594  32.090  52.429  0.00  0.00    -0.198 OA
BRANCH   7  10
ATOM     10  N   UNL d   1      53.067  33.052  53.672  0.00  0.00    -0.155 NA
BRANCH  10  11
ATOM     11  C   UNL d   1      53.772  32.886  54.081  0.00  0.00     0.138 C 
BRANCH  11  12
ATOM     12  C   UNL d   1      54.026  33.391  54.675  0.00  0.00     0.138 C 
BRANCH  12  13
ATOM     13  O   UNL d   1      54.741  33.245  55.072  0.00  0.00    -0.325 OA
ATOM     14  C   UNL d   1      55.156  33.859  55.426  0.00  0.00     0.182 C 
ENDBRANCH  12  13
ENDBRANCH  11  12
ENDBRANCH  10  11
ENDBRANCH   7  10
ENDBRANCH   1   7
BRANCH   2  15
ATOM     15  C   UNL d   1      50.108  34.412  52.671  0.00  0.00     0.000 A 
ATOM     16  C   UNL d   1      49.693  34.390  51.958  0.00  0.00     0.000 A 
ATOM     17  C   UNL d   1      49.010  34.844  51.858  0.00  0.00     0.000 A 
ATOM     18  C   UNL d   1      48.743  35.327  52.486  0.00  0.00     0.000 A 
ATOM     19  C   UNL d   1      49.158  35.349  53.199  0.00  0.00     0.000 A 
ATOM     20  C   UNL d   1      48.060  35.783  52.389  0.00  0.00     0.000 C 
ATOM     21  C   UNL d   1      49.840  34.894  53.295  0.00  0.00     0.000 A 
ENDBRANCH   2  15
TORSDOF 6
ENDMDL
MODEL 4
REMARK VINA RESULT:      -7.4      2.897      3.547
REMARK  6 active torsions:
REMARK  status: ('A' for Active; 'I' for Inactive)
REMARK    1  A    between atoms: C_2  and  S_1 
REMARK    2  A    between atoms: N_5  and  S_1 
REMARK    3  A    between atoms: C_14  and  N_5 
REMARK    4  A    between atoms: C_7  and  C_6 
REMARK    5  A    between atoms: C_19  and  C_14 
REMARK    6  A    between atoms: O_18  and  C_19 
ROOT
ATOM      1  C   UNL d   1      52.083  33.622  53.131  0.00  0.00     0.105 A 
ATOM      2  C   UNL d   1      50.627  34.211  52.587  0.00  0.00     0.000 A 
ATOM      3  C   UNL d   1      52.052  34.076  52.443  0.00  0.00     0.013 A 
ATOM      4  C   UNL d   1      51.390  33.461  53.549  0.00  0.00     0.013 A 
ATOM      5  C   UNL d   1      50.658  33.757  53.276  0.00  0.00     0.001 A 
ATOM      6  C   UNL d   1      51.319  34.372  52.169  0.00  0.00     0.001 A 
ENDROOT
BRANCH   1   7
ATOM      7  S   UNL d   1      52.805  33.328  53.404  0.00  0.00     0.285 S 
ATOM      8  O   UNL d   1      53.522  33.041  53.677  0.00  0.00    -0.198 OA
ATOM      9  O   UNL d   1      53.007  34.075  53.685  0.00  0.00    -0.198 OA
BRANCH   7  10
ATOM     10  N   UNL d   1      52.608  32.584  53.127  0.00  0.00    -0.155 NA
BRANCH  10  11
ATOM     11  C   UNL d   1      53.128  31.945  53.239  0.00  0.00     0.138 C 
BRANCH  11  12
ATOM     12  C   UNL d   1      52.917  31.198  52.976  0.00  0.00     0.138 C 
BRANCH  12  13
ATOM     13  O   UNL d   1      53.301  30.524  53.274  0.00  0.00    -0.325 OA
ATOM     14  C   UNL d   1      52.952  29.783  53.217  0.00  0.00     0.182 C 
ENDBRANCH  12  13
ENDBRANCH  11  12
ENDBRANCH  10  11
ENDBRANCH   7  10
ENDBRANCH   1   7
BRANCH   2  15
ATOM     15  C   UNL d   1      49.908  34.499  52.323  0.00  0.00     0.000 A 
ATOM     16  C   UNL d   1      49.450  34.975  52.817  0.00  0.00     0.000 A 
ATOM     17  C   UNL d   1      48.723  35.269  52.558  0.00  0.00     0.000 A 
ATOM     18  C   UNL d   1      48.455  35.080  51.788  0.00  0.00     0.000 A 
ATOM     19  C   UNL d   1      48.914  34.604  51.293  0.00  0.00     0.000 A 
ATOM     20  C   UNL d   1      47.729  35.373  51.524  0.00  0.00     0.000 C 
ATOM     21  C   UNL d   1      49.640  34.312  51.557  0.00  0.00     0.000 A 
ENDBRANCH   2  15
TORSDOF 6
ENDMDL
MODEL 5
REMARK VINA RESULT:      -7.0      2.503      4.839
REMARK  6 active torsions:
REMARK  status: ('A' for Active; 'I' for Inactive)
REMARK    1  A    between atoms: C_2  and  S_1 
REMARK    2  A    between atoms: N_5  and  S_1 
REMARK    3  A    between atoms: C_14  and  N_5 
REMARK    4  A    between atoms: C_7  and  C_6 
REMARK    5  A    between atoms: C_19  and  C_14 
REMARK    6  A    between atoms: O_18  and  C_19 
ROOT
ATOM      1  C   UNL d   1      54.370  33.131  54.560  0.00  0.00     0.105 A 
ATOM      2  C   UNL d   1      53.748  31.701  53.987  0.00  0.00     0.000 A 
ATOM      3  C   UNL d   1      54.515  32.900  53.781  0.00  0.00     0.013 A 
ATOM      4  C   UNL d   1      53.916  32.651  55.054  0.00  0.00     0.013 A 
ATOM      5  C   UNL d   1      53.603  31.931  54.765  0.00  0.00     0.001 A 
ATOM      6  C   UNL d   1      54.202  32.181  53.493  0.00  0.00     0.001 A 
ENDROOT
BRANCH   1   7
ATOM      7  S   UNL d   1      54.678  33.841  54.848  0.00  0.00     0.285 S 
ATOM      8  O   UNL d   1      54.987  34.543  55.136  0.00  0.00    -0.198 OA
ATOM      9  O   UNL d   1      55.359  33.451  55.094  0.00  0.00    -0.198 OA
BRANCH   7  10
ATOM     10  N   UNL d   1      54.002  34.234  54.606  0.00  0.00    -0.155 NA
BRANCH  10  11
ATOM     11  C   UNL d   1      53.893  35.035  54.800  0.00  0.00     0.138 C 
BRANCH  11  12
ATOM     12  C   UNL d   1      53.271  35.452  54.465  0.00  0.00     0.138 C 
BRANCH  12  13
ATOM     13  O   UNL d   1      53.047  36.191  54.774  0.00  0.00    -0.325 OA
ATOM     14  C   UNL d   1      52.255  36.399  54.830  0.00  0.00     0.182 C 
ENDBRANCH  12  13
ENDBRANCH  11  12
ENDBRANCH  10  11
ENDBRANCH   7  10
ENDBRANCH   1   7
BRANCH   2  15
ATOM     15  C   UNL d   1      53.439  30.996  53.708  0.00  0.00     0.000 A 
ATOM     16  C   UNL d   1      52.948  30.996  53.045  0.00  0.00     0.000 A 
ATOM     17  C   UNL d   1      52.633  30.289  52.758  0.00  0.00     0.000 A 
ATOM     18  C   UNL d   1      52.817  29.570  53.146  0.00  0.00     0.000 A 
ATOM     19  C   UNL d   1      53.308  29.570  53.809  0.00  0.00     0.000 A 
ATOM     20  C   UNL d   1      52.504  28.861  52.862  0.00  0.00     0.000 C 
ATOM     21  C   UNL d   1      53.621  30.280  54.093  0.00  0.00     0.000 A 
ENDBRANCH   2  15
TORSDOF 6
ENDMDL
MODEL 6
REMARK VINA RESULT:      -6.7      2.375      4.700
REMARK  6 active torsions:
REMARK  status: ('A' for Active; 'I' for Inactive)
REMARK    1  A    between atoms: C_2  and  S_1 
REMARK    2  A    between atoms: N_5  and  S_1 
REMARK    3  A    between atoms: C_14  and  N_5 
REMARK    4  A    between atoms: C_7  and  C_6 
REMARK    5  A    between atoms: C_19  and  C_14 
REMARK    6  A    between atoms: O_18  and  C_19 
ROOT
ATOM      1  C   UNL d   1      52.787  33.197  53.298  0.00  0.00     0.105 A 
ATOM      2  C   UNL d   1      53.047  31.602  53.685  0.00  0.00     0.000 A 
ATOM      3  C   UNL d   1      52.557  32.602  52.775  0.00  0.00     0.013 A 
ATOM      4  C   UNL d   1      53.147  32.999  54.013  0.00  0.00     0.013 A 
ATOM      5  C   UNL d   1      53.277  32.197  54.208  0.00  0.00     0.001 A 
ATOM      6  C   UNL d   1      52.687  31.800  52.970  0.00  0.00     0.001 A 
ENDROOT
BRANCH   1   7
ATOM      7  S   UNL d   1      52.660  33.991  53.109  0.00  0.00     0.285 S 
ATOM      8  O   UNL d   1      52.539  34.779  52.921  0.00  0.00    -0.198 OA
ATOM      9  O   UNL d   1      53.469  34.136  53.156  0.00  0.00    -0.198 OA
BRANCH   7  10
ATOM     10  N   UNL d   1      51.856  33.852  53.061  0.00  0.00    -0.155 NA
BRANCH  10  11
ATOM     11  C   UNL d   1      51.327  34.486  52.961  0.00  0.00     0.138 C 
BRANCH  11  12
ATOM     12  C   UNL d   1      50.534  34.336  52.821  0.00  0.00     0.138 C 
BRANCH  12  13
ATOM     13  O   UNL d   1      49.958  34.903  53.016  0.00  0.00    -0.325 OA
ATOM     14  C   UNL d   1      49.230  34.909  52.636  0.00  0.00     0.182 C 
ENDBRANCH  12  13
ENDBRANCH  11  12
ENDBRANCH  10  11
ENDBRANCH   7  10
ENDBRANCH   1   7
BRANCH   2  15
ATOM     15  C   UNL d   1      53.176  30.818  53.880  0.00  0.00     0.000 A 
ATOM     16  C   UNL d   1      53.228  30.250  53.283  0.00  0.00     0.000 A 
ATOM     17  C   UNL d   1      53.359  29.457  53.471  0.00  0.00     0.000 A 
ATOM     18  C   UNL d   1      53.437  29.233  54.273  0.00  0.00     0.000 A 
ATOM     19  C   UNL d   1      53.385  29.800  54.870  0.00  0.00     0.000 A 
ATOM     20  C   UNL d   1      53.568  28.440  54.466  0.00  0.00     0.000 C 
ATOM     21  C   UNL d   1      53.255  30.593  54.678  0.00  0.00     0.000 A 
ENDBRANCH   2  15
TORSDOF 6
ENDMDL
