MODEL 1
REMARK VINA RESULT:      35.8      0.000      0.000
REMARK  3 active torsions:
REMARK  status: ('A' for Active; 'I' for Inactive)
REMARK    1  A    between atoms: S_9  and  C_2 
REMARK    2  A    between atoms: C_15  and  S_9 
REMARK    3  A    between atoms: C_14  and  C_15 
ROOT
ATOM      1  C   UNL d   1     -52.351  24.524  33.342  0.00  0.00     0.119 A 
ATOM      2  C   UNL d   1     -51.850  23.864  33.347  0.00  0.00     0.119 A 
ATOM      3  O   UNL d   1     -53.123  24.248  33.351  0.00  0.00    -0.300 OA
ATOM      4  O   UNL d   1     -52.320  23.190  33.360  0.00  0.00    -0.300 OA
ATOM      5  C   UNL d   1     -53.100  23.430  33.363  0.00  0.00     0.304 A 
ATOM      6  C   UNL d   1     -52.035  25.278  33.329  0.00  0.00     0.027 A 
ATOM      7  C   UNL d   1     -51.043  23.972  33.340  0.00  0.00     0.026 A 
ATOM      8  C   UNL d   1     -51.217  25.385  33.321  0.00  0.00     0.009 A 
ATOM      9  C   UNL d   1     -50.716  24.725  33.327  0.00  0.00     0.003 A 
ENDROOT
BRANCH   8  10
ATOM     10  C   UNL d   1     -50.898  26.142  33.308  0.00  0.00     0.037 C 
BRANCH  10  11
ATOM     11  S   UNL d   1     -50.806  26.571  34.011  0.00  0.00    -0.059 SA
BRANCH  11  12
ATOM     12  C   UNL d   1     -50.103  27.024  34.146  0.00  0.00     0.164 A 
ATOM     13  S   UNL d   1     -49.971  27.799  33.869  0.00  0.00    -0.039 SA
ATOM     14  C   UNL d   1     -49.200  28.033  34.131  0.00  0.00     0.134 A 
ATOM     15  N   UNL d   1     -48.881  27.402  34.558  0.00  0.00    -0.140 NA
ATOM     16  C   UNL d   1     -48.841  28.774  33.976  0.00  0.00     0.030 C 
ATOM     17  N   UNL d   1     -49.435  26.771  34.572  0.00  0.00    -0.134 NA
ENDBRANCH  11  12
ENDBRANCH  10  11
ENDBRANCH   8  10
TORSDOF 3
ENDMDL
