MODEL 1
REMARK VINA RESULT:      51.1      0.000      0.000
REMARK  6 active torsions:
REMARK  status: ('A' for Active; 'I' for Inactive)
REMARK    1  A    between atoms: N_2  and  S_1 
REMARK    2  A    between atoms: C_5  and  S_1 
REMARK    3  A    between atoms: S_8  and  C_3 
REMARK    4  A    between atoms: C_13  and  S_8 
REMARK    5  A    between atoms: C_17  and  C_13 
REMARK    6  A    between atoms: O_21  and  C_15 
ROOT
ATOM      1  N   UNL d   1     -50.428  26.042  33.458  0.00  0.00    -0.208 N 
ATOM      2  C   UNL d   1     -49.687  26.406  33.559  0.00  0.00     0.189 A 
ATOM      3  N   UNL d   1     -49.102  25.827  33.471  0.00  0.00    -0.219 NA
ATOM      4  C   UNL d   1     -50.297  25.234  33.306  0.00  0.00     0.114 A 
ATOM      5  C   UNL d   1     -49.482  25.108  33.316  0.00  0.00     0.121 A 
ENDROOT
BRANCH   1   6
ATOM      6  S   UNL d   1     -51.163  26.421  33.501  0.00  0.00     0.273 S 
ATOM      7  O   UNL d   1     -51.748  27.003  33.557  0.00  0.00    -0.200 OA
ATOM      8  O   UNL d   1     -50.756  27.128  33.549  0.00  0.00    -0.200 OA
BRANCH   6   9
ATOM      9  C   UNL d   1     -51.592  25.716  33.452  0.00  0.00     0.104 A 
ATOM     10  C   UNL d   1     -52.407  25.749  33.353  0.00  0.00     0.015 A 
ATOM     11  C   UNL d   1     -52.830  25.038  33.306  0.00  0.00     0.025 A 
ATOM     12  C   UNL d   1     -52.431  24.313  33.358  0.00  0.00     0.094 A 
ATOM     13  C   UNL d   1     -51.618  24.290  33.457  0.00  0.00     0.025 A 
ATOM     14  C   UNL d   1     -51.195  25.000  33.504  0.00  0.00     0.015 A 
BRANCH  12  15
ATOM     15  O   UNL d   1     -52.862  23.611  33.310  0.00  0.00    -0.328 OA
ATOM     16  C   UNL d   1     -53.028  23.188  34.004  0.00  0.00     0.181 C 
ENDBRANCH  12  15
ENDBRANCH   6   9
ENDBRANCH   1   6
BRANCH   2  17
ATOM     17  S   UNL d   1     -49.559  27.211  33.721  0.00  0.00    -0.049 SA
BRANCH  17  18
ATOM     18  C   UNL d   1     -48.791  27.485  33.851  0.00  0.00     0.038 C 
BRANCH  18  19
ATOM     19  C   UNL d   1     -48.672  28.186  34.265  0.00  0.00     0.009 A 
ATOM     20  C   UNL d   1     -48.067  28.231  34.846  0.00  0.00     0.030 A 
ATOM     21  C   UNL d   1     -47.944  28.927  35.261  0.00  0.00     0.140 A 
ATOM     22  F   UNL d   1     -47.347  28.968  35.833  0.00  0.00    -0.204 F 
ATOM     23  C   UNL d   1     -48.419  29.592  35.108  0.00  0.00     0.030 A 
ATOM     24  C   UNL d   1     -49.013  29.550  34.539  0.00  0.00     0.002 A 
ATOM     25  C   UNL d   1     -49.140  28.845  34.116  0.00  0.00     0.001 A 
ENDBRANCH  18  19
ENDBRANCH  17  18
ENDBRANCH   2  17
TORSDOF 6
ENDMDL
