MODEL 1
REMARK VINA RESULT:      16.1      0.000      0.000
REMARK  4 active torsions:
REMARK  status: ('A' for Active; 'I' for Inactive)
REMARK    1  A    between atoms: S_3  and  N_1 
REMARK    2  A    between atoms: C_7  and  C_4 
REMARK    3  A    between atoms: C_11  and  C_5 
REMARK    4  A    between atoms: O_21  and  C_18 
ROOT
ATOM      1  N   UNL d   1      45.929 -18.020  43.183  0.00  0.00    -0.155 N 
ATOM      2  N   UNL d   1      45.764 -17.217  43.188  0.00  0.00    -0.156 NA
ATOM      3  C   UNL d   1      46.109 -18.254  43.952  0.00  0.00     0.102 A 
ATOM      4  C   UNL d   1      45.837 -16.926  43.956  0.00  0.00     0.104 A 
ATOM      5  C   UNL d   1      46.056 -17.593  44.430  0.00  0.00     0.041 A 
ENDROOT
BRANCH   4   6
ATOM      6  C   UNL d   1      45.725 -16.177  44.203  0.00  0.00     0.020 A 
ATOM      7  C   UNL d   1      46.306 -15.577  44.012  0.00  0.00     0.004 A 
ATOM      8  C   UNL d   1      46.207 -14.813  44.255  0.00  0.00     0.024 A 
ATOM      9  C   UNL d   1      45.538 -14.573  44.704  0.00  0.00     0.094 A 
ATOM     10  C   UNL d   1      44.975 -15.156  44.889  0.00  0.00     0.024 A 
ATOM     11  C   UNL d   1      45.050 -15.943  44.654  0.00  0.00     0.004 A 
BRANCH   9  12
ATOM     12  O   UNL d   1      45.443 -13.773  44.955  0.00  0.00    -0.328 OA
ATOM     13  C   UNL d   1      45.413 -13.179  44.381  0.00  0.00     0.181 C 
ENDBRANCH   9  12
ENDBRANCH   4   6
BRANCH   1  14
ATOM     14  S   UNL d   1      45.911 -18.511  42.493  0.00  0.00     0.266 S 
ATOM     15  O   UNL d   1      45.209 -18.856  42.736  0.00  0.00    -0.203 OA
ATOM     16  O   UNL d   1      45.906 -18.981  41.818  0.00  0.00    -0.203 OA
ATOM     17  C   UNL d   1      46.646 -18.143  42.248  0.00  0.00     0.165 C 
ENDBRANCH   1  14
BRANCH   3  18
ATOM     18  C   UNL d   1      46.310 -19.028  44.192  0.00  0.00     0.048 A 
ATOM     19  S   UNL d   1      46.376 -19.677  43.722  0.00  0.00    -0.085 SA
ATOM     20  C   UNL d   1      46.584 -20.330  44.178  0.00  0.00     0.035 A 
ATOM     21  C   UNL d   1      46.647 -20.082  44.938  0.00  0.00     0.007 A 
ATOM     22  C   UNL d   1      46.480 -19.283  44.954  0.00  0.00     0.009 A 
ENDBRANCH   3  18
TORSDOF 4
ENDMDL
MODEL 2
REMARK VINA RESULT:      16.3      1.077      1.659
REMARK  4 active torsions:
REMARK  status: ('A' for Active; 'I' for Inactive)
REMARK    1  A    between atoms: S_3  and  N_1 
REMARK    2  A    between atoms: C_7  and  C_4 
REMARK    3  A    between atoms: C_11  and  C_5 
REMARK    4  A    between atoms: O_21  and  C_18 
ROOT
ATOM      1  N   UNL d   1      45.982 -18.681  44.139  0.00  0.00    -0.155 N 
ATOM      2  N   UNL d   1      45.827 -18.011  44.586  0.00  0.00    -0.156 NA
ATOM      3  C   UNL d   1      46.119 -18.449  43.360  0.00  0.00     0.102 A 
ATOM      4  C   UNL d   1      45.860 -17.344  44.102  0.00  0.00     0.104 A 
ATOM      5  C   UNL d   1      46.046 -17.635  43.329  0.00  0.00     0.041 A 
ENDROOT
BRANCH   4   6
ATOM      6  C   UNL d   1      45.743 -16.585  44.314  0.00  0.00     0.020 A 
ATOM      7  C   UNL d   1      46.345 -15.999  44.141  0.00  0.00     0.004 A 
ATOM      8  C   UNL d   1      46.242 -15.226  44.349  0.00  0.00     0.024 A 
ATOM      9  C   UNL d   1      45.547 -14.961  44.740  0.00  0.00     0.094 A 
ATOM     10  C   UNL d   1      44.964 -15.529  44.908  0.00  0.00     0.024 A 
ATOM     11  C   UNL d   1      45.042 -16.325  44.707  0.00  0.00     0.004 A 
BRANCH   9  12
ATOM     12  O   UNL d   1      45.447 -14.151  44.954  0.00  0.00    -0.328 OA
ATOM     13  C   UNL d   1      45.853 -13.574  44.525  0.00  0.00     0.181 C 
ENDBRANCH   9  12
ENDBRANCH   4   6
BRANCH   1  14
ATOM     14  S   UNL d   1      45.997 -19.471  44.445  0.00  0.00     0.266 S 
ATOM     15  O   UNL d   1      45.378 -19.689  43.955  0.00  0.00    -0.203 OA
ATOM     16  O   UNL d   1      46.022 -20.233  44.751  0.00  0.00    -0.203 OA
ATOM     17  C   UNL d   1      46.645 -19.230  44.954  0.00  0.00     0.165 C 
ENDBRANCH   1  14
BRANCH   3  18
ATOM     18  C   UNL d   1      46.297 -18.959  42.725  0.00  0.00     0.048 A 
ATOM     19  S   UNL d   1      46.280 -18.779  41.941  0.00  0.00    -0.085 SA
ATOM     20  C   UNL d   1      46.494 -19.439  41.500  0.00  0.00     0.035 A 
ATOM     21  C   UNL d   1      46.646 -20.034  42.015  0.00  0.00     0.007 A 
ATOM     22  C   UNL d   1      46.528 -19.747  42.769  0.00  0.00     0.009 A 
ENDBRANCH   3  18
TORSDOF 4
ENDMDL
