MODEL 1
REMARK VINA RESULT:      40.5      0.000      0.000
REMARK  7 active torsions:
REMARK  status: ('A' for Active; 'I' for Inactive)
REMARK    1  A    between atoms: C_3  and  S_1 
REMARK    2  A    between atoms: N_4  and  S_1 
REMARK    3  A    between atoms: C_6  and  C_2 
REMARK       I    between atoms: N_13  and  C_6 
REMARK    4  A    between atoms: C_17  and  N_13 
REMARK    5  A    between atoms: C_18  and  C_17 
REMARK    6  A    between atoms: C_20  and  C_18 
REMARK    7  A    between atoms: C_19  and  C_20 
ROOT
ATOM      1  C   UNL d   1      60.353  49.011  50.979  0.00  0.00     0.086 A 
ATOM      2  C   UNL d   1      58.980  49.422  51.018  0.00  0.00     0.104 A 
ATOM      3  C   UNL d   1      59.610  49.076  50.614  0.00  0.00     0.020 A 
ATOM      4  C   UNL d   1      60.461  49.293  51.744  0.00  0.00     0.145 A 
ATOM      5  C   UNL d   1      59.088  49.707  51.790  0.00  0.00     0.015 A 
ATOM      6  C   UNL d   1      59.822  49.643  52.150  0.00  0.00     0.030 A 
ATOM      7  F   UNL d   1      61.191  49.234  52.112  0.00  0.00    -0.204 F 
ENDROOT
BRANCH   2   8
ATOM      8  S   UNL d   1      58.234  49.487  50.652  0.00  0.00     0.271 S 
ATOM      9  O   UNL d   1      58.612  49.504  49.913  0.00  0.00    -0.200 OA
ATOM     10  O   UNL d   1      57.870  49.469  51.392  0.00  0.00    -0.200 OA
BRANCH   8  11
ATOM     11  N   UNL d   1      57.503  49.551  50.282  0.00  0.00    -0.229 N 
ATOM     12  C   UNL d   1      57.466  49.644  49.465  0.00  0.00     0.092 A 
ATOM     13  C   UNL d   1      56.730  49.708  49.099  0.00  0.00     0.020 A 
ATOM     14  C   UNL d   1      56.040  49.680  49.539  0.00  0.00     0.003 A 
ATOM     15  C   UNL d   1      56.081  49.586  50.360  0.00  0.00     0.020 A 
ATOM     16  C   UNL d   1      56.817  49.522  50.732  0.00  0.00     0.092 A 
ENDBRANCH   8  11
ENDBRANCH   2   8
BRANCH   1  17
ATOM     17  C   UNL d   1      60.982  48.663  50.570  0.00  0.00     0.281 C 
ATOM     18  O   UNL d   1      61.495  49.144  50.133  0.00  0.00    -0.265 OA
ATOM     19  N   UNL d   1      61.099  47.850  50.596  0.00  0.00    -0.206 NA
BRANCH  19  20
ATOM     20  C   UNL d   1      61.727  47.500  50.188  0.00  0.00     0.102 C 
BRANCH  20  21
ATOM     21  C   UNL d   1      61.722  46.695  50.026  0.00  0.00     0.021 C 
BRANCH  21  22
ATOM     22  C   UNL d   1      62.233  46.391  49.459  0.00  0.00     0.002 C 
BRANCH  22  23
ATOM     23  C   UNL d   1      62.165  45.601  49.223  0.00  0.00     0.000 C 
ATOM     24  C   UNL d   1      61.493  45.168  49.414  0.00  0.00     0.000 C 
ENDBRANCH  22  23
ENDBRANCH  21  22
ENDBRANCH  20  21
ENDBRANCH  19  20
ENDBRANCH   1  17
TORSDOF 7
ENDMDL
