MODEL 1
REMARK VINA RESULT:      81.9      0.000      0.000
REMARK  6 active torsions:
REMARK  status: ('A' for Active; 'I' for Inactive)
REMARK    1  A    between atoms: S_9  and  C_3 
REMARK    2  A    between atoms: C_11  and  C_4 
REMARK    3  A    between atoms: C_20  and  S_9 
REMARK    4  A    between atoms: C_12  and  C_20 
REMARK       I    between atoms: N_17  and  C_12 
REMARK    5  A    between atoms: C_25  and  N_17 
REMARK    6  A    between atoms: C_24  and  C_25 
ROOT
ATOM      1  N   UNL d   1      58.562  49.560  50.002  0.00  0.00    -0.263 N 
ATOM      2  C   UNL d   1      58.675  49.623  49.190  0.00  0.00     0.202 A 
ATOM      3  C   UNL d   1      59.302  49.476  50.355  0.00  0.00     0.202 A 
ATOM      4  C   UNL d   1      57.752  49.605  50.147  0.00  0.00     0.074 A 
ATOM      5  N   UNL d   1      59.475  49.580  49.033  0.00  0.00    -0.121 NA
ATOM      6  N   UNL d   1      59.874  49.488  49.751  0.00  0.00    -0.121 NA
ATOM      7  S   UNL d   1      57.936  49.707  48.833  0.00  0.00    -0.046 SA
ATOM      8  C   UNL d   1      57.366  49.696  49.419  0.00  0.00     0.056 A 
ENDROOT
BRANCH   3   9
ATOM      9  S   UNL d   1      59.369  49.399  51.173  0.00  0.00    -0.043 SA
BRANCH   9  10
ATOM     10  C   UNL d   1      60.098  49.521  51.547  0.00  0.00     0.101 C 
BRANCH  10  11
ATOM     11  C   UNL d   1      60.629  48.898  51.624  0.00  0.00     0.286 C 
ATOM     12  N   UNL d   1      60.401  48.207  52.026  0.00  0.00    -0.206 NA
ATOM     13  O   UNL d   1      61.386  48.961  51.304  0.00  0.00    -0.265 OA
BRANCH  12  14
ATOM     14  C   UNL d   1      60.935  47.578  52.105  0.00  0.00     0.102 C 
BRANCH  14  15
ATOM     15  C   UNL d   1      61.051  47.048  51.473  0.00  0.00     0.021 A 
ATOM     16  C   UNL d   1      61.493  47.262  50.806  0.00  0.00     0.028 A 
ATOM     17  C   UNL d   1      61.595  46.728  50.196  0.00  0.00     0.119 A 
ATOM     18  O   UNL d   1      61.992  46.773  49.483  0.00  0.00    -0.300 OA
ATOM     19  C   UNL d   1      61.260  45.980  50.246  0.00  0.00     0.119 A 
ATOM     20  C   UNL d   1      61.913  46.080  49.091  0.00  0.00     0.304 A 
ATOM     21  O   UNL d   1      61.455  45.575  49.563  0.00  0.00    -0.300 OA
ATOM     22  C   UNL d   1      60.825  45.773  50.906  0.00  0.00     0.026 A 
ATOM     23  C   UNL d   1      60.723  46.318  51.523  0.00  0.00     0.004 A 
ENDBRANCH  14  15
ENDBRANCH  12  14
ENDBRANCH  10  11
ENDBRANCH   9  10
ENDBRANCH   3   9
BRANCH   4  24
ATOM     24  C   UNL d   1      57.350  49.570  50.869  0.00  0.00     0.017 A 
ATOM     25  C   UNL d   1      57.748  49.707  51.570  0.00  0.00     0.002 A 
ATOM     26  C   UNL d   1      57.352  49.672  52.287  0.00  0.00     0.011 A 
ATOM     27  C   UNL d   1      56.539  49.497  52.297  0.00  0.00     0.058 A 
ATOM     28  C   UNL d   1      56.136  49.358  51.588  0.00  0.00     0.011 A 
ATOM     29 CL   UNL d   1      56.129  49.459  53.014  0.00  0.00    -0.082 Cl
ATOM     30  C   UNL d   1      56.543  49.395  50.872  0.00  0.00     0.002 A 
ENDBRANCH   4  24
TORSDOF 6
ENDMDL
MODEL 2
REMARK VINA RESULT:      83.1      1.562      2.321
REMARK  6 active torsions:
REMARK  status: ('A' for Active; 'I' for Inactive)
REMARK    1  A    between atoms: S_9  and  C_3 
REMARK    2  A    between atoms: C_11  and  C_4 
REMARK    3  A    between atoms: C_20  and  S_9 
REMARK    4  A    between atoms: C_12  and  C_20 
REMARK       I    between atoms: N_17  and  C_12 
REMARK    5  A    between atoms: C_25  and  N_17 
REMARK    6  A    between atoms: C_24  and  C_25 
ROOT
ATOM      1  N   UNL d   1      59.851  49.598  51.382  0.00  0.00    -0.263 N 
ATOM      2  C   UNL d   1      60.271  49.613  52.089  0.00  0.00     0.202 A 
ATOM      3  C   UNL d   1      60.394  49.531  50.766  0.00  0.00     0.202 A 
ATOM      4  C   UNL d   1      59.049  49.655  51.565  0.00  0.00     0.074 A 
ATOM      5  N   UNL d   1      61.067  49.556  51.920  0.00  0.00    -0.121 NA
ATOM      6  N   UNL d   1      61.155  49.505  51.100  0.00  0.00    -0.121 NA
ATOM      7  S   UNL d   1      59.730  49.680  52.708  0.00  0.00    -0.046 SA
ATOM      8  C   UNL d   1      58.978  49.706  52.390  0.00  0.00     0.056 A 
ENDROOT
BRANCH   3   9
ATOM      9  S   UNL d   1      60.137  49.502  49.983  0.00  0.00    -0.043 SA
BRANCH   9  10
ATOM     10  C   UNL d   1      60.354  48.870  49.493  0.00  0.00     0.101 C 
BRANCH  10  11
ATOM     11  C   UNL d   1      61.069  48.483  49.616  0.00  0.00     0.286 C 
ATOM     12  N   UNL d   1      61.157  47.691  49.377  0.00  0.00    -0.206 NA
ATOM     13  O   UNL d   1      61.696  48.879  49.975  0.00  0.00    -0.265 OA
BRANCH  12  14
ATOM     14  C   UNL d   1      61.877  47.298  49.499  0.00  0.00     0.102 C 
BRANCH  14  15
ATOM     15  C   UNL d   1      61.898  46.466  49.527  0.00  0.00     0.021 A 
ATOM     16  C   UNL d   1      61.339  46.007  49.123  0.00  0.00     0.028 A 
ATOM     17  C   UNL d   1      61.377  45.191  49.162  0.00  0.00     0.119 A 
ATOM     18  O   UNL d   1      60.918  44.600  48.833  0.00  0.00    -0.300 OA
ATOM     19  C   UNL d   1      61.969  44.829  49.601  0.00  0.00     0.119 A 
ATOM     20  C   UNL d   1      61.206  43.886  49.054  0.00  0.00     0.304 A 
ATOM     21  O   UNL d   1      61.866  44.021  49.537  0.00  0.00    -0.300 OA
ATOM     22  C   UNL d   1      62.518  45.286  49.998  0.00  0.00     0.026 A 
ATOM     23  C   UNL d   1      62.477  46.114  49.956  0.00  0.00     0.004 A 
ENDBRANCH  14  15
ENDBRANCH  12  14
ENDBRANCH  10  11
ENDBRANCH   9  10
ENDBRANCH   3   9
BRANCH   4  24
ATOM     24  C   UNL d   1      58.399  49.665  51.055  0.00  0.00     0.017 A 
ATOM     25  C   UNL d   1      58.508  49.654  50.244  0.00  0.00     0.002 A 
ATOM     26  C   UNL d   1      57.866  49.663  49.737  0.00  0.00     0.011 A 
ATOM     27  C   UNL d   1      57.096  49.684  50.052  0.00  0.00     0.058 A 
ATOM     28  C   UNL d   1      56.983  49.695  50.871  0.00  0.00     0.011 A 
ATOM     29 CL   UNL d   1      56.439  49.693  49.549  0.00  0.00    -0.082 Cl
ATOM     30  C   UNL d   1      57.637  49.685  51.374  0.00  0.00     0.002 A 
ENDBRANCH   4  24
TORSDOF 6
ENDMDL
