MODEL 1
REMARK VINA RESULT:      48.1      0.000      0.000
REMARK  4 active torsions:
REMARK  status: ('A' for Active; 'I' for Inactive)
REMARK    1  A    between atoms: C_8  and  C_1 
REMARK    2  A    between atoms: N_4  and  C_2 
REMARK       I    between atoms: C_6  and  N_4 
REMARK    3  A    between atoms: C_9  and  C_6 
REMARK    4  A    between atoms: O_16  and  C_8 
ROOT
ATOM      1  C   UNL d   1     -51.713  25.712  33.528  0.00  0.00     0.110 A 
ATOM      2  C   UNL d   1     -51.457  24.927  33.412  0.00  0.00     0.096 A 
ATOM      3  S   UNL d   1     -52.498  25.685  33.588  0.00  0.00    -0.080 SA
ATOM      4  C   UNL d   1     -52.087  24.445  33.405  0.00  0.00     0.024 A 
ATOM      5  C   UNL d   1     -52.765  24.904  33.516  0.00  0.00     0.031 A 
ATOM      6  C   UNL d   1     -52.166  23.622  33.313  0.00  0.00     0.002 A 
ATOM      7  C   UNL d   1     -53.502  24.566  33.535  0.00  0.00     0.006 A 
ATOM      8  C   UNL d   1     -52.898  23.282  33.331  0.00  0.00     0.000 A 
ATOM      9  C   UNL d   1     -53.573  23.763  33.444  0.00  0.00     0.001 A 
ENDROOT
BRANCH   2  10
ATOM     10  N   UNL d   1     -50.668  24.688  33.320  0.00  0.00    -0.207 NA
ATOM     11  C   UNL d   1     -50.326  24.182  33.889  0.00  0.00     0.285 C 
ATOM     12  O   UNL d   1     -50.788  23.940  34.524  0.00  0.00    -0.265 OA
BRANCH  11  13
ATOM     13  C   UNL d   1     -49.555  23.932  33.823  0.00  0.00     0.087 A 
ATOM     14  S   UNL d   1     -48.960  24.350  33.437  0.00  0.00    -0.082 SA
ATOM     15  C   UNL d   1     -48.269  23.923  33.489  0.00  0.00     0.036 A 
ATOM     16  C   UNL d   1     -48.444  23.224  33.919  0.00  0.00     0.008 A 
ATOM     17  C   UNL d   1     -49.227  23.234  34.120  0.00  0.00     0.012 A 
ENDBRANCH  11  13
ENDBRANCH   2  10
BRANCH   1  18
ATOM     18  C   UNL d   1     -51.261  26.425  33.577  0.00  0.00     0.303 C 
ATOM     19  O   UNL d   1     -51.661  27.117  33.767  0.00  0.00    -0.259 OA
BRANCH  18  20
ATOM     20  O   UNL d   1     -50.456  26.425  33.439  0.00  0.00    -0.295 OA
ATOM     21  C   UNL d   1     -49.978  27.007  33.750  0.00  0.00     0.185 C 
ENDBRANCH  18  20
ENDBRANCH   1  18
TORSDOF 4
ENDMDL
