MODEL 1
REMARK VINA RESULT:      -4.9      0.000      0.000
REMARK  6 active torsions:
REMARK  status: ('A' for Active; 'I' for Inactive)
REMARK    1  A    between atoms: C_4  and  C_1 
REMARK    2  A    between atoms: C_7  and  C_4 
REMARK    3  A    between atoms: N_10  and  C_7 
REMARK    4  A    between atoms: C_13  and  N_10 
REMARK    5  A    between atoms: O_18  and  C_11 
REMARK    6  A    between atoms: O_20  and  C_15 
ROOT
ATOM      1  C   UNL d   1     -41.431-122.049 -51.750  0.00  0.00     0.122 C 
ATOM      2  C   UNL d   1     -41.289-121.266 -51.541  0.00  0.00     0.106 C 
ATOM      3  N   UNL d   1     -41.146-120.482 -51.331  0.00  0.00    -0.191 NA
ENDROOT
BRANCH   1   4
ATOM      4  C   UNL d   1     -41.551-122.250 -52.541  0.00  0.00     0.159 A 
ATOM      5  N   UNL d   1     -41.833-121.749 -53.135  0.00  0.00    -0.226 NA
ATOM      6  C   UNL d   1     -41.866-122.175 -53.834  0.00  0.00     0.099 A 
ATOM      7  C   UNL d   1     -42.101-121.967 -54.603  0.00  0.00     0.021 A 
ATOM      8  C   UNL d   1     -41.605-122.942 -53.678  0.00  0.00     0.083 A 
ATOM      9  C   UNL d   1     -42.071-122.532 -55.206  0.00  0.00     0.002 A 
ATOM     10  C   UNL d   1     -41.811-123.299 -55.051  0.00  0.00     0.002 A 
ATOM     11  C   UNL d   1     -41.577-123.509 -54.290  0.00  0.00     0.019 A 
ATOM     12  N   UNL d   1     -41.410-122.992 -52.883  0.00  0.00    -0.287 N 
ATOM     13  C   UNL d   1     -41.123-123.660 -52.482  0.00  0.00     0.101 C 
ENDBRANCH   1   4
BRANCH   1  14
ATOM     14  C   UNL d   1     -41.454-122.632 -51.169  0.00  0.00     0.112 C 
BRANCH  14  15
ATOM     15  N   UNL d   1     -42.098-122.678 -50.655  0.00  0.00    -0.241 NA
BRANCH  15  16
ATOM     16  C   UNL d   1     -41.993-122.944 -49.884  0.00  0.00     0.104 A 
ATOM     17  C   UNL d   1     -42.644-123.174 -49.433  0.00  0.00     0.114 A 
ATOM     18  C   UNL d   1     -42.538-123.440 -48.661  0.00  0.00     0.050 A 
ATOM     19  C   UNL d   1     -41.779-123.477 -48.337  0.00  0.00     0.096 A 
ATOM     20  C   UNL d   1     -41.130-123.247 -48.791  0.00  0.00     0.026 A 
ATOM     21  C   UNL d   1     -41.235-122.981 -49.563  0.00  0.00     0.023 A 
BRANCH  17  22
ATOM     22  O   UNL d   1     -43.401-123.137 -49.753  0.00  0.00    -0.327 OA
ATOM     23  C   UNL d   1     -44.031-123.505 -49.369  0.00  0.00     0.181 C 
ENDBRANCH  17  22
BRANCH  19  24
ATOM     24  O   UNL d   1     -41.672-123.743 -47.565  0.00  0.00    -0.328 OA
ATOM     25  C   UNL d   1     -41.414-123.220 -46.974  0.00  0.00     0.181 C 
ENDBRANCH  19  24
ENDBRANCH  15  16
ENDBRANCH  14  15
ENDBRANCH   1  14
TORSDOF 6
ENDMDL
MODEL 2
REMARK VINA RESULT:      -3.3      1.625      5.059
REMARK  6 active torsions:
REMARK  status: ('A' for Active; 'I' for Inactive)
REMARK    1  A    between atoms: C_4  and  C_1 
REMARK    2  A    between atoms: C_7  and  C_4 
REMARK    3  A    between atoms: N_10  and  C_7 
REMARK    4  A    between atoms: C_13  and  N_10 
REMARK    5  A    between atoms: O_18  and  C_11 
REMARK    6  A    between atoms: O_20  and  C_15 
ROOT
ATOM      1  C   UNL d   1     -42.701-122.903 -50.235  0.00  0.00     0.122 C 
ATOM      2  C   UNL d   1     -43.345-122.422 -50.411  0.00  0.00     0.106 C 
ATOM      3  N   UNL d   1     -43.990-121.940 -50.588  0.00  0.00    -0.191 NA
ENDROOT
BRANCH   1   4
ATOM      4  C   UNL d   1     -42.507-123.062 -49.449  0.00  0.00     0.159 A 
ATOM      5  N   UNL d   1     -41.801-122.859 -49.070  0.00  0.00    -0.226 NA
ATOM      6  C   UNL d   1     -41.843-123.122 -48.295  0.00  0.00     0.099 A 
ATOM      7  C   UNL d   1     -41.308-123.077 -47.662  0.00  0.00     0.021 A 
ATOM      8  C   UNL d   1     -42.573-123.490 -48.189  0.00  0.00     0.083 A 
ATOM      9  C   UNL d   1     -41.513-123.402 -46.929  0.00  0.00     0.002 A 
ATOM     10  C   UNL d   1     -42.243-123.770 -46.823  0.00  0.00     0.002 A 
ATOM     11  C   UNL d   1     -42.777-123.817 -47.448  0.00  0.00     0.019 A 
ATOM     12  N   UNL d   1     -42.985-123.455 -48.898  0.00  0.00    -0.287 N 
ATOM     13  C   UNL d   1     -43.745-123.755 -49.047  0.00  0.00     0.101 C 
ENDBRANCH   1   4
BRANCH   1  14
ATOM     14  C   UNL d   1     -42.251-123.225 -50.844  0.00  0.00     0.112 C 
BRANCH  14  15
ATOM     15  N   UNL d   1     -41.726-122.749 -51.267  0.00  0.00    -0.241 NA
BRANCH  15  16
ATOM     16  C   UNL d   1     -41.576-122.903 -52.061  0.00  0.00     0.104 A 
ATOM     17  C   UNL d   1     -41.275-122.310 -52.549  0.00  0.00     0.114 A 
ATOM     18  C   UNL d   1     -41.125-122.466 -53.343  0.00  0.00     0.050 A 
ATOM     19  C   UNL d   1     -41.276-123.216 -53.653  0.00  0.00     0.096 A 
ATOM     20  C   UNL d   1     -41.577-123.807 -53.163  0.00  0.00     0.026 A 
ATOM     21  C   UNL d   1     -41.727-123.653 -52.368  0.00  0.00     0.023 A 
BRANCH  17  22
ATOM     22  O   UNL d   1     -41.124-121.562 -52.242  0.00  0.00    -0.327 OA
ATOM     23  C   UNL d   1     -41.225-120.893 -52.714  0.00  0.00     0.181 C 
ENDBRANCH  17  22
BRANCH  19  24
ATOM     24  O   UNL d   1     -41.127-123.372 -54.448  0.00  0.00    -0.328 OA
ATOM     25  C   UNL d   1     -41.750-123.388 -54.996  0.00  0.00     0.181 C 
ENDBRANCH  19  24
ENDBRANCH  15  16
ENDBRANCH  14  15
ENDBRANCH   1  14
TORSDOF 6
ENDMDL
