MODEL 1
REMARK VINA RESULT:      32.3      0.000      0.000
REMARK  8 active torsions:
REMARK  status: ('A' for Active; 'I' for Inactive)
REMARK    1  A    between atoms: C_10  and  C_3 
REMARK       I    between atoms: N_14  and  C_10 
REMARK    2  A    between atoms: C_12  and  C_13 
REMARK       I    between atoms: N_21  and  C_12 
REMARK    3  A    between atoms: C_29  and  N_14 
REMARK    4  A    between atoms: C_28  and  N_21 
REMARK    5  A    between atoms: O_30  and  C_22 
REMARK    6  A    between atoms: C_23  and  C_31 
REMARK    7  A    between atoms: C_31  and  C_28 
REMARK    8  A    between atoms: C_32  and  O_30 
ROOT
ATOM      1  N   UNL d   1     -41.681-122.369 -52.762  0.00  0.00    -0.277 N 
ATOM      2  C   UNL d   1     -41.607-121.779 -53.346  0.00  0.00     0.163 A 
ATOM      3  C   UNL d   1     -41.731-122.137 -54.080  0.00  0.00     0.124 A 
ATOM      4  C   UNL d   1     -41.850-123.084 -53.144  0.00  0.00     0.152 A 
ATOM      5  N   UNL d   1     -41.438-121.003 -53.129  0.00  0.00    -0.190 NA
ATOM      6  S   UNL d   1     -41.880-122.934 -53.960  0.00  0.00    -0.051 SA
ATOM      7  C   UNL d   1     -41.586-122.179 -51.967  0.00  0.00     0.071 A 
ATOM      8  C   UNL d   1     -41.417-121.402 -51.750  0.00  0.00     0.074 A 
ATOM      9  C   UNL d   1     -41.343-120.812 -52.333  0.00  0.00     0.282 A 
ATOM     10  C   UNL d   1     -41.659-122.766 -51.387  0.00  0.00     0.023 A 
ATOM     11  C   UNL d   1     -41.564-122.574 -50.592  0.00  0.00     0.059 A 
ATOM     12  S   UNL d   1     -41.966-123.812 -52.770  0.00  0.00    -0.052 SA
ATOM     13  C   UNL d   1     -41.321-121.208 -50.951  0.00  0.00     0.006 A 
ATOM     14  O   UNL d   1     -41.171-120.024 -52.110  0.00  0.00    -0.265 OA
ATOM     15  C   UNL d   1     -41.394-121.795 -50.371  0.00  0.00     0.005 A 
ENDROOT
BRANCH  11  16
ATOM     16  C   UNL d   1     -41.637-123.158 -50.014  0.00  0.00     0.279 C 
ATOM     17  O   UNL d   1     -41.133-123.810 -50.020  0.00  0.00    -0.265 OA
ATOM     18  N   UNL d   1     -42.214-123.092 -49.431  0.00  0.00    -0.206 NA
BRANCH  18  19
ATOM     19  C   UNL d   1     -42.719-122.441 -49.426  0.00  0.00     0.102 C 
BRANCH  19  20
ATOM     20  C   UNL d   1     -43.469-122.505 -49.099  0.00  0.00     0.021 C 
BRANCH  20  21
ATOM     21  C   UNL d   1     -44.077-122.012 -49.371  0.00  0.00     0.002 A 
ATOM     22  C   UNL d   1     -44.247-121.989 -50.176  0.00  0.00     0.002 A 
ATOM     23  C   UNL d   1     -44.850-121.502 -50.454  0.00  0.00     0.025 A 
ATOM     24  C   UNL d   1     -45.282-121.037 -49.926  0.00  0.00     0.100 A 
ATOM     25  C   UNL d   1     -45.111-121.060 -49.121  0.00  0.00     0.025 A 
ATOM     26  C   UNL d   1     -44.508-121.547 -48.844  0.00  0.00     0.002 A 
BRANCH  24  27
ATOM     27  O   UNL d   1     -45.887-120.548 -50.207  0.00  0.00    -0.305 OA
BRANCH  27  28
ATOM     28  C   UNL d   1     -46.107-119.880 -49.779  0.00  0.00     0.123 C 
ATOM     29  C   UNL d   1     -46.819-119.489 -49.954  0.00  0.00     0.029 C 
ENDBRANCH  27  28
ENDBRANCH  24  27
ENDBRANCH  20  21
ENDBRANCH  19  20
ENDBRANCH  18  19
ENDBRANCH  11  16
BRANCH   3  30
ATOM     30  C   UNL d   1     -41.707-121.748 -54.810  0.00  0.00     0.288 C 
ATOM     31  N   UNL d   1     -42.219-121.981 -55.416  0.00  0.00    -0.207 NA
ATOM     32  O   UNL d   1     -41.178-121.131 -54.937  0.00  0.00    -0.265 OA
BRANCH  31  33
ATOM     33  C   UNL d   1     -42.198-121.594 -56.147  0.00  0.00     0.085 C 
ATOM     34  C   UNL d   1     -41.506-121.244 -56.409  0.00  0.00     0.021 C 
ATOM     35  C   UNL d   1     -42.878-121.561 -56.616  0.00  0.00     0.021 C 
ENDBRANCH  31  33
ENDBRANCH   3  30
TORSDOF 8
ENDMDL
