MODEL 1
REMARK VINA RESULT:      39.0      0.000      0.000
REMARK  3 active torsions:
REMARK  status: ('A' for Active; 'I' for Inactive)
REMARK    1  A    between atoms: N_10  and  C_3 
REMARK    2  A    between atoms: C_11  and  C_4 
REMARK    3  A    between atoms: C_12  and  N_10 
ROOT
ATOM      1  C   UNL d   1     -51.333  25.295  33.317  0.00  0.00     0.167 A 
ATOM      2  N   UNL d   1     -51.050  26.074  33.314  0.00  0.00    -0.195 N 
ATOM      3  C   UNL d   1     -50.241  26.214  33.310  0.00  0.00     0.167 A 
ATOM      4  C   UNL d   1     -52.150  25.330  33.321  0.00  0.00     0.057 A 
ATOM      5  N   UNL d   1     -51.698  26.571  33.317  0.00  0.00    -0.161 NA
ATOM      6  N   UNL d   1     -50.802  24.669  33.315  0.00  0.00    -0.227 NA
ATOM      7  C   UNL d   1     -49.710  25.577  33.308  0.00  0.00     0.058 A 
ATOM      8  C   UNL d   1     -52.370  26.125  33.321  0.00  0.00     0.124 A 
ATOM      9  C   UNL d   1     -49.987  24.815  33.311  0.00  0.00     0.086 A 
ATOM     10  C   UNL d   1     -49.443  24.188  33.309  0.00  0.00     0.021 C 
ENDROOT
BRANCH   3  11
ATOM     11  N   UNL d   1     -49.958  26.992  33.308  0.00  0.00    -0.227 NA
BRANCH  11  12
ATOM     12  C   UNL d   1     -49.605  27.300  33.983  0.00  0.00     0.083 A 
ATOM     13  C   UNL d   1     -49.645  27.078  34.776  0.00  0.00     0.019 A 
ATOM     14  C   UNL d   1     -49.170  27.595  35.207  0.00  0.00     0.002 A 
ATOM     15  C   UNL d   1     -48.836  28.134  34.692  0.00  0.00     0.002 A 
ATOM     16  C   UNL d   1     -49.100  27.960  33.927  0.00  0.00     0.019 A 
ENDBRANCH  11  12
ENDBRANCH   3  11
BRANCH   4  17
ATOM     17  C   UNL d   1     -52.598  24.635  33.324  0.00  0.00     0.004 A 
ATOM     18  C   UNL d   1     -52.227  23.909  33.344  0.00  0.00     0.000 A 
ATOM     19  C   UNL d   1     -52.674  23.211  33.347  0.00  0.00     0.000 A 
ATOM     20  C   UNL d   1     -53.502  23.258  33.329  0.00  0.00     0.000 A 
ATOM     21  C   UNL d   1     -53.870  23.995  33.309  0.00  0.00     0.000 A 
ATOM     22  C   UNL d   1     -53.421  24.677  33.306  0.00  0.00     0.000 A 
ENDBRANCH   4  17
TORSDOF 3
ENDMDL
MODEL 2
REMARK VINA RESULT:      40.5      0.664      1.582
REMARK  3 active torsions:
REMARK  status: ('A' for Active; 'I' for Inactive)
REMARK    1  A    between atoms: N_10  and  C_3 
REMARK    2  A    between atoms: C_11  and  C_4 
REMARK    3  A    between atoms: C_12  and  N_10 
ROOT
ATOM      1  C   UNL d   1     -51.258  25.651  33.329  0.00  0.00     0.167 A 
ATOM      2  N   UNL d   1     -50.465  25.895  33.333  0.00  0.00    -0.195 N 
ATOM      3  C   UNL d   1     -50.285  26.696  33.328  0.00  0.00     0.167 A 
ATOM      4  C   UNL d   1     -51.264  24.834  33.335  0.00  0.00     0.057 A 
ATOM      5  N   UNL d   1     -50.001  25.222  33.341  0.00  0.00    -0.161 NA
ATOM      6  N   UNL d   1     -51.856  26.213  33.320  0.00  0.00    -0.227 NA
ATOM      7  C   UNL d   1     -50.894  27.258  33.319  0.00  0.00     0.058 A 
ATOM      8  C   UNL d   1     -50.481  24.574  33.343  0.00  0.00     0.124 A 
ATOM      9  C   UNL d   1     -51.669  27.019  33.315  0.00  0.00     0.086 A 
ATOM     10  C   UNL d   1     -52.268  27.595  33.306  0.00  0.00     0.021 C 
ENDROOT
BRANCH   3  11
ATOM     11  N   UNL d   1     -49.494  26.939  33.332  0.00  0.00    -0.227 NA
BRANCH  11  12
ATOM     12  C   UNL d   1     -49.255  27.545  33.833  0.00  0.00     0.083 A 
ATOM     13  C   UNL d   1     -49.290  28.365  33.762  0.00  0.00     0.019 A 
ATOM     14  C   UNL d   1     -48.965  28.692  34.445  0.00  0.00     0.002 A 
ATOM     15  C   UNL d   1     -48.730  28.085  34.939  0.00  0.00     0.002 A 
ATOM     16  C   UNL d   1     -48.906  27.366  34.568  0.00  0.00     0.019 A 
ENDBRANCH  11  12
ENDBRANCH   3  11
BRANCH   4  17
ATOM     17  C   UNL d   1     -51.980  24.421  33.333  0.00  0.00     0.004 A 
ATOM     18  C   UNL d   1     -51.983  23.606  33.309  0.00  0.00     0.000 A 
ATOM     19  C   UNL d   1     -52.699  23.189  33.307  0.00  0.00     0.000 A 
ATOM     20  C   UNL d   1     -53.414  23.610  33.329  0.00  0.00     0.000 A 
ATOM     21  C   UNL d   1     -53.405  24.433  33.353  0.00  0.00     0.000 A 
ATOM     22  C   UNL d   1     -52.693  24.834  33.355  0.00  0.00     0.000 A 
ENDBRANCH   4  17
TORSDOF 3
ENDMDL
