MODEL 1
REMARK VINA RESULT:      14.6      0.000      0.000
REMARK  1 active torsions:
REMARK  status: ('A' for Active; 'I' for Inactive)
REMARK    1  A    between atoms: C_9  and  C_3 
ROOT
ATOM      1  C   UNL d   1     -58.245 -98.758 -44.379  0.00  0.00     0.171 A 
ATOM      2  N   UNL d   1     -58.692 -98.757 -43.686  0.00  0.00    -0.212 N 
ATOM      3  C   UNL d   1     -57.419 -98.758 -44.340  0.00  0.00     0.121 A 
ATOM      4  N   UNL d   1     -58.313 -98.756 -42.953  0.00  0.00    -0.162 NA
ATOM      5  N   UNL d   1     -58.620 -98.760 -45.112  0.00  0.00    -0.226 NA
ATOM      6  C   UNL d   1     -59.514 -98.757 -43.725  0.00  0.00     0.086 A 
ATOM      7  C   UNL d   1     -57.487 -98.756 -42.914  0.00  0.00     0.130 A 
ATOM      8  C   UNL d   1     -59.893 -98.758 -44.458  0.00  0.00     0.038 A 
ATOM      9  C   UNL d   1     -59.446 -98.760 -45.151  0.00  0.00     0.085 A 
ATOM     10  C   UNL d   1     -59.960 -98.756 -43.031  0.00  0.00     0.021 C 
ATOM     11  C   UNL d   1     -59.825 -98.761 -45.884  0.00  0.00     0.021 C 
ENDROOT
BRANCH   3  12
ATOM     12  C   UNL d   1     -56.812 -98.760 -44.901  0.00  0.00     0.215 C 
ATOM     13  O   UNL d   1     -56.025 -98.764 -44.650  0.00  0.00    -0.644 OA
ATOM     14  O   UNL d   1     -56.991 -98.756 -45.707  0.00  0.00    -0.644 OA
ENDBRANCH   3  12
TORSDOF 1
ENDMDL
