MODEL 1
REMARK VINA RESULT:      -2.6      0.000      0.000
REMARK  0 active torsions:
REMARK  status: ('A' for Active; 'I' for Inactive)
ROOT
ATOM      1  N   UNL d   1      32.713  22.183 -20.069  0.00  0.00    -0.183 NA
ATOM      2  C   UNL d   1      32.432  22.901 -20.365  0.00  0.00     0.339 A 
ATOM      3  N   UNL d   1      32.397  22.339 -21.673  0.00  0.00    -0.201 NA
ATOM      4  C   UNL d   1      32.275  22.979 -21.160  0.00  0.00     0.337 A 
ATOM      5  C   UNL d   1      32.836  21.545 -20.576  0.00  0.00     0.184 A 
ATOM      6  C   UNL d   1      32.679  21.622 -21.371  0.00  0.00     0.121 A 
ATOM      7  N   UNL d   1      33.118  20.828 -20.281  0.00  0.00    -0.223 NA
ATOM      8  C   UNL d   1      32.801  20.983 -21.884  0.00  0.00     0.031 A 
ATOM      9  O   UNL d   1      32.307  23.547 -19.857  0.00  0.00    -0.260 OA
ATOM     10  O   UNL d   1      31.990  23.702 -21.460  0.00  0.00    -0.260 OA
ATOM     11  C   UNL d   1      33.084  20.265 -21.583  0.00  0.00     0.055 A 
ATOM     12  C   UNL d   1      33.241  20.188 -20.788  0.00  0.00     0.107 A 
ATOM     13 BR   UNL d   1      33.209  19.623 -22.084  0.00  0.00    -0.048 Br
ENDROOT
TORSDOF 0
ENDMDL
MODEL 2
REMARK VINA RESULT:      -2.6      5.849      6.588
REMARK  0 active torsions:
REMARK  status: ('A' for Active; 'I' for Inactive)
ROOT
ATOM      1  N   UNL d   1      30.822  17.609 -24.496  0.00  0.00    -0.183 NA
ATOM      2  C   UNL d   1      31.593  17.516 -24.214  0.00  0.00     0.339 A 
ATOM      3  N   UNL d   1      31.185  16.343 -23.515  0.00  0.00    -0.201 NA
ATOM      4  C   UNL d   1      31.773  16.888 -23.727  0.00  0.00     0.337 A 
ATOM      5  C   UNL d   1      30.235  17.069 -24.288  0.00  0.00     0.184 A 
ATOM      6  C   UNL d   1      30.415  16.442 -23.801  0.00  0.00     0.121 A 
ATOM      7  N   UNL d   1      29.465  17.162 -24.571  0.00  0.00    -0.223 NA
ATOM      8  C   UNL d   1      29.828  15.897 -23.589  0.00  0.00     0.031 A 
ATOM      9  O   UNL d   1      32.187  18.058 -24.422  0.00  0.00    -0.260 OA
ATOM     10  O   UNL d   1      32.550  16.792 -23.441  0.00  0.00    -0.260 OA
ATOM     11  C   UNL d   1      29.057  15.995 -23.876  0.00  0.00     0.055 A 
ATOM     12  C   UNL d   1      28.877  16.622 -24.362  0.00  0.00     0.107 A 
ATOM     13 BR   UNL d   1      28.465  15.458 -23.671  0.00  0.00    -0.048 Br
ENDROOT
TORSDOF 0
ENDMDL
MODEL 3
REMARK VINA RESULT:      -2.5      5.893      6.385
REMARK  0 active torsions:
REMARK  status: ('A' for Active; 'I' for Inactive)
ROOT
ATOM      1  N   UNL d   1      29.938  16.243 -23.972  0.00  0.00    -0.183 NA
ATOM      2  C   UNL d   1      29.295  16.601 -24.347  0.00  0.00     0.339 A 
ATOM      3  N   UNL d   1      30.133  17.692 -24.719  0.00  0.00    -0.201 NA
ATOM      4  C   UNL d   1      29.391  17.320 -24.718  0.00  0.00     0.337 A 
ATOM      5  C   UNL d   1      30.675  16.609 -23.972  0.00  0.00     0.184 A 
ATOM      6  C   UNL d   1      30.772  17.328 -24.342  0.00  0.00     0.121 A 
ATOM      7  N   UNL d   1      31.318  16.251 -23.597  0.00  0.00    -0.223 NA
ATOM      8  C   UNL d   1      31.512  17.700 -24.344  0.00  0.00     0.031 A 
ATOM      9  O   UNL d   1      28.549  16.234 -24.350  0.00  0.00    -0.260 OA
ATOM     10  O   UNL d   1      28.744  17.684 -25.097  0.00  0.00    -0.260 OA
ATOM     11  C   UNL d   1      32.154  17.336 -23.966  0.00  0.00     0.055 A 
ATOM     12  C   UNL d   1      32.057  16.617 -23.596  0.00  0.00     0.107 A 
ATOM     13 BR   UNL d   1      32.895  17.697 -23.962  0.00  0.00    -0.048 Br
ENDROOT
TORSDOF 0
ENDMDL
MODEL 4
REMARK VINA RESULT:      -2.5      2.241      2.846
REMARK  0 active torsions:
REMARK  status: ('A' for Active; 'I' for Inactive)
ROOT
ATOM      1  N   UNL d   1      32.605  22.245 -20.588  0.00  0.00    -0.183 NA
ATOM      2  C   UNL d   1      32.164  22.610 -21.185  0.00  0.00     0.339 A 
ATOM      3  N   UNL d   1      31.900  23.702 -20.309  0.00  0.00    -0.201 NA
ATOM      4  C   UNL d   1      31.815  23.332 -21.047  0.00  0.00     0.337 A 
ATOM      5  C   UNL d   1      32.691  22.610 -19.854  0.00  0.00     0.184 A 
ATOM      6  C   UNL d   1      32.342  23.332 -19.716  0.00  0.00     0.121 A 
ATOM      7  N   UNL d   1      33.131  22.246 -19.258  0.00  0.00    -0.223 NA
ATOM      8  C   UNL d   1      32.427  23.702 -18.980  0.00  0.00     0.031 A 
ATOM      9  O   UNL d   1      32.075  22.245 -21.926  0.00  0.00    -0.260 OA
ATOM     10  O   UNL d   1      31.370  23.702 -21.647  0.00  0.00    -0.260 OA
ATOM     11  C   UNL d   1      32.869  23.333 -18.385  0.00  0.00     0.055 A 
ATOM     12  C   UNL d   1      33.219  22.610 -18.523  0.00  0.00     0.107 A 
ATOM     13 BR   UNL d   1      32.960  23.692 -17.649  0.00  0.00    -0.048 Br
ENDROOT
TORSDOF 0
ENDMDL
MODEL 5
REMARK VINA RESULT:      -2.5      5.487      6.105
REMARK  0 active torsions:
REMARK  status: ('A' for Active; 'I' for Inactive)
ROOT
ATOM      1  N   UNL d   1      32.019  16.632 -23.375  0.00  0.00    -0.183 NA
ATOM      2  C   UNL d   1      32.417  17.298 -23.659  0.00  0.00     0.339 A 
ATOM      3  N   UNL d   1      31.245  17.678 -24.376  0.00  0.00    -0.201 NA
ATOM      4  C   UNL d   1      32.033  17.817 -24.156  0.00  0.00     0.337 A 
ATOM      5  C   UNL d   1      31.237  16.491 -23.591  0.00  0.00     0.184 A 
ATOM      6  C   UNL d   1      30.853  17.009 -24.088  0.00  0.00     0.121 A 
ATOM      7  N   UNL d   1      30.841  15.825 -23.307  0.00  0.00    -0.223 NA
ATOM      8  C   UNL d   1      30.067  16.871 -24.308  0.00  0.00     0.031 A 
ATOM      9  O   UNL d   1      33.205  17.444 -23.443  0.00  0.00    -0.260 OA
ATOM     10  O   UNL d   1      32.432  18.490 -24.445  0.00  0.00    -0.260 OA
ATOM     11  C   UNL d   1      29.673  16.201 -24.020  0.00  0.00     0.055 A 
ATOM     12  C   UNL d   1      30.057  15.683 -23.523  0.00  0.00     0.107 A 
ATOM     13 BR   UNL d   1      28.890  16.054 -24.233  0.00  0.00    -0.048 Br
ENDROOT
TORSDOF 0
ENDMDL
MODEL 6
REMARK VINA RESULT:      -2.3      2.032      2.669
REMARK  0 active torsions:
REMARK  status: ('A' for Active; 'I' for Inactive)
ROOT
ATOM      1  N   UNL d   1      32.014  22.225 -21.055  0.00  0.00    -0.183 NA
ATOM      2  C   UNL d   1      32.241  21.458 -20.846  0.00  0.00     0.339 A 
ATOM      3  N   UNL d   1      33.084  21.406 -21.993  0.00  0.00    -0.201 NA
ATOM      4  C   UNL d   1      32.771  21.052 -21.311  0.00  0.00     0.337 A 
ATOM      5  C   UNL d   1      32.322  22.580 -21.731  0.00  0.00     0.184 A 
ATOM      6  C   UNL d   1      32.853  22.174 -22.197  0.00  0.00     0.121 A 
ATOM      7  N   UNL d   1      32.096  23.346 -21.939  0.00  0.00    -0.223 NA
ATOM      8  C   UNL d   1      33.165  22.526 -22.878  0.00  0.00     0.031 A 
ATOM      9  O   UNL d   1      31.932  21.098 -20.164  0.00  0.00    -0.260 OA
ATOM     10  O   UNL d   1      33.002  20.279 -21.103  0.00  0.00    -0.260 OA
ATOM     11  C   UNL d   1      32.934  23.295 -23.083  0.00  0.00     0.055 A 
ATOM     12  C   UNL d   1      32.404  23.702 -22.617  0.00  0.00     0.107 A 
ATOM     13 BR   UNL d   1      33.239  23.656 -23.759  0.00  0.00    -0.048 Br
ENDROOT
TORSDOF 0
ENDMDL
MODEL 7
REMARK VINA RESULT:      -2.3      2.307      2.869
REMARK  0 active torsions:
REMARK  status: ('A' for Active; 'I' for Inactive)
ROOT
ATOM      1  N   UNL d   1      32.934  20.190 -21.294  0.00  0.00    -0.183 NA
ATOM      2  C   UNL d   1      33.066  19.835 -22.028  0.00  0.00     0.339 A 
ATOM      3  N   UNL d   1      33.019  21.118 -22.645  0.00  0.00    -0.201 NA
ATOM      4  C   UNL d   1      33.108  20.295 -22.699  0.00  0.00     0.337 A 
ATOM      5  C   UNL d   1      32.845  21.007 -21.237  0.00  0.00     0.184 A 
ATOM      6  C   UNL d   1      32.888  21.467 -21.908  0.00  0.00     0.121 A 
ATOM      7  N   UNL d   1      32.714  21.361 -20.503  0.00  0.00    -0.223 NA
ATOM      8  C   UNL d   1      32.799  22.290 -21.855  0.00  0.00     0.031 A 
ATOM      9  O   UNL d   1      33.156  19.012 -22.089  0.00  0.00    -0.260 OA
ATOM     10  O   UNL d   1      33.241  19.940 -23.441  0.00  0.00    -0.260 OA
ATOM     11  C   UNL d   1      32.667  22.640 -21.116  0.00  0.00     0.055 A 
ATOM     12  C   UNL d   1      32.625  22.180 -20.446  0.00  0.00     0.107 A 
ATOM     13 BR   UNL d   1      32.577  23.457 -21.053  0.00  0.00    -0.048 Br
ENDROOT
TORSDOF 0
ENDMDL
MODEL 8
REMARK VINA RESULT:      -2.1      1.631      2.324
REMARK  0 active torsions:
REMARK  status: ('A' for Active; 'I' for Inactive)
ROOT
ATOM      1  N   UNL d   1      33.066  21.297 -22.399  0.00  0.00    -0.183 NA
ATOM      2  C   UNL d   1      33.109  21.571 -21.620  0.00  0.00     0.339 A 
ATOM      3  N   UNL d   1      33.240  20.228 -21.165  0.00  0.00    -0.201 NA
ATOM      4  C   UNL d   1      33.195  21.041 -21.009  0.00  0.00     0.337 A 
ATOM      5  C   UNL d   1      33.110  20.490 -22.558  0.00  0.00     0.184 A 
ATOM      6  C   UNL d   1      33.196  19.960 -21.946  0.00  0.00     0.121 A 
ATOM      7  N   UNL d   1      33.067  20.217 -23.336  0.00  0.00    -0.223 NA
ATOM      8  C   UNL d   1      33.241  19.147 -22.102  0.00  0.00     0.031 A 
ATOM      9  O   UNL d   1      33.065  22.385 -21.456  0.00  0.00    -0.260 OA
ATOM     10  O   UNL d   1      33.238  21.315 -20.222  0.00  0.00    -0.260 OA
ATOM     11  C   UNL d   1      33.198  18.878 -22.884  0.00  0.00     0.055 A 
ATOM     12  C   UNL d   1      33.112  19.408 -23.496  0.00  0.00     0.107 A 
ATOM     13 BR   UNL d   1      33.241  18.072 -23.050  0.00  0.00    -0.048 Br
ENDROOT
TORSDOF 0
ENDMDL
MODEL 9
REMARK VINA RESULT:      -2.0      6.955      7.429
REMARK  0 active torsions:
REMARK  status: ('A' for Active; 'I' for Inactive)
ROOT
ATOM      1  N   UNL d   1      29.836  15.490 -24.529  0.00  0.00    -0.183 NA
ATOM      2  C   UNL d   1      29.321  15.496 -23.884  0.00  0.00     0.339 A 
ATOM      3  N   UNL d   1      30.439  15.578 -23.005  0.00  0.00    -0.201 NA
ATOM      4  C   UNL d   1      29.620  15.540 -23.128  0.00  0.00     0.337 A 
ATOM      5  C   UNL d   1      30.651  15.527 -24.411  0.00  0.00     0.184 A 
ATOM      6  C   UNL d   1      30.949  15.571 -23.655  0.00  0.00     0.121 A 
ATOM      7  N   UNL d   1      31.165  15.520 -25.056  0.00  0.00    -0.223 NA
ATOM      8  C   UNL d   1      31.768  15.609 -23.531  0.00  0.00     0.031 A 
ATOM      9  O   UNL d   1      28.499  15.458 -23.999  0.00  0.00    -0.260 OA
ATOM     10  O   UNL d   1      29.101  15.547 -22.474  0.00  0.00    -0.260 OA
ATOM     11  C   UNL d   1      32.280  15.602 -24.183  0.00  0.00     0.055 A 
ATOM     12  C   UNL d   1      31.982  15.558 -24.938  0.00  0.00     0.107 A 
ATOM     13 BR   UNL d   1      33.096  15.640 -24.071  0.00  0.00    -0.048 Br
ENDROOT
TORSDOF 0
ENDMDL
