MODEL 1
REMARK VINA RESULT:      50.3      0.000      0.000
REMARK  5 active torsions:
REMARK  status: ('A' for Active; 'I' for Inactive)
REMARK    1  A    between atoms: C_3  and  C_1 
REMARK    2  A    between atoms: C_6  and  C_1 
REMARK    3  A    between atoms: C_2  and  C_3 
REMARK       I    between atoms: N_4  and  C_2 
REMARK    4  A    between atoms: C_12  and  N_4 
REMARK    5  A    between atoms: N_7  and  C_5 
ROOT
ATOM      1  C   UNL d   1     -50.661  26.939  33.839  0.00  0.00     0.328 C 
ATOM      2  N   UNL d   1     -50.036  27.357  34.177  0.00  0.00    -0.365 NA
ATOM      3  O   UNL d   1     -51.375  27.320  33.681  0.00  0.00    -0.251 OA
ENDROOT
BRANCH   1   4
ATOM      4  C   UNL d   1     -50.570  26.141  33.661  0.00  0.00     0.076 C 
BRANCH   4   5
ATOM      5  C   UNL d   1     -51.233  25.680  33.497  0.00  0.00     0.007 C 
BRANCH   5   6
ATOM      6  C   UNL d   1     -51.160  24.858  33.433  0.00  0.00     0.011 A 
ATOM      7  C   UNL d   1     -51.839  24.386  33.374  0.00  0.00     0.058 A 
ATOM      8 CL   UNL d   1     -52.586  24.734  33.378  0.00  0.00    -0.082 Cl
ATOM      9  C   UNL d   1     -51.764  23.562  33.310  0.00  0.00     0.011 A 
ATOM     10  C   UNL d   1     -51.014  23.216  33.306  0.00  0.00     0.001 A 
ATOM     11  C   UNL d   1     -50.344  23.694  33.365  0.00  0.00     0.000 A 
ATOM     12  C   UNL d   1     -50.414  24.511  33.429  0.00  0.00     0.001 A 
ENDBRANCH   5   6
ENDBRANCH   4   5
ENDBRANCH   1   4
BRANCH   2  13
ATOM     13  C   UNL d   1     -49.412  27.774  34.514  0.00  0.00     0.135 A 
ATOM     14  C   UNL d   1     -48.743  27.944  34.058  0.00  0.00     0.034 A 
ATOM     15  C   UNL d   1     -48.119  28.361  34.395  0.00  0.00     0.020 A 
ATOM     16  C   UNL d   1     -48.164  28.609  35.188  0.00  0.00     0.064 A 
ATOM     17  C   UNL d   1     -48.832  28.438  35.638  0.00  0.00     0.020 A 
ATOM     18  C   UNL d   1     -49.456  28.020  35.300  0.00  0.00     0.034 A 
BRANCH  16  19
ATOM     19  N   UNL d   1     -47.532  29.031  35.526  0.00  0.00    -0.301 N 
ATOM     20  C   UNL d   1     -47.664  29.785  35.840  0.00  0.00     0.100 C 
ATOM     21  C   UNL d   1     -46.779  28.695  35.545  0.00  0.00     0.100 C 
ENDBRANCH  16  19
ENDBRANCH   2  13
TORSDOF 5
ENDMDL
MODEL 2
REMARK VINA RESULT:      51.8      1.294      1.841
REMARK  5 active torsions:
REMARK  status: ('A' for Active; 'I' for Inactive)
REMARK    1  A    between atoms: C_3  and  C_1 
REMARK    2  A    between atoms: C_6  and  C_1 
REMARK    3  A    between atoms: C_2  and  C_3 
REMARK       I    between atoms: N_4  and  C_2 
REMARK    4  A    between atoms: C_12  and  N_4 
REMARK    5  A    between atoms: N_7  and  C_5 
ROOT
ATOM      1  C   UNL d   1     -49.070  26.949  34.183  0.00  0.00     0.328 C 
ATOM      2  N   UNL d   1     -48.737  27.631  34.504  0.00  0.00    -0.365 NA
ATOM      3  O   UNL d   1     -48.595  26.295  34.019  0.00  0.00    -0.251 OA
ENDROOT
BRANCH   1   4
ATOM      4  C   UNL d   1     -49.878  26.922  34.028  0.00  0.00     0.076 C 
BRANCH   4   5
ATOM      5  C   UNL d   1     -50.151  26.560  33.340  0.00  0.00     0.007 C 
BRANCH   5   6
ATOM      6  C   UNL d   1     -50.898  26.204  33.329  0.00  0.00     0.011 A 
ATOM      7  C   UNL d   1     -50.962  25.378  33.318  0.00  0.00     0.058 A 
ATOM      8 CL   UNL d   1     -50.283  24.910  33.319  0.00  0.00    -0.082 Cl
ATOM      9  C   UNL d   1     -51.712  25.022  33.306  0.00  0.00     0.011 A 
ATOM     10  C   UNL d   1     -52.390  25.493  33.306  0.00  0.00     0.001 A 
ATOM     11  C   UNL d   1     -52.317  26.315  33.316  0.00  0.00     0.000 A 
ATOM     12  C   UNL d   1     -51.575  26.671  33.328  0.00  0.00     0.001 A 
ENDBRANCH   5   6
ENDBRANCH   4   5
ENDBRANCH   1   4
BRANCH   2  13
ATOM     13  C   UNL d   1     -48.404  28.312  34.823  0.00  0.00     0.135 A 
ATOM     14  C   UNL d   1     -48.712  29.051  34.616  0.00  0.00     0.034 A 
ATOM     15  C   UNL d   1     -48.379  29.732  34.936  0.00  0.00     0.020 A 
ATOM     16  C   UNL d   1     -47.737  29.675  35.464  0.00  0.00     0.064 A 
ATOM     17  C   UNL d   1     -47.434  28.937  35.666  0.00  0.00     0.020 A 
ATOM     18  C   UNL d   1     -47.768  28.255  35.346  0.00  0.00     0.034 A 
BRANCH  16  19
ATOM     19  N   UNL d   1     -47.404  30.364  35.785  0.00  0.00    -0.301 N 
ATOM     20  C   UNL d   1     -47.310  31.034  35.308  0.00  0.00     0.100 C 
ATOM     21  C   UNL d   1     -47.169  30.376  36.576  0.00  0.00     0.100 C 
ENDBRANCH  16  19
ENDBRANCH   2  13
TORSDOF 5
ENDMDL
