MODEL 1
REMARK VINA RESULT:      64.8      0.000      0.000
REMARK  6 active torsions:
REMARK  status: ('A' for Active; 'I' for Inactive)
REMARK    1  A    between atoms: N_5  and  C_1 
REMARK    2  A    between atoms: S_2  and  C_11 
REMARK    3  A    between atoms: N_12  and  S_2 
REMARK    4  A    between atoms: O_8  and  C_4 
REMARK    5  A    between atoms: C_9  and  O_8 
REMARK    6  A    between atoms: C_16  and  C_9 
ROOT
ATOM      1  C   UNL d   1     -48.863  27.242  34.266  0.00  0.00     0.300 C 
ATOM      2  O   UNL d   1     -48.393  26.595  34.097  0.00  0.00    -0.259 OA
ENDROOT
BRANCH   1   3
ATOM      3  O   UNL d   1     -49.661  27.250  34.048  0.00  0.00    -0.271 OA
BRANCH   3   4
ATOM      4  C   UNL d   1     -50.036  26.559  33.804  0.00  0.00     0.132 A 
ATOM      5  C   UNL d   1     -50.852  26.549  33.679  0.00  0.00     0.207 A 
ATOM      6  C   UNL d   1     -51.228  25.856  33.435  0.00  0.00     0.303 A 
ATOM      7  N   UNL d   1     -50.789  25.173  33.315  0.00  0.00    -0.206 NA
ATOM      8  O   UNL d   1     -52.046  25.852  33.311  0.00  0.00    -0.263 OA
ATOM      9  C   UNL d   1     -49.980  25.178  33.437  0.00  0.00     0.087 A 
ATOM     10  C   UNL d   1     -49.604  25.871  33.682  0.00  0.00     0.046 A 
ATOM     11  C   UNL d   1     -49.532  24.485  33.316  0.00  0.00     0.021 C 
BRANCH   5  12
ATOM     12  N   UNL d   1     -51.292  27.241  33.802  0.00  0.00    -0.107 N 
ATOM     13  O   UNL d   1     -51.947  27.224  34.304  0.00  0.00    -0.531 OA
ATOM     14  O   UNL d   1     -51.076  27.941  33.424  0.00  0.00    -0.531 OA
ENDBRANCH   5  12
ENDBRANCH   3   4
ENDBRANCH   1   3
BRANCH   1  15
ATOM     15  C   UNL d   1     -48.537  27.896  34.660  0.00  0.00     0.064 A 
ATOM     16  C   UNL d   1     -47.951  28.331  34.303  0.00  0.00     0.006 A 
ATOM     17  C   UNL d   1     -47.633  28.982  34.705  0.00  0.00     0.013 A 
ATOM     18  C   UNL d   1     -47.911  29.177  35.447  0.00  0.00     0.104 A 
ATOM     19  C   UNL d   1     -48.500  28.739  35.805  0.00  0.00     0.013 A 
ATOM     20  C   UNL d   1     -48.819  28.091  35.410  0.00  0.00     0.006 A 
BRANCH  18  21
ATOM     21  S   UNL d   1     -47.595  29.828  35.853  0.00  0.00     0.271 S 
ATOM     22  O   UNL d   1     -47.279  30.337  36.412  0.00  0.00    -0.200 OA
ATOM     23  O   UNL d   1     -47.625  29.218  36.412  0.00  0.00    -0.200 OA
BRANCH  21  24
ATOM     24  N   UNL d   1     -47.492  30.530  35.450  0.00  0.00    -0.226 N 
ATOM     25  C   UNL d   1     -46.988  31.103  35.742  0.00  0.00     0.111 C 
ATOM     26  C   UNL d   1     -47.905  30.654  34.743  0.00  0.00     0.111 C 
ENDBRANCH  21  24
ENDBRANCH  18  21
ENDBRANCH   1  15
TORSDOF 6
ENDMDL
MODEL 2
REMARK VINA RESULT:      65.3      1.740      4.974
REMARK  6 active torsions:
REMARK  status: ('A' for Active; 'I' for Inactive)
REMARK    1  A    between atoms: N_5  and  C_1 
REMARK    2  A    between atoms: S_2  and  C_11 
REMARK    3  A    between atoms: N_12  and  S_2 
REMARK    4  A    between atoms: O_8  and  C_4 
REMARK    5  A    between atoms: C_9  and  O_8 
REMARK    6  A    between atoms: C_16  and  C_9 
ROOT
ATOM      1  C   UNL d   1     -48.566  28.643  34.432  0.00  0.00     0.300 C 
ATOM      2  O   UNL d   1     -47.836  28.326  34.617  0.00  0.00    -0.259 OA
ENDROOT
BRANCH   1   3
ATOM      3  O   UNL d   1     -48.690  29.460  34.464  0.00  0.00    -0.271 OA
BRANCH   3   4
ATOM      4  C   UNL d   1     -48.196  29.942  34.914  0.00  0.00     0.132 A 
ATOM      5  C   UNL d   1     -48.164  30.755  34.772  0.00  0.00     0.207 A 
ATOM      6  C   UNL d   1     -47.669  31.237  35.223  0.00  0.00     0.303 A 
ATOM      7  N   UNL d   1     -47.207  30.908  35.816  0.00  0.00    -0.206 NA
ATOM      8  O   UNL d   1     -47.641  32.051  35.076  0.00  0.00    -0.263 OA
ATOM      9  C   UNL d   1     -47.235  30.104  35.960  0.00  0.00     0.087 A 
ATOM     10  C   UNL d   1     -47.730  29.621  35.509  0.00  0.00     0.046 A 
ATOM     11  C   UNL d   1     -46.766  29.767  36.563  0.00  0.00     0.021 C 
BRANCH   5  12
ATOM     12  N   UNL d   1     -48.633  31.083  34.172  0.00  0.00    -0.107 N 
ATOM     13  O   UNL d   1     -49.454  31.090  34.256  0.00  0.00    -0.531 OA
ATOM     14  O   UNL d   1     -48.281  31.399  33.497  0.00  0.00    -0.531 OA
ENDBRANCH   5  12
ENDBRANCH   3   4
ENDBRANCH   1   3
BRANCH   1  15
ATOM     15  C   UNL d   1     -49.189  28.141  34.209  0.00  0.00     0.064 A 
ATOM     16  C   UNL d   1     -49.210  27.378  34.486  0.00  0.00     0.006 A 
ATOM     17  C   UNL d   1     -49.836  26.886  34.258  0.00  0.00     0.013 A 
ATOM     18  C   UNL d   1     -50.418  27.171  33.762  0.00  0.00     0.104 A 
ATOM     19  C   UNL d   1     -50.396  27.939  33.485  0.00  0.00     0.013 A 
ATOM     20  C   UNL d   1     -49.776  28.432  33.708  0.00  0.00     0.006 A 
BRANCH  18  21
ATOM     21  S   UNL d   1     -51.047  26.681  33.531  0.00  0.00     0.271 S 
ATOM     22  O   UNL d   1     -51.774  26.375  33.312  0.00  0.00    -0.200 OA
ATOM     23  O   UNL d   1     -51.375  27.438  33.598  0.00  0.00    -0.200 OA
BRANCH  21  24
ATOM     24  N   UNL d   1     -50.904  25.886  33.416  0.00  0.00    -0.226 N 
ATOM     25  C   UNL d   1     -50.141  25.615  33.308  0.00  0.00     0.111 C 
ATOM     26  C   UNL d   1     -51.543  25.359  33.411  0.00  0.00     0.111 C 
ENDBRANCH  21  24
ENDBRANCH  18  21
ENDBRANCH   1  15
TORSDOF 6
ENDMDL
