MODEL 1
REMARK VINA RESULT:      -7.6      0.000      0.000
REMARK  3 active torsions:
REMARK  status: ('A' for Active; 'I' for Inactive)
REMARK    1  A    between atoms: S_6  and  C_1 
REMARK    2  A    between atoms: C_9  and  S_6 
REMARK    3  A    between atoms: C_7  and  C_9 
ROOT
ATOM      1  C   UNL d   1      53.648  32.006  53.763  0.00  0.00     0.137 A 
ATOM      2  N   UNL d   1      53.566  32.144  54.568  0.00  0.00    -0.232 NA
ATOM      3  S   UNL d   1      54.240  32.491  53.475  0.00  0.00    -0.060 SA
ATOM      4  C   UNL d   1      54.103  32.713  54.784  0.00  0.00     0.088 A 
ATOM      5  C   UNL d   1      54.525  32.930  54.101  0.00  0.00     0.049 A 
ATOM      6  C   UNL d   1      54.274  33.066  55.498  0.00  0.00     0.020 A 
ATOM      7  C   UNL d   1      55.107  33.496  54.147  0.00  0.00     0.008 A 
ATOM      8  C   UNL d   1      55.290  33.863  54.869  0.00  0.00     0.001 A 
ATOM      9  C   UNL d   1      54.878  33.651  55.537  0.00  0.00     0.002 A 
ENDROOT
BRANCH   1  10
ATOM     10  S   UNL d   1      53.202  31.469  53.340  0.00  0.00    -0.077 SA
BRANCH  10  11
ATOM     11  C   UNL d   1      53.369  30.660  53.435  0.00  0.00     0.161 C 
BRANCH  11  12
ATOM     12  C   UNL d   1      52.899  30.096  53.044  0.00  0.00     0.197 C 
ATOM     13  O   UNL d   1      52.521  29.487  53.475  0.00  0.00    -0.647 OA
ATOM     14  O   UNL d   1      52.805  30.137  52.237  0.00  0.00    -0.647 OA
ENDBRANCH  11  12
ENDBRANCH  10  11
ENDBRANCH   1  10
TORSDOF 3
ENDMDL
MODEL 2
REMARK VINA RESULT:      -7.4      2.611      3.674
REMARK  3 active torsions:
REMARK  status: ('A' for Active; 'I' for Inactive)
REMARK    1  A    between atoms: S_6  and  C_1 
REMARK    2  A    between atoms: C_9  and  S_6 
REMARK    3  A    between atoms: C_7  and  C_9 
ROOT
ATOM      1  C   UNL d   1      53.347  32.968  53.628  0.00  0.00     0.137 A 
ATOM      2  N   UNL d   1      52.791  32.610  53.142  0.00  0.00    -0.232 NA
ATOM      3  S   UNL d   1      53.819  32.388  53.956  0.00  0.00    -0.060 SA
ATOM      4  C   UNL d   1      52.914  31.807  53.165  0.00  0.00     0.088 A 
ATOM      5  C   UNL d   1      53.557  31.668  53.675  0.00  0.00     0.049 A 
ATOM      6  C   UNL d   1      52.539  31.182  52.801  0.00  0.00     0.020 A 
ATOM      7  C   UNL d   1      53.811  30.907  53.808  0.00  0.00     0.008 A 
ATOM      8  C   UNL d   1      53.437  30.262  53.443  0.00  0.00     0.001 A 
ATOM      9  C   UNL d   1      52.808  30.398  52.945  0.00  0.00     0.002 A 
ENDROOT
BRANCH   1  10
ATOM     10  S   UNL d   1      53.401  33.774  53.748  0.00  0.00    -0.077 SA
BRANCH  10  11
ATOM     11  C   UNL d   1      52.948  34.110  54.360  0.00  0.00     0.161 C 
BRANCH  11  12
ATOM     12  C   UNL d   1      53.011  34.925  54.515  0.00  0.00     0.197 C 
ATOM     13  O   UNL d   1      52.728  35.484  53.961  0.00  0.00    -0.647 OA
ATOM     14  O   UNL d   1      53.349  35.180  55.209  0.00  0.00    -0.647 OA
ENDBRANCH  11  12
ENDBRANCH  10  11
ENDBRANCH   1  10
TORSDOF 3
ENDMDL
MODEL 3
REMARK VINA RESULT:      -7.2      1.797      2.217
REMARK  3 active torsions:
REMARK  status: ('A' for Active; 'I' for Inactive)
REMARK    1  A    between atoms: S_6  and  C_1 
REMARK    2  A    between atoms: C_9  and  S_6 
REMARK    3  A    between atoms: C_7  and  C_9 
ROOT
ATOM      1  C   UNL d   1      53.056  32.107  53.197  0.00  0.00     0.137 A 
ATOM      2  N   UNL d   1      52.425  32.376  52.746  0.00  0.00    -0.232 NA
ATOM      3  S   UNL d   1      53.370  32.739  53.609  0.00  0.00    -0.060 SA
ATOM      4  C   UNL d   1      52.343  33.174  52.874  0.00  0.00     0.088 A 
ATOM      5  C   UNL d   1      52.934  33.401  53.414  0.00  0.00     0.049 A 
ATOM      6  C   UNL d   1      51.822  33.727  52.583  0.00  0.00     0.020 A 
ATOM      7  C   UNL d   1      52.990  34.177  53.650  0.00  0.00     0.008 A 
ATOM      8  C   UNL d   1      52.464  34.751  53.360  0.00  0.00     0.001 A 
ATOM      9  C   UNL d   1      51.887  34.528  52.833  0.00  0.00     0.002 A 
ENDROOT
BRANCH   1  10
ATOM     10  S   UNL d   1      53.311  31.332  53.215  0.00  0.00    -0.077 SA
BRANCH  10  11
ATOM     11  C   UNL d   1      52.737  30.731  53.254  0.00  0.00     0.161 C 
BRANCH  11  12
ATOM     12  C   UNL d   1      52.976  29.944  53.373  0.00  0.00     0.197 C 
ATOM     13  O   UNL d   1      53.774  29.765  53.553  0.00  0.00    -0.647 OA
ATOM     14  O   UNL d   1      52.433  29.342  53.315  0.00  0.00    -0.647 OA
ENDBRANCH  11  12
ENDBRANCH  10  11
ENDBRANCH   1  10
TORSDOF 3
ENDMDL
MODEL 4
REMARK VINA RESULT:      -7.1      2.787      3.092
REMARK  3 active torsions:
REMARK  status: ('A' for Active; 'I' for Inactive)
REMARK    1  A    between atoms: S_6  and  C_1 
REMARK    2  A    between atoms: C_9  and  S_6 
REMARK    3  A    between atoms: C_7  and  C_9 
ROOT
ATOM      1  C   UNL d   1      52.473  34.020  53.433  0.00  0.00     0.137 A 
ATOM      2  N   UNL d   1      52.740  33.245  53.458  0.00  0.00    -0.232 NA
ATOM      3  S   UNL d   1      52.897  34.459  53.976  0.00  0.00    -0.060 SA
ATOM      4  C   UNL d   1      53.329  33.197  54.015  0.00  0.00     0.088 A 
ATOM      5  C   UNL d   1      53.428  33.957  54.339  0.00  0.00     0.049 A 
ATOM      6  C   UNL d   1      53.791  32.579  54.277  0.00  0.00     0.020 A 
ATOM      7  C   UNL d   1      53.985  34.081  54.918  0.00  0.00     0.008 A 
ATOM      8  C   UNL d   1      54.462  33.459  55.192  0.00  0.00     0.001 A 
ATOM      9  C   UNL d   1      54.365  32.716  54.876  0.00  0.00     0.002 A 
ENDROOT
BRANCH   1  10
ATOM     10  S   UNL d   1      51.881  34.287  52.939  0.00  0.00    -0.077 SA
BRANCH  10  11
ATOM     11  C   UNL d   1      51.114  33.984  53.047  0.00  0.00     0.161 C 
BRANCH  11  12
ATOM     12  C   UNL d   1      50.486  34.289  52.595  0.00  0.00     0.197 C 
ATOM     13  O   UNL d   1      50.491  34.222  51.761  0.00  0.00    -0.647 OA
ATOM     14  O   UNL d   1      49.862  34.657  52.965  0.00  0.00    -0.647 OA
ENDBRANCH  11  12
ENDBRANCH  10  11
ENDBRANCH   1  10
TORSDOF 3
ENDMDL
MODEL 5
REMARK VINA RESULT:      -6.8      3.036      3.806
REMARK  3 active torsions:
REMARK  status: ('A' for Active; 'I' for Inactive)
REMARK    1  A    between atoms: S_6  and  C_1 
REMARK    2  A    between atoms: C_9  and  S_6 
REMARK    3  A    between atoms: C_7  and  C_9 
ROOT
ATOM      1  C   UNL d   1      53.005  33.543  53.762  0.00  0.00     0.137 A 
ATOM      2  N   UNL d   1      52.298  33.158  53.922  0.00  0.00    -0.232 NA
ATOM      3  S   UNL d   1      52.868  34.114  53.193  0.00  0.00    -0.060 SA
ATOM      4  C   UNL d   1      51.719  33.486  53.456  0.00  0.00     0.088 A 
ATOM      5  C   UNL d   1      52.076  34.083  53.000  0.00  0.00     0.049 A 
ATOM      6  C   UNL d   1      50.923  33.332  53.376  0.00  0.00     0.020 A 
ATOM      7  C   UNL d   1      51.628  34.514  52.475  0.00  0.00     0.008 A 
ATOM      8  C   UNL d   1      50.816  34.366  52.385  0.00  0.00     0.001 A 
ATOM      9  C   UNL d   1      50.468  33.782  52.831  0.00  0.00     0.002 A 
ENDROOT
BRANCH   1  10
ATOM     10  S   UNL d   1      53.716  33.368  54.123  0.00  0.00    -0.077 SA
BRANCH  10  11
ATOM     11  C   UNL d   1      53.929  33.803  54.799  0.00  0.00     0.161 C 
BRANCH  11  12
ATOM     12  C   UNL d   1      54.614  33.592  55.222  0.00  0.00     0.197 C 
ATOM     13  O   UNL d   1      55.280  34.097  55.230  0.00  0.00    -0.647 OA
ATOM     14  O   UNL d   1      54.637  32.889  55.631  0.00  0.00    -0.647 OA
ENDBRANCH  11  12
ENDBRANCH  10  11
ENDBRANCH   1  10
TORSDOF 3
ENDMDL
