MODEL 1
REMARK VINA RESULT:      -5.9      0.000      0.000
REMARK  5 active torsions:
REMARK  status: ('A' for Active; 'I' for Inactive)
REMARK    1  A    between atoms: C_5  and  S_1 
REMARK    2  A    between atoms: C_12  and  S_1 
REMARK    3  A    between atoms: C_2  and  N_6 
REMARK    4  A    between atoms: C_13  and  C_4 
REMARK    5  A    between atoms: C_7  and  C_5 
REMARK       I    between atoms: N_6  and  C_7 
ROOT
ATOM      1  N   UNL d   1     -41.124-123.173 -51.841  0.00  0.00    -0.182 NA
ATOM      2  C   UNL d   1     -41.519-122.920 -52.519  0.00  0.00     0.293 C 
ATOM      3  O   UNL d   1     -42.151-122.400 -52.475  0.00  0.00    -0.264 OA
ENDROOT
BRANCH   1   4
ATOM      4  C   UNL d   1     -41.368-122.900 -51.104  0.00  0.00     0.197 A 
ATOM      5  N   UNL d   1     -41.654-123.375 -50.480  0.00  0.00    -0.221 NA
ATOM      6  C   UNL d   1     -41.837-122.875 -49.837  0.00  0.00     0.090 A 
ATOM      7  C   UNL d   1     -41.659-122.087 -50.075  0.00  0.00     0.058 A 
ATOM      8  S   UNL d   1     -41.371-122.114 -50.854  0.00  0.00    -0.046 SA
BRANCH   6   9
ATOM      9  C   UNL d   1     -42.136-123.110 -49.105  0.00  0.00     0.018 A 
ATOM     10  C   UNL d   1     -41.623-123.326 -48.510  0.00  0.00     0.004 A 
ATOM     11  C   UNL d   1     -41.910-123.561 -47.782  0.00  0.00     0.030 A 
ATOM     12  C   UNL d   1     -42.725-123.578 -47.648  0.00  0.00     0.140 A 
ATOM     13  C   UNL d   1     -43.248-123.359 -48.249  0.00  0.00     0.030 A 
ATOM     14  F   UNL d   1     -43.022-123.815 -46.912  0.00  0.00    -0.204 F 
ATOM     15  C   UNL d   1     -42.949-123.124 -48.982  0.00  0.00     0.004 A 
ENDBRANCH   6   9
ENDBRANCH   1   4
BRANCH   2  16
ATOM     16  C   UNL d   1     -41.274-123.195 -53.262  0.00  0.00     0.161 C 
BRANCH  16  17
ATOM     17  S   UNL d   1     -41.580-122.855 -53.952  0.00  0.00     0.215 S 
ATOM     18  O   UNL d   1     -41.128-122.164 -53.805  0.00  0.00    -0.217 OA
ATOM     19  O   UNL d   1     -42.024-123.539 -54.092  0.00  0.00    -0.217 OA
BRANCH  17  20
ATOM     20  C   UNL d   1     -41.886-122.514 -54.642  0.00  0.00     0.088 A 
ATOM     21  C   UNL d   1     -41.475-121.918 -55.023  0.00  0.00     0.011 A 
ATOM     22  C   UNL d   1     -41.781-121.578 -55.713  0.00  0.00     0.001 A 
ATOM     23  C   UNL d   1     -42.499-121.843 -56.011  0.00  0.00     0.000 A 
ATOM     24  C   UNL d   1     -42.910-122.439 -55.631  0.00  0.00     0.001 A 
ATOM     25  C   UNL d   1     -42.610-122.779 -54.947  0.00  0.00     0.011 A 
ENDBRANCH  17  20
ENDBRANCH  16  17
ENDBRANCH   2  16
TORSDOF 5
ENDMDL
MODEL 2
REMARK VINA RESULT:      -5.8      2.404      5.835
REMARK  5 active torsions:
REMARK  status: ('A' for Active; 'I' for Inactive)
REMARK    1  A    between atoms: C_5  and  S_1 
REMARK    2  A    between atoms: C_12  and  S_1 
REMARK    3  A    between atoms: C_2  and  N_6 
REMARK    4  A    between atoms: C_13  and  C_4 
REMARK    5  A    between atoms: C_7  and  C_5 
REMARK       I    between atoms: N_6  and  C_7 
ROOT
ATOM      1  N   UNL d   1     -42.314-122.203 -50.821  0.00  0.00    -0.182 NA
ATOM      2  C   UNL d   1     -42.586-122.824 -50.351  0.00  0.00     0.293 C 
ATOM      3  O   UNL d   1     -42.519-123.603 -50.596  0.00  0.00    -0.264 OA
ENDROOT
BRANCH   1   4
ATOM      4  C   UNL d   1     -41.969-122.366 -51.549  0.00  0.00     0.197 A 
ATOM      5  N   UNL d   1     -42.273-122.137 -52.292  0.00  0.00    -0.221 NA
ATOM      6  C   UNL d   1     -41.750-122.415 -52.881  0.00  0.00     0.090 A 
ATOM      7  C   UNL d   1     -41.123-122.817 -52.489  0.00  0.00     0.058 A 
ATOM      8  S   UNL d   1     -41.267-122.781 -51.672  0.00  0.00    -0.046 SA
BRANCH   6   9
ATOM      9  C   UNL d   1     -41.834-122.314 -53.696  0.00  0.00     0.018 A 
ATOM     10  C   UNL d   1     -41.372-122.750 -54.206  0.00  0.00     0.004 A 
ATOM     11  C   UNL d   1     -41.448-122.657 -55.014  0.00  0.00     0.030 A 
ATOM     12  C   UNL d   1     -41.996-122.119 -55.316  0.00  0.00     0.140 A 
ATOM     13  C   UNL d   1     -42.467-121.675 -54.801  0.00  0.00     0.030 A 
ATOM     14  F   UNL d   1     -42.078-122.020 -56.134  0.00  0.00    -0.204 F 
ATOM     15  C   UNL d   1     -42.383-121.776 -53.986  0.00  0.00     0.004 A 
ENDBRANCH   6   9
ENDBRANCH   1   4
BRANCH   2  16
ATOM     16  C   UNL d   1     -42.934-122.660 -49.617  0.00  0.00     0.161 C 
BRANCH  16  17
ATOM     17  S   UNL d   1     -42.572-122.921 -48.919  0.00  0.00     0.215 S 
ATOM     18  O   UNL d   1     -42.337-122.133 -48.753  0.00  0.00    -0.217 OA
ATOM     19  O   UNL d   1     -42.807-123.697 -49.087  0.00  0.00    -0.217 OA
BRANCH  17  20
ATOM     20  C   UNL d   1     -42.211-123.181 -48.220  0.00  0.00     0.088 A 
ATOM     21  C   UNL d   1     -41.484-123.557 -48.251  0.00  0.00     0.011 A 
ATOM     22  C   UNL d   1     -41.123-123.817 -47.552  0.00  0.00     0.001 A 
ATOM     23  C   UNL d   1     -41.498-123.696 -46.832  0.00  0.00     0.000 A 
ATOM     24  C   UNL d   1     -42.224-123.321 -46.802  0.00  0.00     0.001 A 
ATOM     25  C   UNL d   1     -42.586-123.061 -47.492  0.00  0.00     0.011 A 
ENDBRANCH  17  20
ENDBRANCH  16  17
ENDBRANCH   2  16
TORSDOF 5
ENDMDL
MODEL 3
REMARK VINA RESULT:      -5.2      2.346      5.772
REMARK  5 active torsions:
REMARK  status: ('A' for Active; 'I' for Inactive)
REMARK    1  A    between atoms: C_5  and  S_1 
REMARK    2  A    between atoms: C_12  and  S_1 
REMARK    3  A    between atoms: C_2  and  N_6 
REMARK    4  A    between atoms: C_13  and  C_4 
REMARK    5  A    between atoms: C_7  and  C_5 
REMARK       I    between atoms: N_6  and  C_7 
ROOT
ATOM      1  N   UNL d   1     -41.415-122.098 -51.375  0.00  0.00    -0.182 NA
ATOM      2  C   UNL d   1     -41.276-122.621 -50.753  0.00  0.00     0.293 C 
ATOM      3  O   UNL d   1     -41.148-123.419 -50.888  0.00  0.00    -0.264 OA
ENDROOT
BRANCH   1   4
ATOM      4  C   UNL d   1     -41.426-122.379 -52.147  0.00  0.00     0.197 A 
ATOM      5  N   UNL d   1     -41.747-121.980 -52.806  0.00  0.00    -0.221 NA
ATOM      6  C   UNL d   1     -41.641-122.462 -53.479  0.00  0.00     0.090 A 
ATOM      7  C   UNL d   1     -41.250-123.164 -53.224  0.00  0.00     0.058 A 
ATOM      8  S   UNL d   1     -41.123-123.102 -52.405  0.00  0.00    -0.046 SA
BRANCH   6   9
ATOM      9  C   UNL d   1     -41.875-122.285 -54.250  0.00  0.00     0.018 A 
ATOM     10  C   UNL d   1     -42.594-121.925 -54.380  0.00  0.00     0.004 A 
ATOM     11  C   UNL d   1     -42.835-121.745 -55.140  0.00  0.00     0.030 A 
ATOM     12  C   UNL d   1     -42.347-121.929 -55.779  0.00  0.00     0.140 A 
ATOM     13  C   UNL d   1     -41.616-122.295 -55.651  0.00  0.00     0.030 A 
ATOM     14  F   UNL d   1     -42.585-121.750 -56.552  0.00  0.00    -0.204 F 
ATOM     15  C   UNL d   1     -41.382-122.473 -54.880  0.00  0.00     0.004 A 
ENDBRANCH   6   9
ENDBRANCH   1   4
BRANCH   2  16
ATOM     16  C   UNL d   1     -41.265-122.337 -49.974  0.00  0.00     0.161 C 
BRANCH  16  17
ATOM     17  S   UNL d   1     -41.730-122.701 -49.393  0.00  0.00     0.215 S 
ATOM     18  O   UNL d   1     -42.193-122.005 -49.335  0.00  0.00    -0.217 OA
ATOM     19  O   UNL d   1     -41.268-123.387 -49.454  0.00  0.00    -0.217 OA
BRANCH  17  20
ATOM     20  C   UNL d   1     -42.194-123.066 -48.812  0.00  0.00     0.088 A 
ATOM     21  C   UNL d   1     -42.936-123.353 -49.001  0.00  0.00     0.011 A 
ATOM     22  C   UNL d   1     -43.400-123.718 -48.419  0.00  0.00     0.001 A 
ATOM     23  C   UNL d   1     -43.110-123.789 -47.655  0.00  0.00     0.000 A 
ATOM     24  C   UNL d   1     -42.368-123.501 -47.466  0.00  0.00     0.001 A 
ATOM     25  C   UNL d   1     -41.905-123.139 -48.039  0.00  0.00     0.011 A 
ENDBRANCH  17  20
ENDBRANCH  16  17
ENDBRANCH   2  16
TORSDOF 5
ENDMDL
