MODEL 1
REMARK VINA RESULT:      22.5      0.000      0.000
REMARK  3 active torsions:
REMARK  status: ('A' for Active; 'I' for Inactive)
REMARK    1  A    between atoms: N_6  and  C_1 
REMARK    2  A    between atoms: C_7  and  N_2 
REMARK    3  A    between atoms: C_8  and  N_6 
ROOT
ATOM      1  C   UNL d   1      14.271  12.777  -1.661  0.00  0.00     0.735 A 
ATOM      2  N   UNL d   1      14.553  12.757  -0.883  0.00  0.00    -0.139 N 
ATOM      3  N   UNL d   1      14.395  13.536  -1.969  0.00  0.00    -0.059 NA
ATOM      4  C   UNL d   1      14.854  13.506  -0.706  0.00  0.00     0.100 A 
ATOM      5  C   UNL d   1      14.754  13.984  -1.380  0.00  0.00     0.116 A 
ATOM      6  C   UNL d   1      15.203  13.816  -0.027  0.00  0.00     0.020 A 
ATOM      7  C   UNL d   1      15.009  14.770  -1.360  0.00  0.00     0.021 A 
ATOM      8  C   UNL d   1      15.454  14.598  -0.014  0.00  0.00     0.002 A 
ATOM      9  C   UNL d   1      15.358  15.081  -0.682  0.00  0.00     0.002 A 
ENDROOT
BRANCH   1  10
ATOM     10  N   UNL d   1      13.923  12.148  -2.066  0.00  0.00    -0.061 NA
BRANCH  10  11
ATOM     11  C   UNL d   1      13.632  12.252  -2.827  0.00  0.00     0.100 A 
ATOM     12  C   UNL d   1      13.918  11.780  -3.433  0.00  0.00     0.020 A 
ATOM     13  C   UNL d   1      13.634  11.876  -4.201  0.00  0.00     0.002 A 
ATOM     14  C   UNL d   1      13.056  12.454  -4.361  0.00  0.00     0.000 A 
ATOM     15  C   UNL d   1      12.772  12.926  -3.745  0.00  0.00     0.002 A 
ATOM     16  C   UNL d   1      13.059  12.825  -2.985  0.00  0.00     0.020 A 
ENDBRANCH  10  11
ENDBRANCH   1  10
BRANCH   2  17
ATOM     17  C   UNL d   1      14.536  12.108  -0.378  0.00  0.00     0.082 C 
ATOM     18  C   UNL d   1      15.246  11.781  -0.103  0.00  0.00     0.020 C 
ATOM     19  C   UNL d   1      13.820  11.780  -0.142  0.00  0.00     0.020 C 
ENDBRANCH   2  17
TORSDOF 3
ENDMDL
