MODEL 1
REMARK VINA RESULT:      89.7      0.000      0.000
REMARK  5 active torsions:
REMARK  status: ('A' for Active; 'I' for Inactive)
REMARK    1  A    between atoms: C_8  and  C_1 
REMARK    2  A    between atoms: N_9  and  C_8 
REMARK    3  A    between atoms: C_15  and  C_8 
REMARK    4  A    between atoms: C_16  and  N_11 
REMARK    5  A    between atoms: C_19  and  C_16 
ROOT
ATOM      1  C   UNL d   1     -58.132 -99.235 -44.236  0.00  0.00     0.075 C 
ENDROOT
BRANCH   1   2
ATOM      2  C   UNL d   1     -57.308 -99.292 -44.169  0.00  0.00     0.106 A 
ATOM      3  C   UNL d   1     -56.755 -99.124 -44.771  0.00  0.00     0.290 A 
ATOM      4  N   UNL d   1     -55.999 -99.254 -44.466  0.00  0.00    -0.169 N 
ATOM      5  O   UNL d   1     -56.935 -98.872 -45.539  0.00  0.00    -0.265 OA
ATOM      6  N   UNL d   1     -55.196 -99.233 -44.641  0.00  0.00    -0.138 NA
ATOM      7  C   UNL d   1     -56.080 -99.501 -43.679  0.00  0.00     0.200 A 
ATOM      8  C   UNL d   1     -54.776 -99.465 -43.969  0.00  0.00     0.222 A 
ATOM      9  N   UNL d   1     -55.325 -99.630 -43.374  0.00  0.00    -0.197 NA
ATOM     10  S   UNL d   1     -56.884 -99.524 -43.496  0.00  0.00    -0.042 SA
ENDBRANCH   1   2
BRANCH   1  11
ATOM     11  N   UNL d   1     -58.585 -99.128 -43.556  0.00  0.00    -0.301 N 
ATOM     12  C   UNL d   1     -59.410 -99.181 -43.603  0.00  0.00     0.100 A 
ATOM     13  C   UNL d   1     -59.872 -99.074 -42.924  0.00  0.00     0.100 A 
ATOM     14  N   UNL d   1     -59.506 -98.913 -42.189  0.00  0.00    -0.300 N 
ATOM     15  C   UNL d   1     -58.681 -98.863 -42.154  0.00  0.00     0.100 A 
ATOM     16  C   UNL d   1     -58.226 -98.970 -42.834  0.00  0.00     0.100 A 
BRANCH  14  17
ATOM     17  C   UNL d   1     -59.959 -98.808 -41.517  0.00  0.00     0.080 C 
BRANCH  17  18
ATOM     18  C   UNL d   1     -59.903 -99.343 -40.893  0.00  0.00     0.018 A 
ATOM     19  C   UNL d   1     -59.842-100.151 -41.042  0.00  0.00     0.002 A 
ATOM     20  C   UNL d   1     -59.786-100.684 -40.426  0.00  0.00     0.000 A 
ATOM     21  C   UNL d   1     -59.791-100.413 -39.646  0.00  0.00     0.000 A 
ATOM     22  C   UNL d   1     -59.852 -99.602 -39.488  0.00  0.00     0.000 A 
ATOM     23  C   UNL d   1     -59.908 -99.071 -40.117  0.00  0.00     0.002 A 
ENDBRANCH  17  18
ENDBRANCH  14  17
ENDBRANCH   1  11
BRANCH   1  24
ATOM     24  C   UNL d   1     -58.489 -99.285 -44.974  0.00  0.00     0.017 A 
ATOM     25  C   UNL d   1     -58.108 -98.949 -45.627  0.00  0.00     0.002 A 
ATOM     26  C   UNL d   1     -58.471 -99.001 -46.370  0.00  0.00     0.000 A 
ATOM     27  C   UNL d   1     -59.182 -99.372 -46.457  0.00  0.00     0.000 A 
ATOM     28  C   UNL d   1     -59.552 -99.707 -45.782  0.00  0.00     0.000 A 
ATOM     29  C   UNL d   1     -59.208 -99.662 -45.054  0.00  0.00     0.002 A 
ENDBRANCH   1  24
TORSDOF 5
ENDMDL
