MODEL 1
REMARK VINA RESULT:      -5.1      0.000      0.000
REMARK  4 active torsions:
REMARK  status: ('A' for Active; 'I' for Inactive)
REMARK    1  A    between atoms: N_7  and  C_2 
REMARK    2  A    between atoms: C_6  and  C_3 
REMARK    3  A    between atoms: C_16  and  N_7 
REMARK    4  A    between atoms: C_10  and  C_16 
ROOT
ATOM      1  N   UNL d   1      57.387  -0.178  30.661  0.00  0.00    -0.222 NA
ATOM      2  C   UNL d   1      58.045   0.114  30.263  0.00  0.00     0.172 A 
ATOM      3  C   UNL d   1      57.363   0.180  31.414  0.00  0.00     0.090 A 
ATOM      4  S   UNL d   1      58.424   0.641  30.754  0.00  0.00    -0.048 SA
ATOM      5  C   UNL d   1      58.008   0.682  31.458  0.00  0.00     0.057 A 
ENDROOT
BRANCH   3   6
ATOM      6  C   UNL d   1      56.773   0.025  31.986  0.00  0.00     0.018 A 
ATOM      7  C   UNL d   1      56.379   0.653  32.337  0.00  0.00     0.002 A 
ATOM      8  C   UNL d   1      55.789   0.498  32.909  0.00  0.00     0.011 A 
ATOM      9  C   UNL d   1      55.624  -0.277  33.100  0.00  0.00     0.058 A 
ATOM     10  C   UNL d   1      56.019  -0.911  32.748  0.00  0.00     0.011 A 
ATOM     11 CL   UNL d   1      55.046  -0.428  33.660  0.00  0.00    -0.082 Cl
ATOM     12  C   UNL d   1      56.601  -0.758  32.184  0.00  0.00     0.002 A 
ENDBRANCH   3   6
BRANCH   2  13
ATOM     13  N   UNL d   1      58.293  -0.077  29.507  0.00  0.00    -0.332 N 
ATOM     14  H   UNL d   1      58.052   0.391  28.862  0.00  0.00     0.168 HD
BRANCH  13  15
ATOM     15  C   UNL d   1      58.786  -0.736  29.379  0.00  0.00     0.074 C 
BRANCH  15  16
ATOM     16  C   UNL d   1      58.941  -0.999  28.629  0.00  0.00     0.018 C 
ATOM     17  C   UNL d   1      59.442  -1.669  28.497  0.00  0.00     0.002 C 
ENDBRANCH  15  16
ENDBRANCH  13  15
ENDBRANCH   2  13
TORSDOF 4
ENDMDL
MODEL 2
REMARK VINA RESULT:      -4.0      1.162      1.768
REMARK  4 active torsions:
REMARK  status: ('A' for Active; 'I' for Inactive)
REMARK    1  A    between atoms: N_7  and  C_2 
REMARK    2  A    between atoms: C_6  and  C_3 
REMARK    3  A    between atoms: C_16  and  N_7 
REMARK    4  A    between atoms: C_10  and  C_16 
ROOT
ATOM      1  N   UNL d   1      56.728   0.543  31.928  0.00  0.00    -0.222 NA
ATOM      2  C   UNL d   1      57.101   0.150  31.308  0.00  0.00     0.172 A 
ATOM      3  C   UNL d   1      56.442  -0.032  32.459  0.00  0.00     0.090 A 
ATOM      4  S   UNL d   1      57.049  -0.650  31.449  0.00  0.00    -0.048 SA
ATOM      5  C   UNL d   1      56.646  -0.762  32.153  0.00  0.00     0.057 A 
ENDROOT
BRANCH   3   6
ATOM      6  C   UNL d   1      56.027   0.150  33.164  0.00  0.00     0.018 A 
ATOM      7  C   UNL d   1      55.226  -0.017  33.212  0.00  0.00     0.002 A 
ATOM      8  C   UNL d   1      54.811   0.165  33.916  0.00  0.00     0.011 A 
ATOM      9  C   UNL d   1      55.221   0.502  34.533  0.00  0.00     0.058 A 
ATOM     10  C   UNL d   1      56.028   0.671  34.487  0.00  0.00     0.011 A 
ATOM     11 CL   UNL d   1      54.816   0.680  35.223  0.00  0.00    -0.082 Cl
ATOM     12  C   UNL d   1      56.436   0.492  33.793  0.00  0.00     0.002 A 
ENDBRANCH   3   6
BRANCH   2  13
ATOM     13  N   UNL d   1      57.466   0.484  30.656  0.00  0.00    -0.332 N 
ATOM     14  H   UNL d   1      57.152   1.175  30.316  0.00  0.00     0.168 HD
BRANCH  13  15
ATOM     15  C   UNL d   1      58.150   0.136  30.331  0.00  0.00     0.074 C 
BRANCH  15  16
ATOM     16  C   UNL d   1      58.500   0.447  29.671  0.00  0.00     0.018 C 
ATOM     17  C   UNL d   1      59.274   0.201  29.431  0.00  0.00     0.002 C 
ENDBRANCH  15  16
ENDBRANCH  13  15
ENDBRANCH   2  13
TORSDOF 4
ENDMDL
MODEL 3
REMARK VINA RESULT:      -3.6      1.978      4.179
REMARK  4 active torsions:
REMARK  status: ('A' for Active; 'I' for Inactive)
REMARK    1  A    between atoms: N_7  and  C_2 
REMARK    2  A    between atoms: C_6  and  C_3 
REMARK    3  A    between atoms: C_16  and  N_7 
REMARK    4  A    between atoms: C_10  and  C_16 
ROOT
ATOM      1  N   UNL d   1      57.021  -0.636  31.388  0.00  0.00    -0.222 NA
ATOM      2  C   UNL d   1      56.669  -0.173  31.970  0.00  0.00     0.172 A 
ATOM      3  C   UNL d   1      57.553  -0.154  30.965  0.00  0.00     0.090 A 
ATOM      4  S   UNL d   1      56.974   0.580  31.913  0.00  0.00    -0.048 SA
ATOM      5  C   UNL d   1      57.514   0.593  31.299  0.00  0.00     0.057 A 
ENDROOT
BRANCH   3   6
ATOM      6  C   UNL d   1      58.021  -0.424  30.325  0.00  0.00     0.018 A 
ATOM      7  C   UNL d   1      58.365   0.123  29.821  0.00  0.00     0.002 A 
ATOM      8  C   UNL d   1      58.832  -0.147  29.181  0.00  0.00     0.011 A 
ATOM      9  C   UNL d   1      58.930  -0.950  29.081  0.00  0.00     0.058 A 
ATOM     10  C   UNL d   1      58.584  -1.502  29.588  0.00  0.00     0.011 A 
ATOM     11 CL   UNL d   1      59.387  -1.214  28.456  0.00  0.00    -0.082 Cl
ATOM     12  C   UNL d   1      58.124  -1.235  30.219  0.00  0.00     0.002 A 
ENDBRANCH   3   6
BRANCH   2  13
ATOM     13  N   UNL d   1      56.109  -0.407  32.520  0.00  0.00    -0.332 N 
ATOM     14  H   UNL d   1      55.922  -1.213  32.601  0.00  0.00     0.168 HD
BRANCH  13  15
ATOM     15  C   UNL d   1      55.726   0.158  32.998  0.00  0.00     0.074 C 
BRANCH  15  16
ATOM     16  C   UNL d   1      55.191  -0.070  33.562  0.00  0.00     0.018 C 
ATOM     17  C   UNL d   1      54.762   0.504  34.013  0.00  0.00     0.002 C 
ENDBRANCH  15  16
ENDBRANCH  13  15
ENDBRANCH   2  13
TORSDOF 4
ENDMDL
MODEL 4
REMARK VINA RESULT:      -3.4      2.048      4.191
REMARK  4 active torsions:
REMARK  status: ('A' for Active; 'I' for Inactive)
REMARK    1  A    between atoms: N_7  and  C_2 
REMARK    2  A    between atoms: C_6  and  C_3 
REMARK    3  A    between atoms: C_16  and  N_7 
REMARK    4  A    between atoms: C_10  and  C_16 
ROOT
ATOM      1  N   UNL d   1      57.734  -0.641  30.684  0.00  0.00    -0.222 NA
ATOM      2  C   UNL d   1      57.380   0.041  30.978  0.00  0.00     0.172 A 
ATOM      3  C   UNL d   1      58.305  -0.412  30.121  0.00  0.00     0.090 A 
ATOM      4  S   UNL d   1      57.722   0.682  30.609  0.00  0.00    -0.048 SA
ATOM      5  C   UNL d   1      58.287   0.406  30.085  0.00  0.00     0.057 A 
ENDROOT
BRANCH   3   6
ATOM      6  C   UNL d   1      58.784  -0.950  29.697  0.00  0.00     0.018 A 
ATOM      7  C   UNL d   1      59.514  -0.703  29.417  0.00  0.00     0.002 A 
ATOM      8  C   UNL d   1      59.994  -1.242  28.993  0.00  0.00     0.011 A 
ATOM      9  C   UNL d   1      59.717  -1.998  28.871  0.00  0.00     0.058 A 
ATOM     10  C   UNL d   1      58.982  -2.249  29.151  0.00  0.00     0.011 A 
ATOM     11 CL   UNL d   1      60.187  -2.525  28.455  0.00  0.00    -0.082 Cl
ATOM     12  C   UNL d   1      58.509  -1.718  29.569  0.00  0.00     0.002 A 
ENDBRANCH   3   6
BRANCH   2  13
ATOM     13  N   UNL d   1      56.789   0.091  31.542  0.00  0.00    -0.332 N 
ATOM     14  H   UNL d   1      56.240   0.716  31.511  0.00  0.00     0.168 HD
BRANCH  13  15
ATOM     15  C   UNL d   1      56.733  -0.479  32.146  0.00  0.00     0.074 C 
BRANCH  15  16
ATOM     16  C   UNL d   1      56.166  -0.420  32.721  0.00  0.00     0.018 C 
ATOM     17  C   UNL d   1      55.798  -1.112  33.043  0.00  0.00     0.002 C 
ENDBRANCH  15  16
ENDBRANCH  13  15
ENDBRANCH   2  13
TORSDOF 4
ENDMDL
MODEL 5
REMARK VINA RESULT:      -2.8      9.312     10.130
REMARK  4 active torsions:
REMARK  status: ('A' for Active; 'I' for Inactive)
REMARK    1  A    between atoms: N_7  and  C_2 
REMARK    2  A    between atoms: C_6  and  C_3 
REMARK    3  A    between atoms: C_16  and  N_7 
REMARK    4  A    between atoms: C_10  and  C_16 
ROOT
ATOM      1  N   UNL d   1      60.041  -8.721  34.479  0.00  0.00    -0.222 NA
ATOM      2  C   UNL d   1      60.175  -8.801  35.287  0.00  0.00     0.172 A 
ATOM      3  C   UNL d   1      59.568  -9.362  34.233  0.00  0.00     0.090 A 
ATOM      4  S   UNL d   1      59.793  -9.474  35.541  0.00  0.00    -0.048 SA
ATOM      5  C   UNL d   1      59.422  -9.818  34.898  0.00  0.00     0.057 A 
ENDROOT
BRANCH   3   6
ATOM      6  C   UNL d   1      59.311  -9.478  33.445  0.00  0.00     0.018 A 
ATOM      7  C   UNL d   1      59.860  -9.683  32.871  0.00  0.00     0.002 A 
ATOM      8  C   UNL d   1      59.604  -9.799  32.083  0.00  0.00     0.011 A 
ATOM      9  C   UNL d   1      58.813  -9.704  31.911  0.00  0.00     0.058 A 
ATOM     10  C   UNL d   1      58.260  -9.497  32.488  0.00  0.00     0.011 A 
ATOM     11 CL   UNL d   1      58.563  -9.818  31.140  0.00  0.00    -0.082 Cl
ATOM     12  C   UNL d   1      58.512  -9.383  33.265  0.00  0.00     0.002 A 
ENDBRANCH   3   6
BRANCH   2  13
ATOM     13  N   UNL d   1      60.610  -8.303  35.770  0.00  0.00    -0.332 N 
ATOM     14  H   UNL d   1      61.107  -8.625  36.354  0.00  0.00     0.168 HD
BRANCH  13  15
ATOM     15  C   UNL d   1      60.558  -7.477  35.680  0.00  0.00     0.074 C 
BRANCH  15  16
ATOM     16  C   UNL d   1      60.988  -6.980  36.153  0.00  0.00     0.018 C 
ATOM     17  C   UNL d   1      60.819  -6.151  36.183  0.00  0.00     0.002 C 
ENDBRANCH  15  16
ENDBRANCH  13  15
ENDBRANCH   2  13
TORSDOF 4
ENDMDL
MODEL 6
REMARK VINA RESULT:      -2.6      2.192      4.377
REMARK  4 active torsions:
REMARK  status: ('A' for Active; 'I' for Inactive)
REMARK    1  A    between atoms: N_7  and  C_2 
REMARK    2  A    between atoms: C_6  and  C_3 
REMARK    3  A    between atoms: C_16  and  N_7 
REMARK    4  A    between atoms: C_10  and  C_16 
ROOT
ATOM      1  N   UNL d   1      56.072   0.278  32.407  0.00  0.00    -0.222 NA
ATOM      2  C   UNL d   1      55.911   0.547  33.168  0.00  0.00     0.172 A 
ATOM      3  C   UNL d   1      56.900   0.227  32.323  0.00  0.00     0.090 A 
ATOM      4  S   UNL d   1      56.621   0.662  33.550  0.00  0.00    -0.048 SA
ATOM      5  C   UNL d   1      57.226   0.467  33.035  0.00  0.00     0.057 A 
ENDROOT
BRANCH   3   6
ATOM      6  C   UNL d   1      57.283  -0.026  31.624  0.00  0.00     0.018 A 
ATOM      7  C   UNL d   1      57.230  -0.813  31.400  0.00  0.00     0.002 A 
ATOM      8  C   UNL d   1      57.614  -1.067  30.700  0.00  0.00     0.011 A 
ATOM      9  C   UNL d   1      58.030  -0.519  30.264  0.00  0.00     0.058 A 
ATOM     10  C   UNL d   1      58.085   0.273  30.487  0.00  0.00     0.011 A 
ATOM     11 CL   UNL d   1      58.405  -0.767  29.579  0.00  0.00    -0.082 Cl
ATOM     12  C   UNL d   1      57.706   0.523  31.177  0.00  0.00     0.002 A 
ENDBRANCH   3   6
BRANCH   2  13
ATOM     13  N   UNL d   1      55.176   0.682  33.502  0.00  0.00    -0.332 N 
ATOM     14  H   UNL d   1      54.627   1.169  33.110  0.00  0.00     0.168 HD
BRANCH  13  15
ATOM     15  C   UNL d   1      54.974   0.335  34.232  0.00  0.00     0.074 C 
BRANCH  15  16
ATOM     16  C   UNL d   1      54.429   0.682  34.720  0.00  0.00     0.018 C 
ATOM     17  C   UNL d   1      53.604   0.675  34.525  0.00  0.00     0.002 C 
ENDBRANCH  15  16
ENDBRANCH  13  15
ENDBRANCH   2  13
TORSDOF 4
ENDMDL
