MODEL 1
REMARK VINA RESULT:      -6.8      0.000      0.000
REMARK  6 active torsions:
REMARK  status: ('A' for Active; 'I' for Inactive)
REMARK    1  A    between atoms: N_2  and  S_1 
REMARK    2  A    between atoms: C_6  and  S_1 
REMARK    3  A    between atoms: S_7  and  C_3 
REMARK    4  A    between atoms: N_4  and  C_10 
REMARK    5  A    between atoms: C_21  and  S_7 
REMARK    6  A    between atoms: C_20  and  C_21 
ROOT
ATOM      1  N   UNL d   1     -47.290  13.435  22.067  0.00  0.00    -0.208 N 
ATOM      2  C   UNL d   1     -48.113  13.487  21.955  0.00  0.00     0.189 A 
ATOM      3  N   UNL d   1     -48.310  13.048  21.281  0.00  0.00    -0.219 NA
ATOM      4  C   UNL d   1     -46.979  12.960  21.458  0.00  0.00     0.114 A 
ATOM      5  C   UNL d   1     -47.609  12.725  20.978  0.00  0.00     0.121 A 
ENDROOT
BRANCH   1   6
ATOM      6  S   UNL d   1     -46.860  13.794  22.679  0.00  0.00     0.273 S 
ATOM      7  O   UNL d   1     -47.230  14.496  22.478  0.00  0.00    -0.200 OA
ATOM      8  O   UNL d   1     -46.559  14.355  23.208  0.00  0.00    -0.200 OA
BRANCH   6   9
ATOM      9  C   UNL d   1     -46.477  13.094  22.896  0.00  0.00     0.104 A 
ATOM     10  C   UNL d   1     -45.777  12.885  22.520  0.00  0.00     0.015 A 
ATOM     11  C   UNL d   1     -45.390  12.185  22.734  0.00  0.00     0.024 A 
ATOM     12  C   UNL d   1     -45.716  11.710  23.325  0.00  0.00     0.127 A 
ATOM     13  C   UNL d   1     -46.419  11.926  23.697  0.00  0.00     0.024 A 
ATOM     14  C   UNL d   1     -46.805  12.622  23.485  0.00  0.00     0.015 A 
BRANCH  12  15
ATOM     15  N   UNL d   1     -45.328  11.003  23.543  0.00  0.00    -0.114 N 
ATOM     16  O   UNL d   1     -44.501  10.993  23.602  0.00  0.00    -0.532 OA
ATOM     17  O   UNL d   1     -45.765  10.322  23.698  0.00  0.00    -0.532 OA
ENDBRANCH  12  15
ENDBRANCH   6   9
ENDBRANCH   1   6
BRANCH   2  18
ATOM     18  S   UNL d   1     -48.645  13.908  22.438  0.00  0.00    -0.049 SA
BRANCH  18  19
ATOM     19  C   UNL d   1     -49.445  13.932  22.241  0.00  0.00     0.040 C 
BRANCH  19  20
ATOM     20  C   UNL d   1     -49.974  14.339  22.723  0.00  0.00     0.026 A 
ATOM     21  C   UNL d   1     -49.994  15.179  22.709  0.00  0.00     0.099 A 
ATOM     22  N   UNL d   1     -50.516  15.601  23.183  0.00  0.00    -0.242 NA
ATOM     23  C   UNL d   1     -51.025  15.181  23.680  0.00  0.00     0.099 A 
ATOM     24  C   UNL d   1     -51.010  14.357  23.698  0.00  0.00     0.021 A 
ATOM     25  C   UNL d   1     -50.484  13.938  23.219  0.00  0.00     0.004 A 
ENDBRANCH  19  20
ENDBRANCH  18  19
ENDBRANCH   2  18
TORSDOF 6
ENDMDL
MODEL 2
REMARK VINA RESULT:      -6.0      1.736      4.768
REMARK  6 active torsions:
REMARK  status: ('A' for Active; 'I' for Inactive)
REMARK    1  A    between atoms: N_2  and  S_1 
REMARK    2  A    between atoms: C_6  and  S_1 
REMARK    3  A    between atoms: S_7  and  C_3 
REMARK    4  A    between atoms: N_4  and  C_10 
REMARK    5  A    between atoms: C_21  and  S_7 
REMARK    6  A    between atoms: C_20  and  C_21 
ROOT
ATOM      1  N   UNL d   1     -48.124  12.558  22.483  0.00  0.00    -0.208 N 
ATOM      2  C   UNL d   1     -47.384  12.416  22.836  0.00  0.00     0.189 A 
ATOM      3  N   UNL d   1     -47.515  12.094  23.588  0.00  0.00    -0.219 NA
ATOM      4  C   UNL d   1     -48.714  12.322  23.020  0.00  0.00     0.114 A 
ATOM      5  C   UNL d   1     -48.335  12.038  23.697  0.00  0.00     0.121 A 
ENDROOT
BRANCH   1   6
ATOM      6  S   UNL d   1     -48.246  12.879  21.727  0.00  0.00     0.273 S 
ATOM      7  O   UNL d   1     -47.822  12.246  21.429  0.00  0.00    -0.200 OA
ATOM      8  O   UNL d   1     -48.235  12.994  20.907  0.00  0.00    -0.200 OA
BRANCH   6   9
ATOM      9  C   UNL d   1     -48.678  13.525  22.010  0.00  0.00     0.104 A 
ATOM     10  C   UNL d   1     -48.278  14.198  22.260  0.00  0.00     0.015 A 
ATOM     11  C   UNL d   1     -48.706  14.847  22.544  0.00  0.00     0.024 A 
ATOM     12  C   UNL d   1     -49.530  14.805  22.570  0.00  0.00     0.127 A 
ATOM     13  C   UNL d   1     -49.924  14.127  22.317  0.00  0.00     0.024 A 
ATOM     14  C   UNL d   1     -49.499  13.480  22.035  0.00  0.00     0.015 A 
BRANCH  12  15
ATOM     15  N   UNL d   1     -49.965  15.459  22.856  0.00  0.00    -0.114 N 
ATOM     16  O   UNL d   1     -49.756  15.802  23.580  0.00  0.00    -0.532 OA
ATOM     17  O   UNL d   1     -50.595  15.758  22.419  0.00  0.00    -0.532 OA
ENDBRANCH  12  15
ENDBRANCH   6   9
ENDBRANCH   1   6
BRANCH   2  18
ATOM     18  S   UNL d   1     -46.641  12.572  22.492  0.00  0.00    -0.049 SA
BRANCH  18  19
ATOM     19  C   UNL d   1     -45.956  12.295  22.858  0.00  0.00     0.040 C 
BRANCH  19  20
ATOM     20  C   UNL d   1     -45.224  12.410  22.497  0.00  0.00     0.026 A 
ATOM     21  C   UNL d   1     -44.610  11.847  22.605  0.00  0.00     0.099 A 
ATOM     22  N   UNL d   1     -43.875  11.946  22.252  0.00  0.00    -0.242 NA
ATOM     23  C   UNL d   1     -43.749  12.616  21.786  0.00  0.00     0.099 A 
ATOM     24  C   UNL d   1     -44.347  13.172  21.677  0.00  0.00     0.021 A 
ATOM     25  C   UNL d   1     -45.084  13.067  22.033  0.00  0.00     0.004 A 
ENDBRANCH  19  20
ENDBRANCH  18  19
ENDBRANCH   2  18
TORSDOF 6
ENDMDL
MODEL 3
REMARK VINA RESULT:      -6.0      1.734      4.774
REMARK  6 active torsions:
REMARK  status: ('A' for Active; 'I' for Inactive)
REMARK    1  A    between atoms: N_2  and  S_1 
REMARK    2  A    between atoms: C_6  and  S_1 
REMARK    3  A    between atoms: S_7  and  C_3 
REMARK    4  A    between atoms: N_4  and  C_10 
REMARK    5  A    between atoms: C_21  and  S_7 
REMARK    6  A    between atoms: C_20  and  C_21 
ROOT
ATOM      1  N   UNL d   1     -48.227  12.155  22.622  0.00  0.00    -0.208 N 
ATOM      2  C   UNL d   1     -47.706  11.740  23.120  0.00  0.00     0.189 A 
ATOM      3  N   UNL d   1     -48.158  11.307  23.662  0.00  0.00    -0.219 NA
ATOM      4  C   UNL d   1     -49.005  11.975  22.859  0.00  0.00     0.114 A 
ATOM      5  C   UNL d   1     -48.957  11.454  23.498  0.00  0.00     0.121 A 
ENDROOT
BRANCH   1   6
ATOM      6  S   UNL d   1     -48.006  12.657  22.000  0.00  0.00     0.273 S 
ATOM      7  O   UNL d   1     -47.553  12.040  21.710  0.00  0.00    -0.200 OA
ATOM      8  O   UNL d   1     -47.654  12.952  21.311  0.00  0.00    -0.200 OA
BRANCH   6   9
ATOM      9  C   UNL d   1     -48.457  13.292  22.277  0.00  0.00     0.104 A 
ATOM     10  C   UNL d   1     -49.235  13.374  22.025  0.00  0.00     0.015 A 
ATOM     11  C   UNL d   1     -49.690  14.008  22.300  0.00  0.00     0.024 A 
ATOM     12  C   UNL d   1     -49.352  14.548  22.825  0.00  0.00     0.127 A 
ATOM     13  C   UNL d   1     -48.572  14.459  23.074  0.00  0.00     0.024 A 
ATOM     14  C   UNL d   1     -48.117  13.828  22.800  0.00  0.00     0.015 A 
BRANCH  12  15
ATOM     15  N   UNL d   1     -49.810  15.189  23.105  0.00  0.00    -0.114 N 
ATOM     16  O   UNL d   1     -49.432  15.884  23.348  0.00  0.00    -0.532 OA
ATOM     17  O   UNL d   1     -50.630  15.127  23.137  0.00  0.00    -0.532 OA
ENDBRANCH  12  15
ENDBRANCH   6   9
ENDBRANCH   1   6
BRANCH   2  18
ATOM     18  S   UNL d   1     -46.874  11.759  23.080  0.00  0.00    -0.049 SA
BRANCH  18  19
ATOM     19  C   UNL d   1     -46.427  11.442  23.696  0.00  0.00     0.040 C 
BRANCH  19  20
ATOM     20  C   UNL d   1     -45.667  11.161  23.550  0.00  0.00     0.026 A 
ATOM     21  C   UNL d   1     -45.076  11.682  23.259  0.00  0.00     0.099 A 
ATOM     22  N   UNL d   1     -44.313  11.419  23.107  0.00  0.00    -0.242 NA
ATOM     23  C   UNL d   1     -44.135  10.624  23.247  0.00  0.00     0.099 A 
ATOM     24  C   UNL d   1     -44.711  10.108  23.533  0.00  0.00     0.021 A 
ATOM     25  C   UNL d   1     -45.476  10.378  23.683  0.00  0.00     0.004 A 
ENDBRANCH  19  20
ENDBRANCH  18  19
ENDBRANCH   2  18
TORSDOF 6
ENDMDL
MODEL 4
REMARK VINA RESULT:      -5.8      8.035      9.716
REMARK  6 active torsions:
REMARK  status: ('A' for Active; 'I' for Inactive)
REMARK    1  A    between atoms: N_2  and  S_1 
REMARK    2  A    between atoms: C_6  and  S_1 
REMARK    3  A    between atoms: S_7  and  C_3 
REMARK    4  A    between atoms: N_4  and  C_10 
REMARK    5  A    between atoms: C_21  and  S_7 
REMARK    6  A    between atoms: C_20  and  C_21 
ROOT
ATOM      1  N   UNL d   1     -39.932  14.813  19.875  0.00  0.00    -0.208 N 
ATOM      2  C   UNL d   1     -40.048  14.458  19.132  0.00  0.00     0.189 A 
ATOM      3  N   UNL d   1     -40.782  14.075  19.141  0.00  0.00    -0.219 NA
ATOM      4  C   UNL d   1     -40.600  14.649  20.344  0.00  0.00     0.114 A 
ATOM      5  C   UNL d   1     -41.118  14.195  19.889  0.00  0.00     0.121 A 
ENDROOT
BRANCH   1   6
ATOM      6  S   UNL d   1     -39.267  15.254  20.103  0.00  0.00     0.273 S 
ATOM      7  O   UNL d   1     -39.456  15.781  19.506  0.00  0.00    -0.200 OA
ATOM      8  O   UNL d   1     -38.684  15.840  20.140  0.00  0.00    -0.200 OA
BRANCH   6   9
ATOM      9  C   UNL d   1     -39.060  14.733  20.710  0.00  0.00     0.104 A 
ATOM     10  C   UNL d   1     -39.449  14.782  21.433  0.00  0.00     0.015 A 
ATOM     11  C   UNL d   1     -39.245  14.262  22.044  0.00  0.00     0.024 A 
ATOM     12  C   UNL d   1     -38.652  13.702  21.915  0.00  0.00     0.127 A 
ATOM     13  C   UNL d   1     -38.268  13.659  21.188  0.00  0.00     0.024 A 
ATOM     14  C   UNL d   1     -38.470  14.176  20.579  0.00  0.00     0.015 A 
BRANCH  12  15
ATOM     15  N   UNL d   1     -38.445  13.176  22.530  0.00  0.00    -0.114 N 
ATOM     16  O   UNL d   1     -37.940  12.539  22.370  0.00  0.00    -0.532 OA
ATOM     17  O   UNL d   1     -38.742  13.292  23.289  0.00  0.00    -0.532 OA
ENDBRANCH  12  15
ENDBRANCH   6   9
ENDBRANCH   1   6
BRANCH   2  18
ATOM     18  S   UNL d   1     -39.516  14.483  18.491  0.00  0.00    -0.049 SA
BRANCH  18  19
ATOM     19  C   UNL d   1     -39.710  14.106  17.784  0.00  0.00     0.040 C 
BRANCH  19  20
ATOM     20  C   UNL d   1     -39.143  14.030  17.190  0.00  0.00     0.026 A 
ATOM     21  C   UNL d   1     -39.063  14.629  16.607  0.00  0.00     0.099 A 
ATOM     22  N   UNL d   1     -38.503  14.569  16.009  0.00  0.00    -0.242 NA
ATOM     23  C   UNL d   1     -38.016  13.902  15.992  0.00  0.00     0.099 A 
ATOM     24  C   UNL d   1     -38.090  13.311  16.561  0.00  0.00     0.021 A 
ATOM     25  C   UNL d   1     -38.654  13.377  17.160  0.00  0.00     0.004 A 
ENDBRANCH  19  20
ENDBRANCH  18  19
ENDBRANCH   2  18
TORSDOF 6
ENDMDL
MODEL 5
REMARK VINA RESULT:      -5.6      1.730      4.782
REMARK  6 active torsions:
REMARK  status: ('A' for Active; 'I' for Inactive)
REMARK    1  A    between atoms: N_2  and  S_1 
REMARK    2  A    between atoms: C_6  and  S_1 
REMARK    3  A    between atoms: S_7  and  C_3 
REMARK    4  A    between atoms: N_4  and  C_10 
REMARK    5  A    between atoms: C_21  and  S_7 
REMARK    6  A    between atoms: C_20  and  C_21 
ROOT
ATOM      1  N   UNL d   1     -46.865  13.013  23.169  0.00  0.00    -0.208 N 
ATOM      2  C   UNL d   1     -46.209  12.533  22.996  0.00  0.00     0.189 A 
ATOM      3  N   UNL d   1     -46.344  11.784  23.323  0.00  0.00    -0.219 NA
ATOM      4  C   UNL d   1     -47.408  12.557  23.606  0.00  0.00     0.114 A 
ATOM      5  C   UNL d   1     -47.083  11.803  23.698  0.00  0.00     0.121 A 
ENDROOT
BRANCH   1   6
ATOM      6  S   UNL d   1     -46.958  13.806  22.944  0.00  0.00     0.273 S 
ATOM      7  O   UNL d   1     -46.232  13.952  23.291  0.00  0.00    -0.200 OA
ATOM      8  O   UNL d   1     -46.826  14.616  22.833  0.00  0.00    -0.200 OA
BRANCH   6   9
ATOM      9  C   UNL d   1     -47.694  13.677  22.588  0.00  0.00     0.104 A 
ATOM     10  C   UNL d   1     -47.725  13.399  21.816  0.00  0.00     0.015 A 
ATOM     11  C   UNL d   1     -48.459  13.269  21.456  0.00  0.00     0.024 A 
ATOM     12  C   UNL d   1     -49.149  13.422  21.883  0.00  0.00     0.127 A 
ATOM     13  C   UNL d   1     -49.110  13.701  22.657  0.00  0.00     0.024 A 
ATOM     14  C   UNL d   1     -48.380  13.831  23.016  0.00  0.00     0.015 A 
BRANCH  12  15
ATOM     15  N   UNL d   1     -49.891  13.292  21.523  0.00  0.00    -0.114 N 
ATOM     16  O   UNL d   1     -50.379  13.937  21.348  0.00  0.00    -0.532 OA
ATOM     17  O   UNL d   1     -50.133  12.525  21.342  0.00  0.00    -0.532 OA
ENDBRANCH  12  15
ENDBRANCH   6   9
ENDBRANCH   1   6
BRANCH   2  18
ATOM     18  S   UNL d   1     -45.533  12.766  22.567  0.00  0.00    -0.049 SA
BRANCH  18  19
ATOM     19  C   UNL d   1     -45.006  12.194  22.293  0.00  0.00     0.040 C 
BRANCH  19  20
ATOM     20  C   UNL d   1     -44.269  12.422  22.003  0.00  0.00     0.026 A 
ATOM     21  C   UNL d   1     -43.576  12.021  22.257  0.00  0.00     0.099 A 
ATOM     22  N   UNL d   1     -42.834  12.236  21.977  0.00  0.00    -0.242 NA
ATOM     23  C   UNL d   1     -42.781  12.858  21.436  0.00  0.00     0.099 A 
ATOM     24  C   UNL d   1     -43.458  13.255  21.184  0.00  0.00     0.021 A 
ATOM     25  C   UNL d   1     -44.201  13.035  21.468  0.00  0.00     0.004 A 
ENDBRANCH  19  20
ENDBRANCH  18  19
ENDBRANCH   2  18
TORSDOF 6
ENDMDL
MODEL 6
REMARK VINA RESULT:      -4.6      1.657      2.030
REMARK  6 active torsions:
REMARK  status: ('A' for Active; 'I' for Inactive)
REMARK    1  A    between atoms: N_2  and  S_1 
REMARK    2  A    between atoms: C_6  and  S_1 
REMARK    3  A    between atoms: S_7  and  C_3 
REMARK    4  A    between atoms: N_4  and  C_10 
REMARK    5  A    between atoms: C_21  and  S_7 
REMARK    6  A    between atoms: C_20  and  C_21 
ROOT
ATOM      1  N   UNL d   1     -47.239  12.399  23.333  0.00  0.00    -0.208 N 
ATOM      2  C   UNL d   1     -47.965  12.128  23.032  0.00  0.00     0.189 A 
ATOM      3  N   UNL d   1     -48.005  11.310  23.153  0.00  0.00    -0.219 NA
ATOM      4  C   UNL d   1     -46.829  11.744  23.642  0.00  0.00     0.114 A 
ATOM      5  C   UNL d   1     -47.304  11.077  23.529  0.00  0.00     0.121 A 
ENDROOT
BRANCH   1   6
ATOM      6  S   UNL d   1     -46.974  13.185  23.325  0.00  0.00     0.273 S 
ATOM      7  O   UNL d   1     -47.673  13.387  23.698  0.00  0.00    -0.200 OA
ATOM      8  O   UNL d   1     -46.933  14.005  23.431  0.00  0.00    -0.200 OA
BRANCH   6   9
ATOM      9  C   UNL d   1     -46.262  13.001  22.948  0.00  0.00     0.104 A 
ATOM     10  C   UNL d   1     -46.110  13.306  22.200  0.00  0.00     0.015 A 
ATOM     11  C   UNL d   1     -45.398  13.124  21.819  0.00  0.00     0.024 A 
ATOM     12  C   UNL d   1     -44.852  12.636  22.200  0.00  0.00     0.127 A 
ATOM     13  C   UNL d   1     -45.011  12.333  22.949  0.00  0.00     0.024 A 
ATOM     14  C   UNL d   1     -45.719  12.514  23.329  0.00  0.00     0.015 A 
BRANCH  12  15
ATOM     15  N   UNL d   1     -44.133  12.450  21.817  0.00  0.00    -0.114 N 
ATOM     16  O   UNL d   1     -43.594  11.940  22.186  0.00  0.00    -0.532 OA
ATOM     17  O   UNL d   1     -43.963  12.773  21.079  0.00  0.00    -0.532 OA
ENDBRANCH  12  15
ENDBRANCH   6   9
ENDBRANCH   1   6
BRANCH   2  18
ATOM     18  S   UNL d   1     -48.550  12.599  22.670  0.00  0.00    -0.049 SA
BRANCH  18  19
ATOM     19  C   UNL d   1     -49.228  12.244  22.363  0.00  0.00     0.040 C 
BRANCH  19  20
ATOM     20  C   UNL d   1     -49.843  12.713  22.080  0.00  0.00     0.026 A 
ATOM     21  C   UNL d   1     -49.848  12.958  21.276  0.00  0.00     0.099 A 
ATOM     22  N   UNL d   1     -50.455  13.426  20.978  0.00  0.00    -0.242 NA
ATOM     23  C   UNL d   1     -51.064  13.653  21.487  0.00  0.00     0.099 A 
ATOM     24  C   UNL d   1     -51.064  13.416  22.276  0.00  0.00     0.021 A 
ATOM     25  C   UNL d   1     -50.453  12.946  22.571  0.00  0.00     0.004 A 
ENDBRANCH  19  20
ENDBRANCH  18  19
ENDBRANCH   2  18
TORSDOF 6
ENDMDL
MODEL 7
REMARK VINA RESULT:      -4.4      8.938     10.757
REMARK  6 active torsions:
REMARK  status: ('A' for Active; 'I' for Inactive)
REMARK    1  A    between atoms: N_2  and  S_1 
REMARK    2  A    between atoms: C_6  and  S_1 
REMARK    3  A    between atoms: S_7  and  C_3 
REMARK    4  A    between atoms: N_4  and  C_10 
REMARK    5  A    between atoms: C_21  and  S_7 
REMARK    6  A    between atoms: C_20  and  C_21 
ROOT
ATOM      1  N   UNL d   1     -39.308  15.493  17.680  0.00  0.00    -0.208 N 
ATOM      2  C   UNL d   1     -38.644  15.355  17.199  0.00  0.00     0.189 A 
ATOM      3  N   UNL d   1     -37.972  15.620  17.605  0.00  0.00    -0.219 NA
ATOM      4  C   UNL d   1     -39.044  15.846  18.386  0.00  0.00     0.114 A 
ATOM      5  C   UNL d   1     -38.223  15.922  18.335  0.00  0.00     0.121 A 
ENDROOT
BRANCH   1   6
ATOM      6  S   UNL d   1     -40.093  15.309  17.486  0.00  0.00     0.273 S 
ATOM      7  O   UNL d   1     -39.938  15.600  16.737  0.00  0.00    -0.200 OA
ATOM      8  O   UNL d   1     -40.803  15.222  17.069  0.00  0.00    -0.200 OA
BRANCH   6   9
ATOM      9  C   UNL d   1     -40.269  15.012  18.237  0.00  0.00     0.104 A 
ATOM     10  C   UNL d   1     -40.126  14.220  18.400  0.00  0.00     0.015 A 
ATOM     11  C   UNL d   1     -40.300  13.917  19.151  0.00  0.00     0.024 A 
ATOM     12  C   UNL d   1     -40.616  14.421  19.723  0.00  0.00     0.127 A 
ATOM     13  C   UNL d   1     -40.756  15.214  19.553  0.00  0.00     0.024 A 
ATOM     14  C   UNL d   1     -40.583  15.516  18.806  0.00  0.00     0.015 A 
BRANCH  12  15
ATOM     15  N   UNL d   1     -40.792  14.118  20.482  0.00  0.00    -0.114 N 
ATOM     16  O   UNL d   1     -40.189  14.053  21.046  0.00  0.00    -0.532 OA
ATOM     17  O   UNL d   1     -41.562  13.888  20.665  0.00  0.00    -0.532 OA
ENDBRANCH  12  15
ENDBRANCH   6   9
ENDBRANCH   1   6
BRANCH   2  18
ATOM     18  S   UNL d   1     -38.653  15.009  16.441  0.00  0.00    -0.049 SA
BRANCH  18  19
ATOM     19  C   UNL d   1     -37.942  14.809  16.074  0.00  0.00     0.040 C 
BRANCH  19  20
ATOM     20  C   UNL d   1     -37.941  14.277  15.445  0.00  0.00     0.026 A 
ATOM     21  C   UNL d   1     -37.941  13.451  15.594  0.00  0.00     0.099 A 
ATOM     22  N   UNL d   1     -37.940  12.907  14.978  0.00  0.00    -0.242 NA
ATOM     23  C   UNL d   1     -37.940  13.191  14.202  0.00  0.00     0.099 A 
ATOM     24  C   UNL d   1     -37.940  14.001  14.050  0.00  0.00     0.021 A 
ATOM     25  C   UNL d   1     -37.941  14.542  14.672  0.00  0.00     0.004 A 
ENDBRANCH  19  20
ENDBRANCH  18  19
ENDBRANCH   2  18
TORSDOF 6
ENDMDL
