MODEL 1
REMARK VINA RESULT:      -8.3      0.000      0.000
REMARK  3 active torsions:
REMARK  status: ('A' for Active; 'I' for Inactive)
REMARK    1  A    between atoms: C_4  and  S_13 
REMARK    2  A    between atoms: C_16  and  C_6 
REMARK    3  A    between atoms: S_13  and  C_16 
ROOT
ATOM      1  C   UNL d   1      51.632  34.136  52.806  0.00  0.00     0.059 C 
ENDROOT
BRANCH   1   2
ATOM      2  S   UNL d   1      50.887  34.181  53.120  0.00  0.00    -0.046 SA
BRANCH   2   3
ATOM      3  C   UNL d   1      50.255  34.369  52.625  0.00  0.00     0.194 A 
ATOM      4  N   UNL d   1      50.082  34.192  51.839  0.00  0.00    -0.220 NA
ATOM      5  C   UNL d   1      49.364  34.537  51.651  0.00  0.00     0.101 A 
ATOM      6  C   UNL d   1      48.931  34.541  50.957  0.00  0.00     0.021 A 
ATOM      7  C   UNL d   1      49.095  34.917  52.299  0.00  0.00     0.101 A 
ATOM      8  C   UNL d   1      48.219  34.930  50.906  0.00  0.00     0.002 A 
ATOM      9  C   UNL d   1      47.917  35.335  51.571  0.00  0.00     0.002 A 
ATOM     10  C   UNL d   1      48.371  35.326  52.286  0.00  0.00     0.021 A 
ATOM     11  N   UNL d   1      49.633  34.831  52.932  0.00  0.00    -0.220 NA
ENDBRANCH   2   3
ENDBRANCH   1   2
BRANCH   1  12
ATOM     12  C   UNL d   1      52.259  33.931  53.285  0.00  0.00     0.107 A 
ATOM     13  C   UNL d   1      52.635  33.209  53.316  0.00  0.00     0.101 A 
ATOM     14  N   UNL d   1      53.242  33.219  53.869  0.00  0.00    -0.289 N 
ATOM     15  C   UNL d   1      53.247  33.980  54.199  0.00  0.00     0.148 A 
ATOM     16  C   UNL d   1      53.800  32.655  54.132  0.00  0.00     0.066 A 
ATOM     17  N   UNL d   1      52.642  34.428  53.843  0.00  0.00    -0.226 NA
ATOM     18  C   UNL d   1      53.799  34.176  54.781  0.00  0.00     0.037 A 
ATOM     19  C   UNL d   1      54.353  33.606  55.038  0.00  0.00     0.005 A 
ATOM     20  C   UNL d   1      54.348  32.846  54.709  0.00  0.00     0.018 A 
ATOM     21  C   UNL d   1      53.792  31.890  53.798  0.00  0.00     0.019 C 
ENDBRANCH   1  12
TORSDOF 3
ENDMDL
MODEL 2
REMARK VINA RESULT:      -8.0      0.542      5.120
REMARK  3 active torsions:
REMARK  status: ('A' for Active; 'I' for Inactive)
REMARK    1  A    between atoms: C_4  and  S_13 
REMARK    2  A    between atoms: C_16  and  C_6 
REMARK    3  A    between atoms: S_13  and  C_16 
ROOT
ATOM      1  C   UNL d   1      50.985  33.939  52.915  0.00  0.00     0.059 C 
ENDROOT
BRANCH   1   2
ATOM      2  S   UNL d   1      51.627  34.376  53.146  0.00  0.00    -0.046 SA
BRANCH   2   3
ATOM      3  C   UNL d   1      52.281  33.988  53.465  0.00  0.00     0.194 A 
ATOM      4  N   UNL d   1      52.629  33.255  53.321  0.00  0.00    -0.220 NA
ATOM      5  C   UNL d   1      53.274  33.176  53.817  0.00  0.00     0.101 A 
ATOM      6  C   UNL d   1      53.814  32.569  53.909  0.00  0.00     0.021 A 
ATOM      7  C   UNL d   1      53.331  33.839  54.258  0.00  0.00     0.101 A 
ATOM      8  C   UNL d   1      54.420  32.620  54.449  0.00  0.00     0.002 A 
ATOM      9  C   UNL d   1      54.499  33.304  54.922  0.00  0.00     0.002 A 
ATOM     10  C   UNL d   1      53.937  33.928  54.821  0.00  0.00     0.021 A 
ATOM     11  N   UNL d   1      52.719  34.372  54.061  0.00  0.00    -0.220 NA
ENDBRANCH   2   3
ENDBRANCH   1   2
BRANCH   1  12
ATOM     12  C   UNL d   1      50.296  34.318  52.701  0.00  0.00     0.107 A 
ATOM     13  C   UNL d   1      49.909  34.261  51.988  0.00  0.00     0.101 A 
ATOM     14  N   UNL d   1      49.232  34.728  51.984  0.00  0.00    -0.289 N 
ATOM     15  C   UNL d   1      49.194  35.092  52.728  0.00  0.00     0.148 A 
ATOM     16  C   UNL d   1      48.635  34.884  51.420  0.00  0.00     0.066 A 
ATOM     17  N   UNL d   1      49.849  34.844  53.179  0.00  0.00    -0.226 NA
ATOM     18  C   UNL d   1      48.572  35.604  52.907  0.00  0.00     0.037 A 
ATOM     19  C   UNL d   1      47.979  35.754  52.338  0.00  0.00     0.005 A 
ATOM     20  C   UNL d   1      48.017  35.390  51.595  0.00  0.00     0.018 A 
ATOM     21  C   UNL d   1      48.677  34.514  50.672  0.00  0.00     0.019 C 
ENDBRANCH   1  12
TORSDOF 3
ENDMDL
MODEL 3
REMARK VINA RESULT:      -7.1      1.062      1.784
REMARK  3 active torsions:
REMARK  status: ('A' for Active; 'I' for Inactive)
REMARK    1  A    between atoms: C_4  and  S_13 
REMARK    2  A    between atoms: C_16  and  C_6 
REMARK    3  A    between atoms: S_13  and  C_16 
ROOT
ATOM      1  C   UNL d   1      50.352  34.397  52.564  0.00  0.00     0.059 C 
ENDROOT
BRANCH   1   2
ATOM      2  S   UNL d   1      49.888  34.801  53.089  0.00  0.00    -0.046 SA
BRANCH   2   3
ATOM      3  C   UNL d   1      49.181  35.133  52.825  0.00  0.00     0.194 A 
ATOM      4  N   UNL d   1      48.732  35.036  52.140  0.00  0.00    -0.220 NA
ATOM      5  C   UNL d   1      48.076  35.520  52.193  0.00  0.00     0.101 A 
ATOM      6  C   UNL d   1      47.453  35.644  51.678  0.00  0.00     0.021 A 
ATOM      7  C   UNL d   1      48.111  35.910  52.889  0.00  0.00     0.101 A 
ATOM      8  C   UNL d   1      46.854  36.165  51.858  0.00  0.00     0.002 A 
ATOM      9  C   UNL d   1      46.868  36.584  52.580  0.00  0.00     0.002 A 
ATOM     10  C   UNL d   1      47.517  36.449  53.108  0.00  0.00     0.021 A 
ATOM     11  N   UNL d   1      48.795  35.688  53.312  0.00  0.00    -0.220 NA
ENDBRANCH   2   3
ENDBRANCH   1   2
BRANCH   1  12
ATOM     12  C   UNL d   1      51.059  34.076  52.815  0.00  0.00     0.107 A 
ATOM     13  C   UNL d   1      51.672  34.470  53.178  0.00  0.00     0.101 A 
ATOM     14  N   UNL d   1      52.290  33.956  53.347  0.00  0.00    -0.289 N 
ATOM     15  C   UNL d   1      52.055  33.208  53.077  0.00  0.00     0.148 A 
ATOM     16  C   UNL d   1      53.040  34.044  53.706  0.00  0.00     0.066 A 
ATOM     17  N   UNL d   1      51.293  33.273  52.746  0.00  0.00    -0.226 NA
ATOM     18  C   UNL d   1      52.557  32.560  53.163  0.00  0.00     0.037 A 
ATOM     19  C   UNL d   1      53.305  32.657  53.524  0.00  0.00     0.005 A 
ATOM     20  C   UNL d   1      53.541  33.403  53.793  0.00  0.00     0.018 A 
ATOM     21  C   UNL d   1      53.274  34.800  53.977  0.00  0.00     0.019 C 
ENDBRANCH   1  12
TORSDOF 3
ENDMDL
MODEL 4
REMARK VINA RESULT:      -6.0     10.299     11.141
REMARK  3 active torsions:
REMARK  status: ('A' for Active; 'I' for Inactive)
REMARK    1  A    between atoms: C_4  and  S_13 
REMARK    2  A    between atoms: C_16  and  C_6 
REMARK    3  A    between atoms: S_13  and  C_16 
ROOT
ATOM      1  C   UNL d   1      44.538  29.838  59.566  0.00  0.00     0.059 C 
ENDROOT
BRANCH   1   2
ATOM      2  S   UNL d   1      45.058  29.826  60.187  0.00  0.00    -0.046 SA
BRANCH   2   3
ATOM      3  C   UNL d   1      44.885  30.265  60.863  0.00  0.00     0.194 A 
ATOM      4  N   UNL d   1      44.777  31.070  61.001  0.00  0.00    -0.220 NA
ATOM      5  C   UNL d   1      44.615  31.174  61.796  0.00  0.00     0.101 A 
ATOM      6  C   UNL d   1      44.463  31.848  62.233  0.00  0.00     0.021 A 
ATOM      7  C   UNL d   1      44.620  30.457  62.146  0.00  0.00     0.101 A 
ATOM      8  C   UNL d   1      44.314  31.809  63.032  0.00  0.00     0.002 A 
ATOM      9  C   UNL d   1      44.314  31.070  63.420  0.00  0.00     0.002 A 
ATOM     10  C   UNL d   1      44.472  30.376  62.960  0.00  0.00     0.021 A 
ATOM     11  N   UNL d   1      44.787  29.861  61.585  0.00  0.00    -0.220 NA
ENDBRANCH   2   3
ENDBRANCH   1   2
BRANCH   1  12
ATOM     12  C   UNL d   1      44.682  29.374  58.911  0.00  0.00     0.107 A 
ATOM     13  C   UNL d   1      44.625  29.600  58.131  0.00  0.00     0.101 A 
ATOM     14  N   UNL d   1      44.814  28.976  57.632  0.00  0.00    -0.289 N 
ATOM     15  C   UNL d   1      44.998  28.331  58.120  0.00  0.00     0.148 A 
ATOM     16  C   UNL d   1      44.851  28.884  56.801  0.00  0.00     0.066 A 
ATOM     17  N   UNL d   1      44.919  28.569  58.914  0.00  0.00    -0.226 NA
ATOM     18  C   UNL d   1      45.214  27.608  57.787  0.00  0.00     0.037 A 
ATOM     19  C   UNL d   1      45.248  27.525  56.956  0.00  0.00     0.005 A 
ATOM     20  C   UNL d   1      45.065  28.169  56.468  0.00  0.00     0.018 A 
ATOM     21  C   UNL d   1      44.665  29.537  56.313  0.00  0.00     0.019 C 
ENDBRANCH   1  12
TORSDOF 3
ENDMDL
MODEL 5
REMARK VINA RESULT:      -6.0     10.433     10.954
REMARK  3 active torsions:
REMARK  status: ('A' for Active; 'I' for Inactive)
REMARK    1  A    between atoms: C_4  and  S_13 
REMARK    2  A    between atoms: C_16  and  C_6 
REMARK    3  A    between atoms: S_13  and  C_16 
ROOT
ATOM      1  C   UNL d   1      44.985  30.094  60.209  0.00  0.00     0.059 C 
ENDROOT
BRANCH   1   2
ATOM      2  S   UNL d   1      44.452  30.223  59.614  0.00  0.00    -0.046 SA
BRANCH   2   3
ATOM      3  C   UNL d   1      44.561  29.845  58.890  0.00  0.00     0.194 A 
ATOM      4  N   UNL d   1      44.810  29.088  58.680  0.00  0.00    -0.220 NA
ATOM      5  C   UNL d   1      44.807  29.035  57.864  0.00  0.00     0.101 A 
ATOM      6  C   UNL d   1      45.002  28.420  57.361  0.00  0.00     0.021 A 
ATOM      7  C   UNL d   1      44.564  29.736  57.570  0.00  0.00     0.101 A 
ATOM      8  C   UNL d   1      44.954  28.503  56.554  0.00  0.00     0.002 A 
ATOM      9  C   UNL d   1      44.702  29.227  56.224  0.00  0.00     0.002 A 
ATOM     10  C   UNL d   1      44.502  29.860  56.750  0.00  0.00     0.021 A 
ATOM     11  N   UNL d   1      44.400  30.270  58.191  0.00  0.00    -0.220 NA
ENDBRANCH   2   3
ENDBRANCH   1   2
BRANCH   1  12
ATOM     12  C   UNL d   1      44.831  30.377  60.958  0.00  0.00     0.107 A 
ATOM     13  C   UNL d   1      44.737  29.938  61.637  0.00  0.00     0.101 A 
ATOM     14  N   UNL d   1      44.588  30.425  62.282  0.00  0.00    -0.289 N 
ATOM     15  C   UNL d   1      44.587  31.203  61.994  0.00  0.00     0.148 A 
ATOM     16  C   UNL d   1      44.450  30.289  63.095  0.00  0.00     0.066 A 
ATOM     17  N   UNL d   1      44.737  31.183  61.175  0.00  0.00    -0.226 NA
ATOM     18  C   UNL d   1      44.452  31.834  62.508  0.00  0.00     0.037 A 
ATOM     19  C   UNL d   1      44.315  31.689  63.319  0.00  0.00     0.005 A 
ATOM     20  C   UNL d   1      44.315  30.912  63.607  0.00  0.00     0.018 A 
ATOM     21  C   UNL d   1      44.451  29.504  63.381  0.00  0.00     0.019 C 
ENDBRANCH   1  12
TORSDOF 3
ENDMDL
MODEL 6
REMARK VINA RESULT:      -5.9     10.301     11.005
REMARK  3 active torsions:
REMARK  status: ('A' for Active; 'I' for Inactive)
REMARK    1  A    between atoms: C_4  and  S_13 
REMARK    2  A    between atoms: C_16  and  C_6 
REMARK    3  A    between atoms: S_13  and  C_16 
ROOT
ATOM      1  C   UNL d   1      45.217  27.175  56.883  0.00  0.00     0.059 C 
ENDROOT
BRANCH   1   2
ATOM      2  S   UNL d   1      44.604  26.656  56.979  0.00  0.00    -0.046 SA
BRANCH   2   3
ATOM      3  C   UNL d   1      44.662  25.902  56.649  0.00  0.00     0.194 A 
ATOM      4  N   UNL d   1      44.976  25.617  55.943  0.00  0.00    -0.220 NA
ATOM      5  C   UNL d   1      44.870  24.807  55.924  0.00  0.00     0.101 A 
ATOM      6  C   UNL d   1      45.073  24.248  55.362  0.00  0.00     0.021 A 
ATOM      7  C   UNL d   1      44.501  24.589  56.597  0.00  0.00     0.101 A 
ATOM      8  C   UNL d   1      44.906  23.460  55.471  0.00  0.00     0.002 A 
ATOM      9  C   UNL d   1      44.521  23.208  56.167  0.00  0.00     0.002 A 
ATOM     10  C   UNL d   1      44.314  23.792  56.744  0.00  0.00     0.021 A 
ATOM     11  N   UNL d   1      44.355  25.256  57.077  0.00  0.00    -0.220 NA
ENDBRANCH   2   3
ENDBRANCH   1   2
BRANCH   1  12
ATOM     12  C   UNL d   1      45.156  27.931  57.181  0.00  0.00     0.107 A 
ATOM     13  C   UNL d   1      44.939  28.601  56.774  0.00  0.00     0.101 A 
ATOM     14  N   UNL d   1      44.942  29.258  57.268  0.00  0.00    -0.289 N 
ATOM     15  C   UNL d   1      45.170  28.987  58.017  0.00  0.00     0.148 A 
ATOM     16  C   UNL d   1      44.773  30.070  57.159  0.00  0.00     0.066 A 
ATOM     17  N   UNL d   1      45.304  28.166  57.974  0.00  0.00    -0.226 NA
ATOM     18  C   UNL d   1      45.228  29.516  58.648  0.00  0.00     0.037 A 
ATOM     19  C   UNL d   1      45.058  30.325  58.531  0.00  0.00     0.005 A 
ATOM     20  C   UNL d   1      44.830  30.596  57.782  0.00  0.00     0.018 A 
ATOM     21  C   UNL d   1      44.544  30.338  56.402  0.00  0.00     0.019 C 
ENDBRANCH   1  12
TORSDOF 3
ENDMDL
MODEL 7
REMARK VINA RESULT:      -5.7     10.496     11.063
REMARK  3 active torsions:
REMARK  status: ('A' for Active; 'I' for Inactive)
REMARK    1  A    between atoms: C_4  and  S_13 
REMARK    2  A    between atoms: C_16  and  C_6 
REMARK    3  A    between atoms: S_13  and  C_16 
ROOT
ATOM      1  C   UNL d   1      44.544  26.809  56.839  0.00  0.00     0.059 C 
ENDROOT
BRANCH   1   2
ATOM      2  S   UNL d   1      45.198  27.218  57.083  0.00  0.00    -0.046 SA
BRANCH   2   3
ATOM      3  C   UNL d   1      45.126  28.021  57.257  0.00  0.00     0.194 A 
ATOM      4  N   UNL d   1      44.897  28.677  56.814  0.00  0.00    -0.220 NA
ATOM      5  C   UNL d   1      44.934  29.337  57.295  0.00  0.00     0.101 A 
ATOM      6  C   UNL d   1      44.770  30.124  57.146  0.00  0.00     0.021 A 
ATOM      7  C   UNL d   1      45.179  29.104  58.018  0.00  0.00     0.101 A 
ATOM      8  C   UNL d   1      44.851  30.689  57.725  0.00  0.00     0.002 A 
ATOM      9  C   UNL d   1      45.105  30.469  58.489  0.00  0.00     0.002 A 
ATOM     10  C   UNL d   1      45.273  29.652  58.636  0.00  0.00     0.021 A 
ATOM     11  N   UNL d   1      45.309  28.279  58.029  0.00  0.00    -0.220 NA
ENDBRANCH   2   3
ENDBRANCH   1   2
BRANCH   1  12
ATOM     12  C   UNL d   1      44.614  26.021  56.638  0.00  0.00     0.107 A 
ATOM     13  C   UNL d   1      44.486  25.380  57.122  0.00  0.00     0.101 A 
ATOM     14  N   UNL d   1      44.613  24.677  56.716  0.00  0.00    -0.289 N 
ATOM     15  C   UNL d   1      44.830  24.887  55.944  0.00  0.00     0.148 A 
ATOM     16  C   UNL d   1      44.566  23.868  56.924  0.00  0.00     0.066 A 
ATOM     17  N   UNL d   1      44.833  25.718  55.886  0.00  0.00    -0.226 NA
ATOM     18  C   UNL d   1      44.998  24.302  55.388  0.00  0.00     0.037 A 
ATOM     19  C   UNL d   1      44.949  23.495  55.603  0.00  0.00     0.005 A 
ATOM     20  C   UNL d   1      44.732  23.286  56.374  0.00  0.00     0.018 A 
ATOM     21  C   UNL d   1      44.348  23.661  57.703  0.00  0.00     0.019 C 
ENDBRANCH   1  12
TORSDOF 3
ENDMDL
