MODEL 1
REMARK VINA RESULT:      14.8      0.000      0.000
REMARK  2 active torsions:
REMARK  status: ('A' for Active; 'I' for Inactive)
REMARK    1  A    between atoms: C_6  and  C_1 
REMARK    2  A    between atoms: N_8  and  C_6 
ROOT
ATOM      1  C   UNL d   1      44.968 -14.329  44.951  0.00  0.00     0.090 C 
ENDROOT
BRANCH   1   2
ATOM      2  C   UNL d   1      45.294 -15.083  44.865  0.00  0.00     0.133 A 
ATOM      3  C   UNL d   1      44.792 -15.732  44.778  0.00  0.00     0.289 A 
ATOM      4  N   UNL d   1      45.110 -16.490  44.691  0.00  0.00    -0.151 NA
ATOM      5  O   UNL d   1      43.971 -15.633  44.776  0.00  0.00    -0.265 OA
ATOM      6  C   UNL d   1      45.930 -16.590  44.692  0.00  0.00     0.374 A 
ATOM      7  N   UNL d   1      46.433 -15.941  44.779  0.00  0.00    -0.151 NA
ATOM      8  O   UNL d   1      46.248 -17.348  44.604  0.00  0.00    -0.242 OA
ATOM      9  C   UNL d   1      46.105 -15.178  44.866  0.00  0.00     0.289 A 
ATOM     10  O   UNL d   1      46.599 -14.532  44.953  0.00  0.00    -0.265 OA
ENDBRANCH   1   2
BRANCH   1  11
ATOM     11  N   UNL d   1      45.356 -13.673  44.638  0.00  0.00    -0.304 N 
ATOM     12  C   UNL d   1      45.107 -13.221  43.988  0.00  0.00     0.064 A 
ATOM     13  C   UNL d   1      45.662 -12.625  43.872  0.00  0.00     0.018 A 
ATOM     14  C   UNL d   1      44.452 -13.281  43.497  0.00  0.00     0.018 A 
ATOM     15  C   UNL d   1      45.559 -12.080  43.256  0.00  0.00     0.002 A 
ATOM     16  C   UNL d   1      46.250 -12.699  44.438  0.00  0.00     0.021 A 
ATOM     17  C   UNL d   1      44.901 -12.143  42.765  0.00  0.00     0.000 A 
ATOM     18  C   UNL d   1      44.348 -12.744  42.887  0.00  0.00     0.002 A 
ATOM     19  C   UNL d   1      46.069 -13.346  44.917  0.00  0.00     0.080 A 
ENDBRANCH   1  11
TORSDOF 2
ENDMDL
MODEL 2
REMARK VINA RESULT:      15.4      1.541      4.049
REMARK  2 active torsions:
REMARK  status: ('A' for Active; 'I' for Inactive)
REMARK    1  A    between atoms: C_6  and  C_1 
REMARK    2  A    between atoms: N_8  and  C_6 
ROOT
ATOM      1  C   UNL d   1      45.437 -16.117  43.719  0.00  0.00     0.090 C 
ENDROOT
BRANCH   1   2
ATOM      2  C   UNL d   1      45.568 -15.362  44.031  0.00  0.00     0.133 A 
ATOM      3  C   UNL d   1      46.174 -14.896  43.719  0.00  0.00     0.289 A 
ATOM      4  N   UNL d   1      46.311 -14.142  44.026  0.00  0.00    -0.151 NA
ATOM      5  O   UNL d   1      46.647 -15.177  43.101  0.00  0.00    -0.265 OA
ATOM      6  C   UNL d   1      45.839 -13.860  44.643  0.00  0.00     0.374 A 
ATOM      7  N   UNL d   1      45.234 -14.326  44.955  0.00  0.00    -0.151 NA
ATOM      8  O   UNL d   1      45.977 -13.106  44.950  0.00  0.00    -0.242 OA
ATOM      9  C   UNL d   1      45.100 -15.089  44.640  0.00  0.00     0.289 A 
ATOM     10  O   UNL d   1      44.501 -15.554  44.946  0.00  0.00    -0.265 OA
ENDBRANCH   1   2
BRANCH   1  11
ATOM     11  N   UNL d   1      45.798 -16.773  44.060  0.00  0.00    -0.304 N 
ATOM     12  C   UNL d   1      46.016 -17.471  43.669  0.00  0.00     0.064 A 
ATOM     13  C   UNL d   1      46.357 -17.973  44.225  0.00  0.00     0.018 A 
ATOM     14  C   UNL d   1      45.946 -17.705  42.885  0.00  0.00     0.018 A 
ATOM     15  C   UNL d   1      46.631 -18.720  43.992  0.00  0.00     0.002 A 
ATOM     16  C   UNL d   1      46.354 -17.599  44.954  0.00  0.00     0.021 A 
ATOM     17  C   UNL d   1      46.560 -18.952  43.205  0.00  0.00     0.000 A 
ATOM     18  C   UNL d   1      46.217 -18.443  42.652  0.00  0.00     0.002 A 
ATOM     19  C   UNL d   1      46.010 -16.855  44.862  0.00  0.00     0.080 A 
ENDBRANCH   1  11
TORSDOF 2
ENDMDL
MODEL 3
REMARK VINA RESULT:      15.9      1.931      3.256
REMARK  2 active torsions:
REMARK  status: ('A' for Active; 'I' for Inactive)
REMARK    1  A    between atoms: C_6  and  C_1 
REMARK    2  A    between atoms: N_8  and  C_6 
ROOT
ATOM      1  C   UNL d   1      46.252 -16.998  43.674  0.00  0.00     0.090 C 
ENDROOT
BRANCH   1   2
ATOM      2  C   UNL d   1      46.169 -17.816  43.592  0.00  0.00     0.133 A 
ATOM      3  C   UNL d   1      46.367 -18.308  44.225  0.00  0.00     0.289 A 
ATOM      4  N   UNL d   1      46.288 -19.126  44.151  0.00  0.00    -0.151 NA
ATOM      5  O   UNL d   1      46.646 -17.988  44.936  0.00  0.00    -0.265 OA
ATOM      6  C   UNL d   1      46.009 -19.447  43.442  0.00  0.00     0.374 A 
ATOM      7  N   UNL d   1      45.811 -18.955  42.809  0.00  0.00    -0.151 NA
ATOM      8  O   UNL d   1      45.930 -20.265  43.368  0.00  0.00    -0.242 OA
ATOM      9  C   UNL d   1      45.894 -18.128  42.890  0.00  0.00     0.289 A 
ATOM     10  O   UNL d   1      45.699 -17.638  42.265  0.00  0.00    -0.265 OA
ENDBRANCH   1   2
BRANCH   1  11
ATOM     11  N   UNL d   1      45.716 -16.573  44.134  0.00  0.00    -0.304 N 
ATOM     12  C   UNL d   1      45.708 -15.750  44.241  0.00  0.00     0.064 A 
ATOM     13  C   UNL d   1      45.079 -15.571  44.740  0.00  0.00     0.018 A 
ATOM     14  C   UNL d   1      46.189 -15.154  43.947  0.00  0.00     0.018 A 
ATOM     15  C   UNL d   1      44.931 -14.783  44.949  0.00  0.00     0.002 A 
ATOM     16  C   UNL d   1      44.699 -16.267  44.945  0.00  0.00     0.021 A 
ATOM     17  C   UNL d   1      45.416 -14.186  44.653  0.00  0.00     0.000 A 
ATOM     18  C   UNL d   1      46.045 -14.374  44.151  0.00  0.00     0.002 A 
ATOM     19  C   UNL d   1      45.086 -16.893  44.574  0.00  0.00     0.080 A 
ENDBRANCH   1  11
TORSDOF 2
ENDMDL
