MODEL 1
REMARK VINA RESULT:      38.3      0.000      0.000
REMARK  1 active torsions:
REMARK  status: ('A' for Active; 'I' for Inactive)
REMARK    1  A    between atoms: C_7  and  N_1 
ROOT
ATOM      1  N   UNL d   1      23.873  12.927  -2.763  0.00  0.00    -0.242 N 
ATOM      2  C   UNL d   1      24.239  13.531  -2.391  0.00  0.00     0.267 A 
ATOM      3  C   UNL d   1      23.325  12.402  -2.385  0.00  0.00     0.267 A 
ATOM      4  C   UNL d   1      24.067  13.646  -1.584  0.00  0.00     0.057 A 
ATOM      5  C   UNL d   1      23.187  12.553  -1.592  0.00  0.00     0.057 A 
ATOM      6  C   UNL d   1      23.564  13.176  -1.209  0.00  0.00     0.009 A 
ATOM      7  O   UNL d   1      22.948  11.779  -2.768  0.00  0.00    -0.267 OA
ATOM      8  O   UNL d   1      24.768  14.027  -2.783  0.00  0.00    -0.267 OA
ATOM      9  C   UNL d   1      23.396  13.296  -0.400  0.00  0.00     0.000 A 
ATOM     10  C   UNL d   1      22.657  12.057  -1.198  0.00  0.00     0.005 A 
ATOM     11  C   UNL d   1      24.451  14.280  -1.196  0.00  0.00     0.005 A 
ATOM     12  C   UNL d   1      22.497  12.177  -0.415  0.00  0.00     0.000 A 
ATOM     13  C   UNL d   1      24.309  14.425  -0.406  0.00  0.00     0.000 A 
ATOM     14  C   UNL d   1      22.875  12.800  -0.033  0.00  0.00     0.000 A 
ATOM     15  C   UNL d   1      23.759  13.902  -0.015  0.00  0.00     0.000 A 
ENDROOT
BRANCH   1  16
ATOM     16  C   UNL d   1      24.045  12.813  -3.568  0.00  0.00     0.070 A 
ATOM     17  C   UNL d   1      23.700  13.293  -4.157  0.00  0.00     0.021 A 
ATOM     18  C   UNL d   1      23.874  13.173  -4.933  0.00  0.00     0.043 A 
ATOM     19  C   UNL d   1      24.418  12.549  -5.189  0.00  0.00     0.196 A 
ATOM     20  C   UNL d   1      24.767  12.065  -4.613  0.00  0.00     0.043 A 
ATOM     21  O   UNL d   1      24.635  12.381  -6.007  0.00  0.00    -0.287 OA
ATOM     22  C   UNL d   1      24.574  12.204  -3.802  0.00  0.00     0.021 A 
ENDBRANCH   1  16
TORSDOF 1
ENDMDL
MODEL 2
REMARK VINA RESULT:      39.5      9.351      9.902
REMARK  1 active torsions:
REMARK  status: ('A' for Active; 'I' for Inactive)
REMARK    1  A    between atoms: C_7  and  N_1 
ROOT
ATOM      1  N   UNL d   1      13.982  13.090  -2.666  0.00  0.00    -0.242 N 
ATOM      2  C   UNL d   1      14.183  12.596  -2.072  0.00  0.00     0.267 A 
ATOM      3  C   UNL d   1      14.069  13.933  -2.631  0.00  0.00     0.267 A 
ATOM      4  C   UNL d   1      14.496  12.936  -1.379  0.00  0.00     0.057 A 
ATOM      5  C   UNL d   1      14.381  14.222  -1.931  0.00  0.00     0.057 A 
ATOM      6  C   UNL d   1      14.588  13.713  -1.318  0.00  0.00     0.009 A 
ATOM      7  O   UNL d   1      13.862  14.441  -3.243  0.00  0.00    -0.267 OA
ATOM      8  O   UNL d   1      14.087  11.779  -2.133  0.00  0.00    -0.267 OA
ATOM      9  C   UNL d   1      14.902  14.049  -0.621  0.00  0.00     0.000 A 
ATOM     10  C   UNL d   1      14.476  15.040  -1.869  0.00  0.00     0.005 A 
ATOM     11  C   UNL d   1      14.706  12.418  -0.758  0.00  0.00     0.005 A 
ATOM     12  C   UNL d   1      14.782  15.361  -1.192  0.00  0.00     0.000 A 
ATOM     13  C   UNL d   1      15.016  12.713  -0.063  0.00  0.00     0.000 A 
ATOM     14  C   UNL d   1      14.989  14.851  -0.580  0.00  0.00     0.000 A 
ATOM     15  C   UNL d   1      15.109  13.560  -0.016  0.00  0.00     0.000 A 
ENDROOT
BRANCH   1  16
ATOM     16  C   UNL d   1      13.669  12.750  -3.358  0.00  0.00     0.070 A 
ATOM     17  C   UNL d   1      13.130  12.113  -3.322  0.00  0.00     0.021 A 
ATOM     18  C   UNL d   1      12.835  11.792  -3.998  0.00  0.00     0.043 A 
ATOM     19  C   UNL d   1      13.058  12.089  -4.781  0.00  0.00     0.196 A 
ATOM     20  C   UNL d   1      13.592  12.721  -4.829  0.00  0.00     0.043 A 
ATOM     21  O   UNL d   1      12.769  11.779  -5.532  0.00  0.00    -0.287 OA
ATOM     22  C   UNL d   1      13.894  13.047  -4.110  0.00  0.00     0.021 A 
ENDBRANCH   1  16
TORSDOF 1
ENDMDL
MODEL 3
REMARK VINA RESULT:      39.8      9.244      9.743
REMARK  1 active torsions:
REMARK  status: ('A' for Active; 'I' for Inactive)
REMARK    1  A    between atoms: C_7  and  N_1 
ROOT
ATOM      1  N   UNL d   1      14.051  13.112  -2.618  0.00  0.00    -0.242 N 
ATOM      2  C   UNL d   1      14.128  13.906  -2.597  0.00  0.00     0.267 A 
ATOM      3  C   UNL d   1      14.285  12.598  -1.985  0.00  0.00     0.267 A 
ATOM      4  C   UNL d   1      14.458  14.243  -1.911  0.00  0.00     0.057 A 
ATOM      5  C   UNL d   1      14.605  12.973  -1.330  0.00  0.00     0.057 A 
ATOM      6  C   UNL d   1      14.683  13.792  -1.310  0.00  0.00     0.009 A 
ATOM      7  O   UNL d   1      14.207  11.780  -2.005  0.00  0.00    -0.267 OA
ATOM      8  O   UNL d   1      13.892  14.382  -3.228  0.00  0.00    -0.267 OA
ATOM      9  C   UNL d   1      15.013  14.136  -0.624  0.00  0.00     0.000 A 
ATOM     10  C   UNL d   1      14.841  12.497  -0.699  0.00  0.00     0.005 A 
ATOM     11  C   UNL d   1      14.537  15.075  -1.891  0.00  0.00     0.005 A 
ATOM     12  C   UNL d   1      15.161  12.834  -0.036  0.00  0.00     0.000 A 
ATOM     13  C   UNL d   1      14.856  15.443  -1.237  0.00  0.00     0.000 A 
ATOM     14  C   UNL d   1      15.239  13.653  -0.017  0.00  0.00     0.000 A 
ATOM     15  C   UNL d   1      15.095  14.936  -0.593  0.00  0.00     0.000 A 
ENDROOT
BRANCH   1  16
ATOM     16  C   UNL d   1      13.722  12.776  -3.303  0.00  0.00     0.070 A 
ATOM     17  C   UNL d   1      13.190  12.134  -3.258  0.00  0.00     0.021 A 
ATOM     18  C   UNL d   1      12.878  11.817  -3.928  0.00  0.00     0.043 A 
ATOM     19  C   UNL d   1      13.077  12.123  -4.714  0.00  0.00     0.196 A 
ATOM     20  C   UNL d   1      13.604  12.759  -4.772  0.00  0.00     0.043 A 
ATOM     21  O   UNL d   1      12.769  11.817  -5.460  0.00  0.00    -0.287 OA
ATOM     22  C   UNL d   1      13.924  13.081  -4.059  0.00  0.00     0.021 A 
ENDBRANCH   1  16
TORSDOF 1
ENDMDL
