MODEL 1
REMARK VINA RESULT:      51.8      0.000      0.000
REMARK  6 active torsions:
REMARK  status: ('A' for Active; 'I' for Inactive)
REMARK    1  A    between atoms: C_4  and  C_1 
REMARK    2  A    between atoms: C_7  and  C_4 
REMARK    3  A    between atoms: N_10  and  C_7 
REMARK    4  A    between atoms: C_13  and  N_10 
REMARK    5  A    between atoms: O_18  and  C_11 
REMARK    6  A    between atoms: O_20  and  C_15 
ROOT
ATOM      1  C   UNL d   1      15.132  14.159  -0.983  0.00  0.00     0.122 C 
ATOM      2  C   UNL d   1      15.786  13.777  -0.661  0.00  0.00     0.106 C 
ATOM      3  N   UNL d   1      16.440  13.394  -0.338  0.00  0.00    -0.191 NA
ENDROOT
BRANCH   1   4
ATOM      4  C   UNL d   1      15.114  14.982  -1.025  0.00  0.00     0.159 A 
ATOM      5  N   UNL d   1      14.938  15.499  -0.404  0.00  0.00    -0.226 NA
ATOM      6  C   UNL d   1      14.984  16.266  -0.690  0.00  0.00     0.099 A 
ATOM      7  C   UNL d   1      14.866  17.004  -0.328  0.00  0.00     0.021 A 
ATOM      8  C   UNL d   1      15.189  16.229  -1.488  0.00  0.00     0.083 A 
ATOM      9  C   UNL d   1      14.955  17.696  -0.772  0.00  0.00     0.002 A 
ATOM     10  C   UNL d   1      15.159  17.660  -1.569  0.00  0.00     0.002 A 
ATOM     11  C   UNL d   1      15.278  16.931  -1.933  0.00  0.00     0.019 A 
ATOM     12  N   UNL d   1      15.270  15.440  -1.698  0.00  0.00    -0.287 N 
ATOM     13  C   UNL d   1      15.471  15.143  -2.447  0.00  0.00     0.101 C 
ENDBRANCH   1   4
BRANCH   1  14
ATOM     14  C   UNL d   1      14.496  13.718  -1.263  0.00  0.00     0.112 C 
BRANCH  14  15
ATOM     15  N   UNL d   1      14.616  12.950  -1.539  0.00  0.00    -0.241 NA
BRANCH  15  16
ATOM     16  C   UNL d   1      14.158  12.657  -2.157  0.00  0.00     0.104 A 
ATOM     17  C   UNL d   1      13.594  12.072  -2.014  0.00  0.00     0.114 A 
ATOM     18  C   UNL d   1      13.136  11.780  -2.633  0.00  0.00     0.050 A 
ATOM     19  C   UNL d   1      13.241  12.072  -3.399  0.00  0.00     0.096 A 
ATOM     20  C   UNL d   1      13.805  12.657  -3.538  0.00  0.00     0.026 A 
ATOM     21  C   UNL d   1      14.263  12.950  -2.920  0.00  0.00     0.023 A 
BRANCH  17  22
ATOM     22  O   UNL d   1      13.489  11.779  -1.252  0.00  0.00    -0.327 OA
ATOM     23  C   UNL d   1      13.039  12.203  -0.705  0.00  0.00     0.181 C 
ENDBRANCH  17  22
BRANCH  19  24
ATOM     24  O   UNL d   1      12.783  11.780  -4.018  0.00  0.00    -0.328 OA
ATOM     25  C   UNL d   1      13.043  11.859  -4.803  0.00  0.00     0.181 C 
ENDBRANCH  19  24
ENDBRANCH  15  16
ENDBRANCH  14  15
ENDBRANCH   1  14
TORSDOF 6
ENDMDL
MODEL 2
REMARK VINA RESULT:      52.9      3.039      3.948
REMARK  6 active torsions:
REMARK  status: ('A' for Active; 'I' for Inactive)
REMARK    1  A    between atoms: C_4  and  C_1 
REMARK    2  A    between atoms: C_7  and  C_4 
REMARK    3  A    between atoms: N_10  and  C_7 
REMARK    4  A    between atoms: C_13  and  N_10 
REMARK    5  A    between atoms: O_18  and  C_11 
REMARK    6  A    between atoms: O_20  and  C_15 
ROOT
ATOM      1  C   UNL d   1      13.358  12.989  -4.696  0.00  0.00     0.122 C 
ATOM      2  C   UNL d   1      13.442  12.395  -5.259  0.00  0.00     0.106 C 
ATOM      3  N   UNL d   1      13.525  11.800  -5.822  0.00  0.00    -0.191 NA
ENDROOT
BRANCH   1   4
ATOM      4  C   UNL d   1      13.438  13.781  -4.916  0.00  0.00     0.159 A 
ATOM      5  N   UNL d   1      13.030  14.421  -4.590  0.00  0.00    -0.226 NA
ATOM      6  C   UNL d   1      13.278  15.103  -4.971  0.00  0.00     0.099 A 
ATOM      7  C   UNL d   1      13.067  15.901  -4.881  0.00  0.00     0.021 A 
ATOM      8  C   UNL d   1      13.840  14.889  -5.536  0.00  0.00     0.083 A 
ATOM      9  C   UNL d   1      13.422  16.475  -5.359  0.00  0.00     0.002 A 
ATOM     10  C   UNL d   1      13.983  16.261  -5.923  0.00  0.00     0.002 A 
ATOM     11  C   UNL d   1      14.196  15.472  -6.016  0.00  0.00     0.019 A 
ATOM     12  N   UNL d   1      13.941  14.075  -5.505  0.00  0.00    -0.287 N 
ATOM     13  C   UNL d   1      14.453  13.619  -5.975  0.00  0.00     0.101 C 
ENDBRANCH   1   4
BRANCH   1  14
ATOM     14  C   UNL d   1      13.196  12.794  -3.913  0.00  0.00     0.112 C 
BRANCH  14  15
ATOM     15  N   UNL d   1      13.485  12.090  -3.595  0.00  0.00    -0.241 NA
BRANCH  15  16
ATOM     16  C   UNL d   1      13.593  12.018  -2.782  0.00  0.00     0.104 A 
ATOM     17  C   UNL d   1      14.350  11.903  -2.475  0.00  0.00     0.114 A 
ATOM     18  C   UNL d   1      14.458  11.831  -1.661  0.00  0.00     0.050 A 
ATOM     19  C   UNL d   1      13.808  11.873  -1.153  0.00  0.00     0.096 A 
ATOM     20  C   UNL d   1      13.053  11.988  -1.464  0.00  0.00     0.026 A 
ATOM     21  C   UNL d   1      12.944  12.060  -2.277  0.00  0.00     0.023 A 
BRANCH  17  22
ATOM     22  O   UNL d   1      14.998  11.861  -2.979  0.00  0.00    -0.327 OA
ATOM     23  C   UNL d   1      15.751  12.058  -2.703  0.00  0.00     0.181 C 
ENDBRANCH  17  22
BRANCH  19  24
ATOM     24  O   UNL d   1      13.915  11.801  -0.339  0.00  0.00    -0.328 OA
ATOM     25  C   UNL d   1      14.681  11.785  -0.019  0.00  0.00     0.181 C 
ENDBRANCH  19  24
ENDBRANCH  15  16
ENDBRANCH  14  15
ENDBRANCH   1  14
TORSDOF 6
ENDMDL
