MODEL 1
REMARK VINA RESULT:      34.8      0.000      0.000
REMARK  3 active torsions:
REMARK  status: ('A' for Active; 'I' for Inactive)
REMARK    1  A    between atoms: C_9  and  C_1 
REMARK    2  A    between atoms: C_4  and  C_5 
REMARK       I    between atoms: C_5  and  N_8 
REMARK    3  A    between atoms: N_8  and  C_16 
ROOT
ATOM      1  C   UNL d   1      45.891 -15.344  43.611  0.00  0.00     0.024 A 
ATOM      2  C   UNL d   1      46.021 -15.489  42.821  0.00  0.00     0.004 A 
ATOM      3  C   UNL d   1      45.962 -15.939  44.170  0.00  0.00     0.004 A 
ATOM      4  C   UNL d   1      46.301 -16.849  43.134  0.00  0.00     0.085 A 
ATOM      5  C   UNL d   1      46.167 -16.693  43.934  0.00  0.00     0.019 A 
ATOM      6  C   UNL d   1      46.228 -16.246  42.577  0.00  0.00     0.019 A 
ENDROOT
BRANCH   1   7
ATOM      7  C   UNL d   1      45.685 -14.584  43.850  0.00  0.00     0.111 A 
ATOM      8  N   UNL d   1      45.041 -14.142  43.565  0.00  0.00    -0.239 NA
ATOM      9  C   UNL d   1      45.040 -13.409  43.957  0.00  0.00     0.088 A 
ATOM     10  C   UNL d   1      44.548 -12.759  43.906  0.00  0.00     0.020 A 
ATOM     11  C   UNL d   1      45.684 -13.400  44.484  0.00  0.00     0.049 A 
ATOM     12  C   UNL d   1      44.686 -12.093  44.374  0.00  0.00     0.002 A 
ATOM     13  C   UNL d   1      45.323 -12.081  44.898  0.00  0.00     0.001 A 
ATOM     14  C   UNL d   1      45.825 -12.736  44.954  0.00  0.00     0.008 A 
ATOM     15  S   UNL d   1      46.077 -14.122  44.415  0.00  0.00    -0.066 SA
ENDBRANCH   1   7
BRANCH   4  16
ATOM     16  N   UNL d   1      46.509 -17.612  42.895  0.00  0.00    -0.206 NA
ATOM     17  C   UNL d   1      45.997 -18.041  42.411  0.00  0.00     0.304 C 
ATOM     18  O   UNL d   1      45.287 -17.719  42.164  0.00  0.00    -0.263 OA
BRANCH  17  19
ATOM     19  C   UNL d   1      46.215 -18.809  42.176  0.00  0.00     0.182 A 
ATOM     20  O   UNL d   1      46.310 -18.972  41.369  0.00  0.00    -0.296 OA
ATOM     21  C   UNL d   1      46.526 -19.735  41.140  0.00  0.00     0.150 A 
ATOM     22  C   UNL d   1      46.646 -20.326  41.705  0.00  0.00     0.149 A 
ATOM     23  O   UNL d   1      46.549 -20.154  42.498  0.00  0.00    -0.299 OA
ATOM     24  C   UNL d   1      46.335 -19.401  42.740  0.00  0.00     0.152 A 
ENDBRANCH  17  19
ENDBRANCH   4  16
TORSDOF 3
ENDMDL
MODEL 2
REMARK VINA RESULT:      36.3      0.727      1.043
REMARK  3 active torsions:
REMARK  status: ('A' for Active; 'I' for Inactive)
REMARK    1  A    between atoms: C_9  and  C_1 
REMARK    2  A    between atoms: C_4  and  C_5 
REMARK       I    between atoms: C_5  and  N_8 
REMARK    3  A    between atoms: N_8  and  C_16 
ROOT
ATOM      1  C   UNL d   1      45.802 -15.470  43.730  0.00  0.00     0.024 A 
ATOM      2  C   UNL d   1      46.547 -15.793  43.685  0.00  0.00     0.004 A 
ATOM      3  C   UNL d   1      45.137 -15.905  43.528  0.00  0.00     0.004 A 
ATOM      4  C   UNL d   1      45.973 -17.013  43.229  0.00  0.00     0.085 A 
ATOM      5  C   UNL d   1      45.220 -16.677  43.277  0.00  0.00     0.019 A 
ATOM      6  C   UNL d   1      46.637 -16.570  43.434  0.00  0.00     0.019 A 
ENDROOT
BRANCH   1   7
ATOM      7  C   UNL d   1      45.717 -14.692  43.982  0.00  0.00     0.111 A 
ATOM      8  N   UNL d   1      46.336 -14.176  44.187  0.00  0.00    -0.239 NA
ATOM      9  C   UNL d   1      46.000 -13.449  44.409  0.00  0.00     0.088 A 
ATOM     10  C   UNL d   1      46.330 -12.745  44.660  0.00  0.00     0.020 A 
ATOM     11  C   UNL d   1      45.174 -13.518  44.341  0.00  0.00     0.049 A 
ATOM     12  C   UNL d   1      45.848 -12.101  44.847  0.00  0.00     0.002 A 
ATOM     13  C   UNL d   1      45.028 -12.165  44.780  0.00  0.00     0.001 A 
ATOM     14  C   UNL d   1      44.688 -12.875  44.527  0.00  0.00     0.008 A 
ATOM     15  S   UNL d   1      45.004 -14.280  44.079  0.00  0.00    -0.066 SA
ENDBRANCH   1   7
BRANCH   4  16
ATOM     16  N   UNL d   1      46.057 -17.795  42.975  0.00  0.00    -0.206 NA
ATOM     17  C   UNL d   1      45.987 -17.973  42.173  0.00  0.00     0.304 C 
ATOM     18  O   UNL d   1      45.836 -17.383  41.626  0.00  0.00    -0.263 OA
BRANCH  17  19
ATOM     19  C   UNL d   1      46.073 -18.763  41.927  0.00  0.00     0.182 A 
ATOM     20  O   UNL d   1      45.810 -19.370  42.425  0.00  0.00    -0.296 OA
ATOM     21  C   UNL d   1      45.897 -20.153  42.177  0.00  0.00     0.150 A 
ATOM     22  C   UNL d   1      46.240 -20.328  41.447  0.00  0.00     0.149 A 
ATOM     23  O   UNL d   1      46.496 -19.721  40.963  0.00  0.00    -0.299 OA
ATOM     24  C   UNL d   1      46.416 -18.939  41.196  0.00  0.00     0.152 A 
ENDBRANCH  17  19
ENDBRANCH   4  16
TORSDOF 3
ENDMDL
