MODEL 1
REMARK VINA RESULT:      13.9      0.000      0.000
REMARK  1 active torsions:
REMARK  status: ('A' for Active; 'I' for Inactive)
REMARK    1  A    between atoms: N_3  and  C_1 
ROOT
ATOM      1  C   UNL d   1      24.168  12.263  -2.460  0.00  0.00     0.158 A 
ATOM      2  C   UNL d   1      23.486  12.534  -2.843  0.00  0.00     0.103 A 
ATOM      3  C   UNL d   1      22.881  12.899  -2.415  0.00  0.00     0.104 C 
ATOM      4  N   UNL d   1      22.282  13.261  -1.984  0.00  0.00    -0.191 NA
ATOM      5  N   UNL d   1      24.768  11.900  -2.895  0.00  0.00    -0.226 NA
ATOM      6  C   UNL d   1      23.408  12.441  -3.659  0.00  0.00     0.015 A 
ATOM      7  C   UNL d   1      24.689  11.807  -3.708  0.00  0.00     0.101 A 
ATOM      8  C   UNL d   1      24.007  12.078  -4.091  0.00  0.00     0.021 A 
ENDROOT
BRANCH   1   9
ATOM      9  N   UNL d   1      24.245  12.357  -1.648  0.00  0.00    -0.286 N 
ATOM     10  C   UNL d   1      24.680  12.994  -1.347  0.00  0.00     0.102 A 
ATOM     11  C   UNL d   1      24.756  13.087  -0.536  0.00  0.00     0.118 A 
ATOM     12  N   UNL d   1      24.404  12.554  -0.022  0.00  0.00    -0.239 NA
ATOM     13  C   UNL d   1      23.971  11.921  -0.322  0.00  0.00     0.118 A 
ATOM     14  C   UNL d   1      23.891  11.821  -1.136  0.00  0.00     0.102 A 
ENDBRANCH   1   9
TORSDOF 1
ENDMDL
MODEL 2
REMARK VINA RESULT:      14.8      8.691      9.816
REMARK  1 active torsions:
REMARK  status: ('A' for Active; 'I' for Inactive)
REMARK    1  A    between atoms: N_3  and  C_1 
ROOT
ATOM      1  C   UNL d   1      14.193  12.408  -1.944  0.00  0.00     0.158 A 
ATOM      2  C   UNL d   1      13.473  12.032  -1.785  0.00  0.00     0.103 A 
ATOM      3  C   UNL d   1      13.228  11.904  -1.006  0.00  0.00     0.104 C 
ATOM      4  N   UNL d   1      12.990  11.780  -0.229  0.00  0.00    -0.191 NA
ATOM      5  N   UNL d   1      14.430  12.532  -2.724  0.00  0.00    -0.226 NA
ATOM      6  C   UNL d   1      12.994  11.780  -2.408  0.00  0.00     0.015 A 
ATOM      7  C   UNL d   1      13.952  12.281  -3.344  0.00  0.00     0.101 A 
ATOM      8  C   UNL d   1      13.232  11.904  -3.186  0.00  0.00     0.021 A 
ENDROOT
BRANCH   1   9
ATOM      9  N   UNL d   1      14.668  12.658  -1.323  0.00  0.00    -0.286 N 
ATOM     10  C   UNL d   1      14.665  13.454  -1.096  0.00  0.00     0.102 A 
ATOM     11  C   UNL d   1      15.140  13.702  -0.476  0.00  0.00     0.118 A 
ATOM     12  N   UNL d   1      15.618  13.168  -0.078  0.00  0.00    -0.239 NA
ATOM     13  C   UNL d   1      15.622  12.375  -0.305  0.00  0.00     0.118 A 
ATOM     14  C   UNL d   1      15.146  12.119  -0.928  0.00  0.00     0.102 A 
ENDBRANCH   1   9
TORSDOF 1
ENDMDL
MODEL 3
REMARK VINA RESULT:      15.8      9.227     10.334
REMARK  1 active torsions:
REMARK  status: ('A' for Active; 'I' for Inactive)
REMARK    1  A    between atoms: N_3  and  C_1 
ROOT
ATOM      1  C   UNL d   1      13.517  12.362  -3.100  0.00  0.00     0.158 A 
ATOM      2  C   UNL d   1      13.532  13.145  -3.368  0.00  0.00     0.103 A 
ATOM      3  C   UNL d   1      13.902  13.735  -2.923  0.00  0.00     0.104 C 
ATOM      4  N   UNL d   1      14.272  14.317  -2.476  0.00  0.00    -0.191 NA
ATOM      5  N   UNL d   1      13.145  11.779  -3.550  0.00  0.00    -0.226 NA
ATOM      6  C   UNL d   1      13.175  13.342  -4.086  0.00  0.00     0.015 A 
ATOM      7  C   UNL d   1      12.789  11.976  -4.265  0.00  0.00     0.101 A 
ATOM      8  C   UNL d   1      12.804  12.760  -4.534  0.00  0.00     0.021 A 
ENDROOT
BRANCH   1   9
ATOM      9  N   UNL d   1      13.873  12.169  -2.386  0.00  0.00    -0.286 N 
ATOM     10  C   UNL d   1      13.404  11.972  -1.733  0.00  0.00     0.102 A 
ATOM     11  C   UNL d   1      13.759  11.779  -1.020  0.00  0.00     0.118 A 
ATOM     12  N   UNL d   1      14.576  11.779  -0.950  0.00  0.00    -0.239 NA
ATOM     13  C   UNL d   1      15.043  11.974  -1.600  0.00  0.00     0.118 A 
ATOM     14  C   UNL d   1      14.692  12.170  -2.320  0.00  0.00     0.102 A 
ENDBRANCH   1   9
TORSDOF 1
ENDMDL
