MODEL 1
REMARK VINA RESULT:      -2.2      0.000      0.000
REMARK  4 active torsions:
REMARK  status: ('A' for Active; 'I' for Inactive)
REMARK    1  A    between atoms: C_2  and  N_1 
REMARK    2  A    between atoms: C_6  and  C_2 
REMARK    3  A    between atoms: C_7  and  C_2 
REMARK    4  A    between atoms: C_9  and  C_6 
ROOT
ATOM      1  C   UNL d   1      31.560  16.646 -24.102  0.00  0.00     0.153 C 
ENDROOT
BRANCH   1   2
ATOM      2  N   UNL d   1      30.788  16.431 -23.901  0.00  0.00    -0.224 N 
ATOM      3  N   UNL d   1      30.551  15.982 -23.265  0.00  0.00    -0.165 NA
ATOM      4  C   UNL d   1      29.737  15.908 -23.284  0.00  0.00     0.103 A 
ATOM      5  C   UNL d   1      29.255  15.481 -22.719  0.00  0.00     0.022 C 
ATOM      6  C   UNL d   1      29.454  16.316 -23.943  0.00  0.00     0.040 A 
ATOM      7  C   UNL d   1      30.097  16.634 -24.319  0.00  0.00     0.085 A 
ATOM      8  C   UNL d   1      30.055  17.097 -25.021  0.00  0.00     0.021 C 
ENDBRANCH   1   2
BRANCH   1   9
ATOM      9  C   UNL d   1      31.786  17.446 -24.107  0.00  0.00     0.096 C 
BRANCH   9  10
ATOM     10  C   UNL d   1      32.475  17.674 -23.723  0.00  0.00     0.213 C 
ATOM     11  O   UNL d   1      33.178  17.809 -24.135  0.00  0.00    -0.644 OA
ATOM     12  O   UNL d   1      32.506  17.783 -22.898  0.00  0.00    -0.644 OA
ENDBRANCH   9  10
ENDBRANCH   1   9
BRANCH   1  13
ATOM     13  C   UNL d   1      32.107  16.071 -24.299  0.00  0.00     0.230 C 
ATOM     14  O   UNL d   1      32.298  15.945 -25.096  0.00  0.00    -0.643 OA
ATOM     15  O   UNL d   1      32.474  15.611 -23.710  0.00  0.00    -0.643 OA
ENDBRANCH   1  13
TORSDOF 4
ENDMDL
MODEL 2
REMARK VINA RESULT:      -2.2      1.931      3.057
REMARK  4 active torsions:
REMARK  status: ('A' for Active; 'I' for Inactive)
REMARK    1  A    between atoms: C_2  and  N_1 
REMARK    2  A    between atoms: C_6  and  C_2 
REMARK    3  A    between atoms: C_7  and  C_2 
REMARK    4  A    between atoms: C_9  and  C_6 
ROOT
ATOM      1  C   UNL d   1      29.968  16.163 -24.038  0.00  0.00     0.153 C 
ENDROOT
BRANCH   1   2
ATOM      2  N   UNL d   1      30.752  16.424 -24.052  0.00  0.00    -0.224 N 
ATOM      3  N   UNL d   1      31.075  17.037 -23.628  0.00  0.00    -0.165 NA
ATOM      4  C   UNL d   1      31.869  17.097 -23.816  0.00  0.00     0.103 A 
ATOM      5  C   UNL d   1      32.422  17.669 -23.496  0.00  0.00     0.022 C 
ATOM      6  C   UNL d   1      32.051  16.512 -24.367  0.00  0.00     0.040 A 
ATOM      7  C   UNL d   1      31.368  16.101 -24.511  0.00  0.00     0.085 A 
ATOM      8  C   UNL d   1      31.307  15.453 -25.044  0.00  0.00     0.021 C 
ENDBRANCH   1   2
BRANCH   1   9
ATOM      9  C   UNL d   1      29.766  15.453 -23.657  0.00  0.00     0.096 C 
BRANCH   9  10
ATOM     10  C   UNL d   1      29.227  15.465 -23.038  0.00  0.00     0.213 C 
ATOM     11  O   UNL d   1      28.412  15.461 -23.172  0.00  0.00    -0.644 OA
ATOM     12  O   UNL d   1      29.468  15.481 -22.242  0.00  0.00    -0.644 OA
ENDBRANCH   9  10
ENDBRANCH   1   9
BRANCH   1  13
ATOM     13  C   UNL d   1      29.384  16.605 -24.402  0.00  0.00     0.230 C 
ATOM     14  O   UNL d   1      29.023  16.317 -25.091  0.00  0.00    -0.643 OA
ATOM     15  O   UNL d   1      29.147  17.340 -24.090  0.00  0.00    -0.643 OA
ENDBRANCH   1  13
TORSDOF 4
ENDMDL
MODEL 3
REMARK VINA RESULT:      -2.1      1.482      2.808
REMARK  4 active torsions:
REMARK  status: ('A' for Active; 'I' for Inactive)
REMARK    1  A    between atoms: C_2  and  N_1 
REMARK    2  A    between atoms: C_6  and  C_2 
REMARK    3  A    between atoms: C_7  and  C_2 
REMARK    4  A    between atoms: C_9  and  C_6 
ROOT
ATOM      1  C   UNL d   1      32.147  16.844 -24.003  0.00  0.00     0.153 C 
ENDROOT
BRANCH   1   2
ATOM      2  N   UNL d   1      32.434  17.573 -23.743  0.00  0.00    -0.224 N 
ATOM      3  N   UNL d   1      32.686  17.766 -22.994  0.00  0.00    -0.165 NA
ATOM      4  C   UNL d   1      32.923  18.548 -22.989  0.00  0.00     0.103 A 
ATOM      5  C   UNL d   1      33.228  18.980 -22.314  0.00  0.00     0.022 C 
ATOM      6  C   UNL d   1      32.819  18.857 -23.746  0.00  0.00     0.040 A 
ATOM      7  C   UNL d   1      32.521  18.260 -24.206  0.00  0.00     0.085 A 
ATOM      8  C   UNL d   1      32.332  18.339 -25.022  0.00  0.00     0.021 C 
ENDBRANCH   1   2
BRANCH   1   9
ATOM      9  C   UNL d   1      31.348  16.757 -24.217  0.00  0.00     0.096 C 
BRANCH   9  10
ATOM     10  C   UNL d   1      30.908  16.143 -23.895  0.00  0.00     0.213 C 
ATOM     11  O   UNL d   1      30.613  16.178 -23.125  0.00  0.00    -0.644 OA
ATOM     12  O   UNL d   1      30.733  15.453 -24.325  0.00  0.00    -0.644 OA
ENDBRANCH   9  10
ENDBRANCH   1   9
BRANCH   1  13
ATOM     13  C   UNL d   1      32.650  16.200 -24.051  0.00  0.00     0.230 C 
ATOM     14  O   UNL d   1      32.923  15.951 -24.794  0.00  0.00    -0.643 OA
ATOM     15  O   UNL d   1      32.890  15.793 -23.366  0.00  0.00    -0.643 OA
ENDBRANCH   1  13
TORSDOF 4
ENDMDL
MODEL 4
REMARK VINA RESULT:      -1.9      1.409      2.049
REMARK  4 active torsions:
REMARK  status: ('A' for Active; 'I' for Inactive)
REMARK    1  A    between atoms: C_2  and  N_1 
REMARK    2  A    between atoms: C_6  and  C_2 
REMARK    3  A    between atoms: C_7  and  C_2 
REMARK    4  A    between atoms: C_9  and  C_6 
ROOT
ATOM      1  C   UNL d   1      32.617  17.642 -23.856  0.00  0.00     0.153 C 
ENDROOT
BRANCH   1   2
ATOM      2  N   UNL d   1      32.157  16.976 -23.688  0.00  0.00    -0.224 N 
ATOM      3  N   UNL d   1      31.350  16.945 -23.594  0.00  0.00    -0.165 NA
ATOM      4  C   UNL d   1      31.133  16.173 -23.434  0.00  0.00     0.103 A 
ATOM      5  C   UNL d   1      30.335  15.890 -23.297  0.00  0.00     0.022 C 
ATOM      6  C   UNL d   1      31.813  15.708 -23.427  0.00  0.00     0.040 A 
ATOM      7  C   UNL d   1      32.438  16.199 -23.582  0.00  0.00     0.085 A 
ATOM      8  C   UNL d   1      33.240  15.948 -23.625  0.00  0.00     0.021 C 
ENDBRANCH   1   2
BRANCH   1   9
ATOM      9  C   UNL d   1      33.119  17.964 -23.277  0.00  0.00     0.096 C 
BRANCH   9  10
ATOM     10  C   UNL d   1      33.006  18.738 -23.028  0.00  0.00     0.213 C 
ATOM     11  O   UNL d   1      33.237  19.381 -23.492  0.00  0.00    -0.644 OA
ATOM     12  O   UNL d   1      32.653  18.920 -22.297  0.00  0.00    -0.644 OA
ENDBRANCH   9  10
ENDBRANCH   1   9
BRANCH   1  13
ATOM     13  C   UNL d   1      32.580  17.988 -24.596  0.00  0.00     0.230 C 
ATOM     14  O   UNL d   1      33.241  17.953 -25.096  0.00  0.00    -0.643 OA
ATOM     15  O   UNL d   1      31.889  18.374 -24.852  0.00  0.00    -0.643 OA
ENDBRANCH   1  13
TORSDOF 4
ENDMDL
MODEL 5
REMARK VINA RESULT:      -1.8      5.374      6.677
REMARK  4 active torsions:
REMARK  status: ('A' for Active; 'I' for Inactive)
REMARK    1  A    between atoms: C_2  and  N_1 
REMARK    2  A    between atoms: C_6  and  C_2 
REMARK    3  A    between atoms: C_7  and  C_2 
REMARK    4  A    between atoms: C_9  and  C_6 
ROOT
ATOM      1  C   UNL d   1      32.572  22.275 -20.752  0.00  0.00     0.153 C 
ENDROOT
BRANCH   1   2
ATOM      2  N   UNL d   1      32.788  21.686 -21.289  0.00  0.00    -0.224 N 
ATOM      3  N   UNL d   1      32.746  20.881 -21.182  0.00  0.00    -0.165 NA
ATOM      4  C   UNL d   1      33.018  20.511 -21.859  0.00  0.00     0.103 A 
ATOM      5  C   UNL d   1      33.070  19.665 -21.987  0.00  0.00     0.022 C 
ATOM      6  C   UNL d   1      33.235  21.091 -22.404  0.00  0.00     0.040 A 
ATOM      7  C   UNL d   1      33.094  21.808 -22.054  0.00  0.00     0.085 A 
ATOM      8  C   UNL d   1      33.240  22.552 -22.421  0.00  0.00     0.021 C 
ENDBRANCH   1   2
BRANCH   1   9
ATOM      9  C   UNL d   1      33.139  22.615 -20.249  0.00  0.00     0.096 C 
BRANCH   9  10
ATOM     10  C   UNL d   1      32.983  22.677 -19.445  0.00  0.00     0.213 C 
ATOM     11  O   UNL d   1      33.198  22.082 -18.915  0.00  0.00    -0.644 OA
ATOM     12  O   UNL d   1      32.600  23.340 -19.119  0.00  0.00    -0.644 OA
ENDBRANCH   9  10
ENDBRANCH   1   9
BRANCH   1  13
ATOM     13  C   UNL d   1      31.795  22.527 -20.712  0.00  0.00     0.230 C 
ATOM     14  O   UNL d   1      31.223  22.034 -20.367  0.00  0.00    -0.643 OA
ATOM     15  O   UNL d   1      31.570  23.270 -21.013  0.00  0.00    -0.643 OA
ENDBRANCH   1  13
TORSDOF 4
ENDMDL
MODEL 6
REMARK VINA RESULT:      -0.6      5.285      6.572
REMARK  4 active torsions:
REMARK  status: ('A' for Active; 'I' for Inactive)
REMARK    1  A    between atoms: C_2  and  N_1 
REMARK    2  A    between atoms: C_6  and  C_2 
REMARK    3  A    between atoms: C_7  and  C_2 
REMARK    4  A    between atoms: C_9  and  C_6 
ROOT
ATOM      1  C   UNL d   1      32.585  21.590 -21.256  0.00  0.00     0.153 C 
ENDROOT
BRANCH   1   2
ATOM      2  N   UNL d   1      32.684  22.321 -21.629  0.00  0.00    -0.224 N 
ATOM      3  N   UNL d   1      32.568  22.493 -22.415  0.00  0.00    -0.165 NA
ATOM      4  C   UNL d   1      32.731  23.286 -22.537  0.00  0.00     0.103 A 
ATOM      5  C   UNL d   1      32.681  23.702 -23.284  0.00  0.00     0.022 C 
ATOM      6  C   UNL d   1      32.952  23.620 -21.817  0.00  0.00     0.040 A 
ATOM      7  C   UNL d   1      32.923  23.030 -21.263  0.00  0.00     0.085 A 
ATOM      8  C   UNL d   1      33.109  23.134 -20.448  0.00  0.00     0.021 C 
ENDBRANCH   1   2
BRANCH   1   9
ATOM      9  C   UNL d   1      33.241  21.101 -21.108  0.00  0.00     0.096 C 
BRANCH   9  10
ATOM     10  C   UNL d   1      33.164  20.287 -21.185  0.00  0.00     0.213 C 
ATOM     11  O   UNL d   1      33.194  19.917 -21.923  0.00  0.00    -0.644 OA
ATOM     12  O   UNL d   1      33.053  19.789 -20.528  0.00  0.00    -0.644 OA
ENDBRANCH   9  10
ENDBRANCH   1   9
BRANCH   1  13
ATOM     13  C   UNL d   1      31.839  21.343 -21.031  0.00  0.00     0.230 C 
ATOM     14  O   UNL d   1      31.545  21.561 -20.286  0.00  0.00    -0.643 OA
ATOM     15  O   UNL d   1      31.371  20.878 -21.538  0.00  0.00    -0.643 OA
ENDBRANCH   1  13
TORSDOF 4
ENDMDL
MODEL 7
REMARK VINA RESULT:       0.7      5.025      6.245
REMARK  4 active torsions:
REMARK  status: ('A' for Active; 'I' for Inactive)
REMARK    1  A    between atoms: C_2  and  N_1 
REMARK    2  A    between atoms: C_6  and  C_2 
REMARK    3  A    between atoms: C_7  and  C_2 
REMARK    4  A    between atoms: C_9  and  C_6 
ROOT
ATOM      1  C   UNL d   1      32.847  22.022 -21.494  0.00  0.00     0.153 C 
ENDROOT
BRANCH   1   2
ATOM      2  N   UNL d   1      32.975  21.208 -21.554  0.00  0.00    -0.224 N 
ATOM      3  N   UNL d   1      32.952  20.754 -22.228  0.00  0.00    -0.165 NA
ATOM      4  C   UNL d   1      33.114  19.978 -22.028  0.00  0.00     0.103 A 
ATOM      5  C   UNL d   1      33.146  19.313 -22.568  0.00  0.00     0.022 C 
ATOM      6  C   UNL d   1      33.241  19.940 -21.214  0.00  0.00     0.040 A 
ATOM      7  C   UNL d   1      33.156  20.692 -20.926  0.00  0.00     0.085 A 
ATOM      8  C   UNL d   1      33.240  20.902 -20.115  0.00  0.00     0.021 C 
ENDBRANCH   1   2
BRANCH   1   9
ATOM      9  C   UNL d   1      33.240  22.550 -22.001  0.00  0.00     0.096 C 
BRANCH   9  10
ATOM     10  C   UNL d   1      32.809  23.120 -22.406  0.00  0.00     0.213 C 
ATOM     11  O   UNL d   1      32.161  23.499 -22.061  0.00  0.00    -0.644 OA
ATOM     12  O   UNL d   1      32.998  23.348 -23.183  0.00  0.00    -0.644 OA
ENDBRANCH   9  10
ENDBRANCH   1   9
BRANCH   1  13
ATOM     13  C   UNL d   1      32.329  22.313 -20.931  0.00  0.00     0.230 C 
ATOM     14  O   UNL d   1      32.629  22.636 -20.229  0.00  0.00    -0.643 OA
ATOM     15  O   UNL d   1      31.506  22.290 -21.055  0.00  0.00    -0.643 OA
ENDBRANCH   1  13
TORSDOF 4
ENDMDL
