MODEL 1
REMARK VINA RESULT:      16.1      0.000      0.000
REMARK  2 active torsions:
REMARK  status: ('A' for Active; 'I' for Inactive)
REMARK    1  A    between atoms: C_5  and  N_1 
REMARK    2  A    between atoms: C_7  and  C_5 
ROOT
ATOM      1  N   UNL d   1     -51.712  25.687  33.399  0.00  0.00    -0.288 N 
ATOM      2  C   UNL d   1     -51.883  26.490  33.396  0.00  0.00     0.183 A 
ATOM      3  N   UNL d   1     -51.143  26.906  33.372  0.00  0.00    -0.224 NA
ATOM      4  C   UNL d   1     -50.914  25.582  33.378  0.00  0.00     0.083 A 
ATOM      5  C   UNL d   1     -50.553  26.356  33.361  0.00  0.00     0.099 A 
ATOM      6  C   UNL d   1     -50.441  24.907  33.372  0.00  0.00     0.019 A 
ATOM      7  C   UNL d   1     -49.717  26.388  33.338  0.00  0.00     0.021 A 
ATOM      8  C   UNL d   1     -49.620  24.978  33.349  0.00  0.00     0.002 A 
ATOM      9  C   UNL d   1     -49.271  25.725  33.332  0.00  0.00     0.002 A 
ENDROOT
BRANCH   1  10
ATOM     10  C   UNL d   1     -51.628  24.894  33.405  0.00  0.00     0.066 C 
ATOM     11  C   UNL d   1     -50.888  24.544  33.306  0.00  0.00     0.019 C 
BRANCH  10  12
ATOM     12  C   UNL d   1     -52.296  24.423  33.511  0.00  0.00     0.016 A 
ATOM     13  C   UNL d   1     -52.219  23.662  33.820  0.00  0.00     0.001 A 
ATOM     14  C   UNL d   1     -52.888  23.190  33.927  0.00  0.00     0.000 A 
ATOM     15  C   UNL d   1     -53.638  23.479  33.723  0.00  0.00     0.000 A 
ATOM     16  C   UNL d   1     -53.715  24.240  33.414  0.00  0.00     0.000 A 
ATOM     17  C   UNL d   1     -53.042  24.712  33.308  0.00  0.00     0.001 A 
ENDBRANCH  10  12
ENDBRANCH   1  10
TORSDOF 2
ENDMDL
