MODEL 1
REMARK VINA RESULT:       6.3      0.000      0.000
REMARK  5 active torsions:
REMARK  status: ('A' for Active; 'I' for Inactive)
REMARK    1  A    between atoms: C_3  and  C_1 
REMARK    2  A    between atoms: S_2  and  C_3 
REMARK    3  A    between atoms: C_8  and  S_2 
REMARK    4  A    between atoms: C_9  and  C_3 
REMARK    5  A    between atoms: N_7  and  C_4 
ROOT
ATOM      1  C   UNL d   1      32.432  18.391 -23.224  0.00  0.00     0.128 A 
ATOM      2  C   UNL d   1      32.592  17.952 -22.549  0.00  0.00     0.166 A 
ATOM      3  N   UNL d   1      32.422  19.214 -23.191  0.00  0.00    -0.240 NA
ATOM      4  N   UNL d   1      32.742  18.331 -21.836  0.00  0.00    -0.225 NA
ATOM      5  C   UNL d   1      32.573  19.588 -22.477  0.00  0.00     0.099 A 
ATOM      6  C   UNL d   1      32.733  19.156 -21.797  0.00  0.00     0.101 A 
ATOM      7  C   UNL d   1      32.882  19.540 -21.091  0.00  0.00     0.021 A 
ATOM      8  C   UNL d   1      32.563  20.416 -22.442  0.00  0.00     0.021 A 
ATOM      9  C   UNL d   1      32.873  20.356 -21.054  0.00  0.00     0.002 A 
ATOM     10  C   UNL d   1      32.713  20.792 -21.731  0.00  0.00     0.002 A 
ENDROOT
BRANCH   1  11
ATOM     11  C   UNL d   1      32.281  18.017 -23.938  0.00  0.00     0.129 C 
BRANCH  11  12
ATOM     12  S   UNL d   1      31.564  18.270 -24.398  0.00  0.00     0.213 S 
ATOM     13  O   UNL d   1      31.691  18.820 -25.083  0.00  0.00    -0.217 OA
ATOM     14  O   UNL d   1      32.212  18.645 -24.760  0.00  0.00    -0.217 OA
BRANCH  12  15
ATOM     15  C   UNL d   1      30.753  18.097 -24.329  0.00  0.00     0.088 A 
ATOM     16  C   UNL d   1      30.449  17.413 -24.694  0.00  0.00     0.011 A 
ATOM     17  C   UNL d   1      29.642  17.247 -24.622  0.00  0.00     0.001 A 
ATOM     18  C   UNL d   1      29.332  16.575 -24.978  0.00  0.00     0.000 C 
ATOM     19  C   UNL d   1      29.143  17.750 -24.193  0.00  0.00     0.000 A 
ATOM     20  C   UNL d   1      29.459  18.432 -23.832  0.00  0.00     0.001 A 
ATOM     21  C   UNL d   1      30.264  18.595 -23.907  0.00  0.00     0.011 A 
ENDBRANCH  12  15
ENDBRANCH  11  12
BRANCH  11  22
ATOM     22  C   UNL d   1      32.721  17.389 -24.340  0.00  0.00     0.135 C 
ATOM     23  N   UNL d   1      33.182  17.438 -25.094  0.00  0.00    -0.146 N 
ENDBRANCH  11  22
ENDBRANCH   1  11
BRANCH   2  24
ATOM     24  N   UNL d   1      32.601  17.124 -22.589  0.00  0.00    -0.284 N 
ATOM     25  C   UNL d   1      33.232  16.735 -22.976  0.00  0.00     0.108 A 
ATOM     26  C   UNL d   1      33.232  15.900 -23.011  0.00  0.00     0.142 A 
ATOM     27  O   UNL d   1      32.612  15.462 -22.665  0.00  0.00    -0.300 OA
ATOM     28  C   UNL d   1      31.993  15.859 -22.286  0.00  0.00     0.142 A 
ATOM     29  C   UNL d   1      31.981  16.685 -22.244  0.00  0.00     0.108 A 
ENDBRANCH   2  24
TORSDOF 5
ENDMDL
MODEL 2
REMARK VINA RESULT:       8.0      1.192      3.347
REMARK  5 active torsions:
REMARK  status: ('A' for Active; 'I' for Inactive)
REMARK    1  A    between atoms: C_3  and  C_1 
REMARK    2  A    between atoms: S_2  and  C_3 
REMARK    3  A    between atoms: C_8  and  S_2 
REMARK    4  A    between atoms: C_9  and  C_3 
REMARK    5  A    between atoms: N_7  and  C_4 
ROOT
ATOM      1  C   UNL d   1      31.690  17.989 -23.887  0.00  0.00     0.128 A 
ATOM      2  C   UNL d   1      31.496  17.243 -24.168  0.00  0.00     0.166 A 
ATOM      3  N   UNL d   1      31.118  18.581 -23.850  0.00  0.00    -0.240 NA
ATOM      4  N   UNL d   1      30.729  17.082 -24.416  0.00  0.00    -0.225 NA
ATOM      5  C   UNL d   1      30.354  18.415 -24.098  0.00  0.00     0.099 A 
ATOM      6  C   UNL d   1      30.152  17.671 -24.381  0.00  0.00     0.101 A 
ATOM      7  C   UNL d   1      29.387  17.517 -24.626  0.00  0.00     0.021 A 
ATOM      8  C   UNL d   1      29.777  19.008 -24.062  0.00  0.00     0.021 A 
ATOM      9  C   UNL d   1      28.817  18.101 -24.591  0.00  0.00     0.002 A 
ATOM     10  C   UNL d   1      29.014  18.846 -24.308  0.00  0.00     0.002 A 
ENDROOT
BRANCH   1  11
ATOM     11  C   UNL d   1      32.454  18.155 -23.638  0.00  0.00     0.129 C 
BRANCH  11  12
ATOM     12  S   UNL d   1      32.815  18.928 -23.888  0.00  0.00     0.213 S 
ATOM     13  O   UNL d   1      33.224  18.953 -24.675  0.00  0.00    -0.217 OA
ATOM     14  O   UNL d   1      32.969  18.394 -24.506  0.00  0.00    -0.217 OA
BRANCH  12  15
ATOM     15  C   UNL d   1      32.859  19.678 -23.529  0.00  0.00     0.088 A 
ATOM     16  C   UNL d   1      32.962  20.353 -24.006  0.00  0.00     0.011 A 
ATOM     17  C   UNL d   1      33.006  21.095 -23.644  0.00  0.00     0.001 A 
ATOM     18  C   UNL d   1      33.107  21.767 -24.105  0.00  0.00     0.000 C 
ATOM     19  C   UNL d   1      32.947  21.169 -22.821  0.00  0.00     0.000 A 
ATOM     20  C   UNL d   1      32.844  20.486 -22.354  0.00  0.00     0.001 A 
ATOM     21  C   UNL d   1      32.801  19.747 -22.718  0.00  0.00     0.011 A 
ENDBRANCH  12  15
ENDBRANCH  11  12
BRANCH  11  22
ATOM     22  C   UNL d   1      32.995  17.686 -23.152  0.00  0.00     0.135 C 
ATOM     23  N   UNL d   1      33.079  17.683 -22.272  0.00  0.00    -0.146 N 
ENDBRANCH  11  22
ENDBRANCH   1  11
BRANCH   2  24
ATOM     24  N   UNL d   1      32.077  16.652 -24.203  0.00  0.00    -0.284 N 
ATOM     25  C   UNL d   1      32.506  16.535 -24.911  0.00  0.00     0.108 A 
ATOM     26  C   UNL d   1      33.090  15.937 -24.935  0.00  0.00     0.142 A 
ATOM     27  O   UNL d   1      33.241  15.465 -24.264  0.00  0.00    -0.300 OA
ATOM     28  C   UNL d   1      32.808  15.592 -23.570  0.00  0.00     0.142 A 
ATOM     29  C   UNL d   1      32.228  16.180 -23.532  0.00  0.00     0.108 A 
ENDBRANCH   2  24
TORSDOF 5
ENDMDL
MODEL 3
REMARK VINA RESULT:       9.1      1.680      2.222
REMARK  5 active torsions:
REMARK  status: ('A' for Active; 'I' for Inactive)
REMARK    1  A    between atoms: C_3  and  C_1 
REMARK    2  A    between atoms: S_2  and  C_3 
REMARK    3  A    between atoms: C_8  and  S_2 
REMARK    4  A    between atoms: C_9  and  C_3 
REMARK    5  A    between atoms: N_7  and  C_4 
ROOT
ATOM      1  C   UNL d   1      31.251  17.542 -24.229  0.00  0.00     0.128 A 
ATOM      2  C   UNL d   1      31.978  17.522 -23.848  0.00  0.00     0.166 A 
ATOM      3  N   UNL d   1      31.009  18.220 -24.630  0.00  0.00    -0.240 NA
ATOM      4  N   UNL d   1      32.469  18.181 -23.864  0.00  0.00    -0.225 NA
ATOM      5  C   UNL d   1      31.504  18.874 -24.644  0.00  0.00     0.099 A 
ATOM      6  C   UNL d   1      32.232  18.863 -24.265  0.00  0.00     0.101 A 
ATOM      7  C   UNL d   1      32.716  19.522 -24.285  0.00  0.00     0.021 A 
ATOM      8  C   UNL d   1      31.263  19.557 -25.046  0.00  0.00     0.021 A 
ATOM      9  C   UNL d   1      32.481  20.196 -24.681  0.00  0.00     0.002 A 
ATOM     10  C   UNL d   1      31.754  20.211 -25.061  0.00  0.00     0.002 A 
ENDROOT
BRANCH   1  11
ATOM     11  C   UNL d   1      30.757  16.887 -24.216  0.00  0.00     0.129 C 
BRANCH  11  12
ATOM     12  S   UNL d   1      29.882  17.023 -24.297  0.00  0.00     0.213 S 
ATOM     13  O   UNL d   1      29.579  17.268 -25.095  0.00  0.00    -0.217 OA
ATOM     14  O   UNL d   1      30.207  17.173 -25.047  0.00  0.00    -0.217 OA
BRANCH  12  15
ATOM     15  C   UNL d   1      29.245  16.968 -23.764  0.00  0.00     0.088 A 
ATOM     16  C   UNL d   1      29.118  16.257 -23.351  0.00  0.00     0.011 A 
ATOM     17  C   UNL d   1      28.484  16.208 -22.823  0.00  0.00     0.001 A 
ATOM     18  C   UNL d   1      28.350  15.511 -22.411  0.00  0.00     0.000 C 
ATOM     19  C   UNL d   1      27.982  16.857 -22.704  0.00  0.00     0.000 A 
ATOM     20  C   UNL d   1      28.119  17.565 -23.123  0.00  0.00     0.001 A 
ATOM     21  C   UNL d   1      28.753  17.608 -23.650  0.00  0.00     0.011 A 
ENDBRANCH  12  15
ENDBRANCH  11  12
BRANCH  11  22
ATOM     22  C   UNL d   1      30.949  16.047 -24.132  0.00  0.00     0.135 C 
ATOM     23  N   UNL d   1      31.124  15.459 -24.769  0.00  0.00    -0.146 N 
ENDBRANCH  11  22
ENDBRANCH   1  11
BRANCH   2  24
ATOM     24  N   UNL d   1      32.215  16.837 -23.447  0.00  0.00    -0.284 N 
ATOM     25  C   UNL d   1      32.859  16.390 -23.736  0.00  0.00     0.108 A 
ATOM     26  C   UNL d   1      33.090  15.701 -23.324  0.00  0.00     0.142 A 
ATOM     27  O   UNL d   1      32.684  15.462 -22.636  0.00  0.00    -0.300 OA
ATOM     28  C   UNL d   1      32.048  15.914 -22.360  0.00  0.00     0.142 A 
ATOM     29  C   UNL d   1      31.808  16.599 -22.758  0.00  0.00     0.108 A 
ENDBRANCH   2  24
TORSDOF 5
ENDMDL
