MODEL 1
REMARK VINA RESULT:      -3.0      0.000      0.000
REMARK  5 active torsions:
REMARK  status: ('A' for Active; 'I' for Inactive)
REMARK    1  A    between atoms: C_5  and  N_1 
REMARK    2  A    between atoms: C_7  and  C_3 
REMARK    3  A    between atoms: C_8  and  C_4 
REMARK    4  A    between atoms: N_10  and  C_5 
REMARK    5  A    between atoms: O_21  and  C_15 
ROOT
ATOM      1  N   UNL d   1      58.276  -0.335  29.838  0.00  0.00    -0.203 N 
ATOM      2  N   UNL d   1      57.842   0.063  30.420  0.00  0.00    -0.163 NA
ATOM      3  C   UNL d   1      57.614  -0.454  30.995  0.00  0.00     0.103 A 
ATOM      4  C   UNL d   1      58.324  -1.139  30.054  0.00  0.00     0.087 A 
ATOM      5  C   UNL d   1      57.916  -1.220  30.770  0.00  0.00     0.040 A 
ENDROOT
BRANCH   4   6
ATOM      6  C   UNL d   1      58.697  -1.761  29.657  0.00  0.00     0.018 A 
ATOM      7  C   UNL d   1      58.326  -2.149  29.036  0.00  0.00     0.004 A 
ATOM      8  C   UNL d   1      58.699  -2.767  28.641  0.00  0.00     0.024 A 
ATOM      9  C   UNL d   1      59.453  -2.999  28.872  0.00  0.00     0.094 A 
ATOM     10  C   UNL d   1      59.827  -2.628  29.477  0.00  0.00     0.024 A 
ATOM     11  C   UNL d   1      59.454  -2.007  29.875  0.00  0.00     0.004 A 
BRANCH   9  12
ATOM     12  O   UNL d   1      59.815  -3.632  28.456  0.00  0.00    -0.328 OA
ATOM     13  C   UNL d   1      59.471  -4.403  28.458  0.00  0.00     0.181 C 
ENDBRANCH   9  12
ENDBRANCH   4   6
BRANCH   1  14
ATOM     14  C   UNL d   1      58.613   0.005  29.144  0.00  0.00     0.222 C 
ATOM     15  S   UNL d   1      58.130   0.096  28.455  0.00  0.00    -0.037 SA
BRANCH  14  16
ATOM     16  N   UNL d   1      59.421   0.256  29.123  0.00  0.00    -0.214 NA
ATOM     17  C   UNL d   1      59.707   0.682  28.468  0.00  0.00     0.122 C 
ENDBRANCH  14  16
ENDBRANCH   1  14
BRANCH   3  18
ATOM     18  C   UNL d   1      57.168  -0.254  31.671  0.00  0.00     0.019 A 
ATOM     19  C   UNL d   1      57.444   0.306  32.207  0.00  0.00     0.002 A 
ATOM     20  C   UNL d   1      56.983   0.494  32.879  0.00  0.00     0.000 A 
ATOM     21  C   UNL d   1      56.265   0.123  32.999  0.00  0.00     0.000 A 
ATOM     22  C   UNL d   1      56.004  -0.435  32.451  0.00  0.00     0.000 A 
ATOM     23  C   UNL d   1      55.804   0.464  33.884  0.00  0.00     0.000 C 
ATOM     24  C   UNL d   1      56.446  -0.622  31.798  0.00  0.00     0.002 A 
ENDBRANCH   3  18
TORSDOF 5
ENDMDL
MODEL 2
REMARK VINA RESULT:      -0.4      1.458      2.421
REMARK  5 active torsions:
REMARK  status: ('A' for Active; 'I' for Inactive)
REMARK    1  A    between atoms: C_5  and  N_1 
REMARK    2  A    between atoms: C_7  and  C_3 
REMARK    3  A    between atoms: C_8  and  C_4 
REMARK    4  A    between atoms: N_10  and  C_5 
REMARK    5  A    between atoms: O_21  and  C_15 
ROOT
ATOM      1  N   UNL d   1      57.780  -1.442  30.475  0.00  0.00    -0.203 N 
ATOM      2  N   UNL d   1      57.220  -1.500  31.082  0.00  0.00    -0.163 NA
ATOM      3  C   UNL d   1      57.142  -0.789  31.454  0.00  0.00     0.103 A 
ATOM      4  C   UNL d   1      58.070  -0.659  30.463  0.00  0.00     0.087 A 
ATOM      5  C   UNL d   1      57.679  -0.249  31.066  0.00  0.00     0.040 A 
ENDROOT
BRANCH   4   6
ATOM      6  C   UNL d   1      58.635  -0.324  29.961  0.00  0.00     0.018 A 
ATOM      7  C   UNL d   1      59.436  -0.384  30.128  0.00  0.00     0.004 A 
ATOM      8  C   UNL d   1      59.998  -0.050  29.627  0.00  0.00     0.024 A 
ATOM      9  C   UNL d   1      59.753   0.349  28.952  0.00  0.00     0.094 A 
ATOM     10  C   UNL d   1      58.972   0.415  28.777  0.00  0.00     0.024 A 
ATOM     11  C   UNL d   1      58.407   0.080  29.279  0.00  0.00     0.004 A 
BRANCH   9  12
ATOM     12  O   UNL d   1      60.342   0.682  28.455  0.00  0.00    -0.328 OA
ATOM     13  C   UNL d   1      61.133   0.388  28.467  0.00  0.00     0.181 C 
ENDBRANCH   9  12
ENDBRANCH   4   6
BRANCH   1  14
ATOM     14  C   UNL d   1      58.022  -2.060  29.955  0.00  0.00     0.222 C 
ATOM     15  S   UNL d   1      57.573  -2.204  29.252  0.00  0.00    -0.037 SA
BRANCH  14  16
ATOM     16  N   UNL d   1      58.701  -2.536  30.121  0.00  0.00    -0.214 NA
ATOM     17  C   UNL d   1      58.892  -3.176  29.623  0.00  0.00     0.122 C 
ENDBRANCH  14  16
ENDBRANCH   1  14
BRANCH   3  18
ATOM     18  C   UNL d   1      56.629  -0.636  32.093  0.00  0.00     0.019 A 
ATOM     19  C   UNL d   1      56.595   0.112  32.437  0.00  0.00     0.002 A 
ATOM     20  C   UNL d   1      56.074   0.246  33.077  0.00  0.00     0.000 A 
ATOM     21  C   UNL d   1      55.604  -0.360  33.356  0.00  0.00     0.000 A 
ATOM     22  C   UNL d   1      55.650  -1.102  32.999  0.00  0.00     0.000 A 
ATOM     23  C   UNL d   1      55.004  -0.038  34.161  0.00  0.00     0.000 C 
ATOM     24  C   UNL d   1      56.153  -1.240  32.379  0.00  0.00     0.002 A 
ENDBRANCH   3  18
TORSDOF 5
ENDMDL
