MODEL 1
REMARK VINA RESULT:      16.7      0.000      0.000
REMARK  0 active torsions:
REMARK  status: ('A' for Active; 'I' for Inactive)
ROOT
ATOM      1  N   UNL d   1      58.441  49.708  49.641  0.00  0.00    -0.242 NA
ATOM      2  N   UNL d   1      58.093  49.708  51.239  0.00  0.00    -0.242 NA
ATOM      3  C   UNL d   1      58.886  49.708  50.988  0.00  0.00     0.101 A 
ATOM      4  C   UNL d   1      59.058  49.708  50.196  0.00  0.00     0.101 A 
ATOM      5  C   UNL d   1      59.483  49.708  51.541  0.00  0.00     0.043 A 
ATOM      6  C   UNL d   1      59.832  49.708  49.934  0.00  0.00     0.043 A 
ATOM      7  C   UNL d   1      60.451  49.708  50.481  0.00  0.00     0.124 A 
ATOM      8  C   UNL d   1      60.275  49.708  51.290  0.00  0.00     0.124 A 
ATOM      9  C   UNL d   1      57.483  49.708  50.683  0.00  0.00     0.099 A 
ATOM     10  C   UNL d   1      57.655  49.707  49.891  0.00  0.00     0.099 A 
ATOM     11  N   UNL d   1      61.222  49.708  50.236  0.00  0.00    -0.146 N 
ATOM     12  N   UNL d   1      60.862  49.708  51.827  0.00  0.00    -0.146 N 
ATOM     13  C   UNL d   1      57.044  49.707  49.337  0.00  0.00     0.021 A 
ATOM     14  C   UNL d   1      56.697  49.708  50.936  0.00  0.00     0.021 A 
ATOM     15  C   UNL d   1      56.080  49.707  50.378  0.00  0.00     0.002 A 
ATOM     16  C   UNL d   1      56.252  49.707  49.586  0.00  0.00     0.002 A 
ENDROOT
TORSDOF 0
ENDMDL
