MODEL 1
REMARK VINA RESULT:      -0.4      0.000      0.000
REMARK  2 active torsions:
REMARK  status: ('A' for Active; 'I' for Inactive)
REMARK    1  A    between atoms: N_10  and  C_3 
REMARK    2  A    between atoms: C_12  and  C_5 
ROOT
ATOM      1  N   UNL d   1      59.909  -9.238  32.559  0.00  0.00    -0.196 N 
ATOM      2  C   UNL d   1      59.510  -9.226  33.287  0.00  0.00     0.167 A 
ATOM      3  C   UNL d   1      59.483  -9.389  31.873  0.00  0.00     0.152 A 
ATOM      4  N   UNL d   1      61.118  -8.952  33.223  0.00  0.00    -0.163 NA
ATOM      5  C   UNL d   1      59.911  -9.079  33.974  0.00  0.00     0.055 A 
ATOM      6  N   UNL d   1      58.694  -9.366  33.313  0.00  0.00    -0.227 NA
ATOM      7  C   UNL d   1      58.679  -9.527  31.896  0.00  0.00     0.052 A 
ATOM      8  C   UNL d   1      60.722  -8.940  33.947  0.00  0.00     0.104 A 
ATOM      9  C   UNL d   1      58.282  -9.515  32.620  0.00  0.00     0.086 A 
ATOM     10  C   UNL d   1      58.268  -9.677  31.192  0.00  0.00     0.004 A 
ATOM     11  C   UNL d   1      61.133  -8.793  34.624  0.00  0.00     0.023 C 
ATOM     12  C   UNL d   1      57.471  -9.654  32.647  0.00  0.00     0.019 A 
ATOM     13  C   UNL d   1      57.444  -9.818  31.225  0.00  0.00     0.000 A 
ATOM     14  C   UNL d   1      57.048  -9.806  31.948  0.00  0.00     0.002 A 
ENDROOT
BRANCH   3  15
ATOM     15  N   UNL d   1      59.884  -9.402  31.132  0.00  0.00    -0.286 N 
ATOM     16  C   UNL d   1      60.634  -9.773  31.072  0.00  0.00     0.101 A 
ATOM     17  C   UNL d   1      61.040  -9.786  30.324  0.00  0.00     0.100 A 
ATOM     18  N   UNL d   1      60.692  -9.430  29.650  0.00  0.00    -0.299 N 
ATOM     19  C   UNL d   1      59.939  -9.056  29.709  0.00  0.00     0.100 A 
ATOM     20  C   UNL d   1      61.102  -9.447  28.909  0.00  0.00     0.100 C 
ATOM     21  C   UNL d   1      59.527  -9.039  30.453  0.00  0.00     0.101 A 
ENDBRANCH   3  15
BRANCH   5  22
ATOM     22  C   UNL d   1      59.514  -9.067  34.698  0.00  0.00     0.004 A 
ATOM     23  C   UNL d   1      59.392  -8.357  35.075  0.00  0.00     0.000 A 
ATOM     24  C   UNL d   1      58.996  -8.345  35.799  0.00  0.00     0.000 A 
ATOM     25  C   UNL d   1      58.728  -9.044  36.133  0.00  0.00     0.000 A 
ATOM     26  C   UNL d   1      58.856  -9.755  35.745  0.00  0.00     0.000 A 
ATOM     27  C   UNL d   1      59.252  -9.767  35.022  0.00  0.00     0.000 A 
ENDBRANCH   5  22
TORSDOF 2
ENDMDL
MODEL 2
REMARK VINA RESULT:       0.6      9.196     10.499
REMARK  2 active torsions:
REMARK  status: ('A' for Active; 'I' for Inactive)
REMARK    1  A    between atoms: N_10  and  C_3 
REMARK    2  A    between atoms: C_12  and  C_5 
ROOT
ATOM      1  N   UNL d   1      58.043  -0.103  30.859  0.00  0.00    -0.196 N 
ATOM      2  C   UNL d   1      58.774  -0.050  30.470  0.00  0.00     0.167 A 
ATOM      3  C   UNL d   1      58.007   0.054  31.664  0.00  0.00     0.152 A 
ATOM      4  N   UNL d   1      57.428  -0.462  29.643  0.00  0.00    -0.163 NA
ATOM      5  C   UNL d   1      58.831  -0.201  29.677  0.00  0.00     0.055 A 
ATOM      6  N   UNL d   1      59.453   0.159  30.895  0.00  0.00    -0.227 NA
ATOM      7  C   UNL d   1      58.674   0.260  32.086  0.00  0.00     0.052 A 
ATOM      8  C   UNL d   1      58.154  -0.409  29.256  0.00  0.00     0.104 A 
ATOM      9  C   UNL d   1      59.401   0.313  31.699  0.00  0.00     0.086 A 
ATOM     10  C   UNL d   1      58.616   0.415  32.897  0.00  0.00     0.004 A 
ATOM     11  C   UNL d   1      58.198  -0.562  28.465  0.00  0.00     0.023 C 
ATOM     12  C   UNL d   1      60.078   0.521  32.120  0.00  0.00     0.019 A 
ATOM     13  C   UNL d   1      59.305   0.626  33.321  0.00  0.00     0.000 A 
ATOM     14  C   UNL d   1      60.032   0.679  32.935  0.00  0.00     0.002 A 
ENDROOT
BRANCH   3  15
ATOM     15  N   UNL d   1      57.266   0.001  32.063  0.00  0.00    -0.286 N 
ATOM     16  C   UNL d   1      57.034  -0.725  32.414  0.00  0.00     0.101 A 
ATOM     17  C   UNL d   1      56.286  -0.779  32.816  0.00  0.00     0.100 A 
ATOM     18  N   UNL d   1      55.783  -0.110  32.862  0.00  0.00    -0.299 N 
ATOM     19  C   UNL d   1      56.014   0.620  32.510  0.00  0.00     0.100 A 
ATOM     20  C   UNL d   1      55.040  -0.172  33.264  0.00  0.00     0.100 C 
ATOM     21  C   UNL d   1      56.761   0.682  32.106  0.00  0.00     0.101 A 
ENDBRANCH   3  15
BRANCH   5  22
ATOM     22  C   UNL d   1      59.558  -0.148  29.291  0.00  0.00     0.004 A 
ATOM     23  C   UNL d   1      60.020  -0.814  29.214  0.00  0.00     0.000 A 
ATOM     24  C   UNL d   1      60.746  -0.761  28.827  0.00  0.00     0.000 A 
ATOM     25  C   UNL d   1      61.000  -0.043  28.523  0.00  0.00     0.000 A 
ATOM     26  C   UNL d   1      60.528   0.622  28.605  0.00  0.00     0.000 A 
ATOM     27  C   UNL d   1      59.801   0.569  28.992  0.00  0.00     0.000 A 
ENDBRANCH   5  22
TORSDOF 2
ENDMDL
