MODEL 1
REMARK VINA RESULT:      85.9      0.000      0.000
REMARK  6 active torsions:
REMARK  status: ('A' for Active; 'I' for Inactive)
REMARK    1  A    between atoms: C_16  and  N_1 
REMARK    2  A    between atoms: C_11  and  C_2 
REMARK    3  A    between atoms: S_15  and  C_3 
REMARK    4  A    between atoms: C_8  and  C_11 
REMARK    5  A    between atoms: C_13  and  C_17 
REMARK       I    between atoms: N_14  and  C_13 
REMARK    6  A    between atoms: C_17  and  S_15 
ROOT
ATOM      1  N   UNL d   1     -50.765  26.714  34.719  0.00  0.00    -0.269 N 
ATOM      2  C   UNL d   1     -51.139  26.366  34.073  0.00  0.00     0.172 A 
ATOM      3  C   UNL d   1     -50.121  27.121  34.439  0.00  0.00     0.201 A 
ATOM      4  N   UNL d   1     -50.715  26.566  33.401  0.00  0.00    -0.128 NA
ATOM      5  N   UNL d   1     -50.078  27.039  33.631  0.00  0.00    -0.121 NA
ENDROOT
BRANCH   2   6
ATOM      6  C   UNL d   1     -51.809  25.918  34.182  0.00  0.00     0.059 C 
BRANCH   6   7
ATOM      7  C   UNL d   1     -51.836  25.148  33.891  0.00  0.00     0.094 A 
ATOM      8  C   UNL d   1     -52.561  24.787  33.748  0.00  0.00     0.082 A 
ATOM      9  C   UNL d   1     -52.585  24.014  33.455  0.00  0.00     0.285 A 
ATOM     10  O   UNL d   1     -53.325  23.639  33.306  0.00  0.00    -0.265 OA
ATOM     11  N   UNL d   1     -51.868  23.611  33.310  0.00  0.00    -0.152 NA
ATOM     12  C   UNL d   1     -51.150  23.972  33.454  0.00  0.00     0.371 A 
ATOM     13  N   UNL d   1     -51.133  24.751  33.748  0.00  0.00    -0.191 NA
ATOM     14  O   UNL d   1     -50.447  23.563  33.306  0.00  0.00    -0.242 OA
ENDBRANCH   6   7
ENDBRANCH   2   6
BRANCH   1  15
ATOM     15  C   UNL d   1     -50.977  26.677  35.511  0.00  0.00     0.067 A 
ATOM     16  C   UNL d   1     -51.777  26.729  35.725  0.00  0.00     0.018 A 
ATOM     17  C   UNL d   1     -51.994  26.692  36.529  0.00  0.00     0.002 A 
ATOM     18  C   UNL d   1     -51.410  26.603  37.105  0.00  0.00     0.000 A 
ATOM     19  C   UNL d   1     -50.612  26.552  36.886  0.00  0.00     0.002 A 
ATOM     20  C   UNL d   1     -50.399  26.589  36.090  0.00  0.00     0.018 A 
ENDBRANCH   1  15
BRANCH   3  21
ATOM     21  S   UNL d   1     -49.582  27.560  34.918  0.00  0.00    -0.043 SA
BRANCH  21  22
ATOM     22  C   UNL d   1     -49.082  28.126  34.561  0.00  0.00     0.099 C 
BRANCH  22  23
ATOM     23  C   UNL d   1     -48.377  28.343  34.938  0.00  0.00     0.271 C 
ATOM     24  N   UNL d   1     -48.173  29.144  34.996  0.00  0.00    -0.272 N 
ATOM     25  C   UNL d   1     -48.562  29.833  34.733  0.00  0.00     0.083 A 
ATOM     26  C   UNL d   1     -47.471  29.371  35.371  0.00  0.00     0.083 A 
ATOM     27  C   UNL d   1     -48.097  30.480  34.947  0.00  0.00     0.021 A 
ATOM     28  C   UNL d   1     -47.424  30.193  35.340  0.00  0.00     0.021 A 
ATOM     29  O   UNL d   1     -47.873  27.766  35.258  0.00  0.00    -0.266 OA
ENDBRANCH  22  23
ENDBRANCH  21  22
ENDBRANCH   3  21
TORSDOF 6
ENDMDL
MODEL 2
REMARK VINA RESULT:      87.6      1.116      5.026
REMARK  6 active torsions:
REMARK  status: ('A' for Active; 'I' for Inactive)
REMARK    1  A    between atoms: C_16  and  N_1 
REMARK    2  A    between atoms: C_11  and  C_2 
REMARK    3  A    between atoms: S_15  and  C_3 
REMARK    4  A    between atoms: C_8  and  C_11 
REMARK    5  A    between atoms: C_13  and  C_17 
REMARK       I    between atoms: N_14  and  C_13 
REMARK    6  A    between atoms: C_17  and  S_15 
ROOT
ATOM      1  N   UNL d   1     -49.903  27.279  34.988  0.00  0.00    -0.269 N 
ATOM      2  C   UNL d   1     -49.293  27.805  34.820  0.00  0.00     0.172 A 
ATOM      3  C   UNL d   1     -50.133  26.939  34.287  0.00  0.00     0.201 A 
ATOM      4  N   UNL d   1     -49.157  27.781  34.013  0.00  0.00    -0.128 NA
ATOM      5  N   UNL d   1     -49.683  27.239  33.679  0.00  0.00    -0.121 NA
ENDROOT
BRANCH   2   6
ATOM      6  C   UNL d   1     -48.946  28.233  35.420  0.00  0.00     0.059 C 
BRANCH   6   7
ATOM      7  C   UNL d   1     -48.436  28.853  35.235  0.00  0.00     0.094 A 
ATOM      8  C   UNL d   1     -48.736  29.554  34.928  0.00  0.00     0.082 A 
ATOM      9  C   UNL d   1     -48.222  30.175  34.744  0.00  0.00     0.285 A 
ATOM     10  O   UNL d   1     -48.523  30.897  34.428  0.00  0.00    -0.265 OA
ATOM     11  N   UNL d   1     -47.403  30.079  34.875  0.00  0.00    -0.152 NA
ATOM     12  C   UNL d   1     -47.109  29.381  35.180  0.00  0.00     0.371 A 
ATOM     13  N   UNL d   1     -47.632  28.759  35.364  0.00  0.00    -0.191 NA
ATOM     14  O   UNL d   1     -46.296  29.297  35.306  0.00  0.00    -0.242 OA
ENDBRANCH   6   7
ENDBRANCH   2   6
BRANCH   1  15
ATOM     15  C   UNL d   1     -50.240  27.104  35.716  0.00  0.00     0.067 A 
ATOM     16  C   UNL d   1     -51.060  27.170  35.815  0.00  0.00     0.018 A 
ATOM     17  C   UNL d   1     -51.405  26.993  36.553  0.00  0.00     0.002 A 
ATOM     18  C   UNL d   1     -50.924  26.754  37.180  0.00  0.00     0.000 A 
ATOM     19  C   UNL d   1     -50.105  26.690  37.076  0.00  0.00     0.002 A 
ATOM     20  C   UNL d   1     -49.766  26.865  36.345  0.00  0.00     0.018 A 
ENDBRANCH   1  15
BRANCH   3  21
ATOM     21  S   UNL d   1     -50.746  26.364  34.208  0.00  0.00    -0.043 SA
BRANCH  21  22
ATOM     22  C   UNL d   1     -50.935  26.066  33.450  0.00  0.00     0.099 C 
BRANCH  22  23
ATOM     23  C   UNL d   1     -51.497  25.462  33.379  0.00  0.00     0.271 C 
ATOM     24  N   UNL d   1     -51.250  24.671  33.377  0.00  0.00    -0.272 N 
ATOM     25  C   UNL d   1     -50.491  24.330  33.438  0.00  0.00     0.083 A 
ATOM     26  C   UNL d   1     -51.803  24.060  33.306  0.00  0.00     0.083 A 
ATOM     27  C   UNL d   1     -50.582  23.511  33.404  0.00  0.00     0.021 A 
ATOM     28  C   UNL d   1     -51.392  23.347  33.322  0.00  0.00     0.021 A 
ATOM     29  O   UNL d   1     -52.305  25.641  33.308  0.00  0.00    -0.266 OA
ENDBRANCH  22  23
ENDBRANCH  21  22
ENDBRANCH   3  21
TORSDOF 6
ENDMDL
