MODEL 1
REMARK VINA RESULT:      -8.9      0.000      0.000
REMARK  2 active torsions:
REMARK  status: ('A' for Active; 'I' for Inactive)
REMARK    1  A    between atoms: N_7  and  C_3 
REMARK       I    between atoms: C_8  and  N_7 
REMARK    2  A    between atoms: C_9  and  C_8 
ROOT
ATOM      1  N   UNL d   1      52.812  32.325  54.043  0.00  0.00    -0.190 NA
ATOM      2  C   UNL d   1      53.401  31.852  53.713  0.00  0.00     0.281 C 
ATOM      3  O   UNL d   1      54.117  32.187  53.477  0.00  0.00    -0.265 OA
ENDROOT
BRANCH   1   4
ATOM      4  C   UNL d   1      52.939  33.137  54.137  0.00  0.00     0.159 A 
ATOM      5  N   UNL d   1      52.385  33.677  53.859  0.00  0.00    -0.241 N 
ATOM      6  C   UNL d   1      52.511  34.481  53.952  0.00  0.00     0.343 A 
ATOM      7  C   UNL d   1      51.701  33.408  53.483  0.00  0.00     0.105 C 
ATOM      8  N   UNL d   1      53.195  34.750  54.327  0.00  0.00    -0.224 N 
ATOM      9  O   UNL d   1      51.953  35.023  53.671  0.00  0.00    -0.245 OA
ATOM     10  C   UNL d   1      53.761  34.219  54.613  0.00  0.00     0.271 A 
ATOM     11  C   UNL d   1      53.322  35.562  54.421  0.00  0.00     0.107 C 
ATOM     12  C   UNL d   1      53.623  33.407  54.512  0.00  0.00     0.099 A 
ATOM     13  O   UNL d   1      54.439  34.486  54.984  0.00  0.00    -0.266 OA
ENDBRANCH   1   4
BRANCH   2  14
ATOM     14  C   UNL d   1      53.274  31.043  53.620  0.00  0.00     0.069 A 
ATOM     15  C   UNL d   1      53.066  30.761  52.899  0.00  0.00     0.062 A 
ATOM     16  C   UNL d   1      52.935  29.959  52.790  0.00  0.00     0.012 A 
ATOM     17 CL   UNL d   1      52.980  31.282  52.254  0.00  0.00    -0.082 Cl
ATOM     18  C   UNL d   1      53.019  29.441  53.425  0.00  0.00     0.008 A 
ATOM     19  C   UNL d   1      53.230  29.735  54.153  0.00  0.00     0.035 A 
ATOM     20  C   UNL d   1      53.362  30.539  54.267  0.00  0.00     0.012 A 
ATOM     21 BR   UNL d   1      53.314  29.201  54.797  0.00  0.00    -0.049 Br
ENDBRANCH   2  14
TORSDOF 2
ENDMDL
MODEL 2
REMARK VINA RESULT:      -8.1      2.206      3.690
REMARK  2 active torsions:
REMARK  status: ('A' for Active; 'I' for Inactive)
REMARK    1  A    between atoms: N_7  and  C_3 
REMARK       I    between atoms: C_8  and  N_7 
REMARK    2  A    between atoms: C_9  and  C_8 
ROOT
ATOM      1  N   UNL d   1      51.961  33.671  53.612  0.00  0.00    -0.190 NA
ATOM      2  C   UNL d   1      51.845  34.311  53.106  0.00  0.00     0.281 C 
ATOM      3  O   UNL d   1      52.447  34.864  52.995  0.00  0.00    -0.265 OA
ENDROOT
BRANCH   1   4
ATOM      4  C   UNL d   1      52.682  33.583  54.009  0.00  0.00     0.159 A 
ATOM      5  N   UNL d   1      53.077  32.863  53.994  0.00  0.00    -0.241 N 
ATOM      6  C   UNL d   1      53.790  32.777  54.387  0.00  0.00     0.343 A 
ATOM      7  C   UNL d   1      52.753  32.225  53.582  0.00  0.00     0.105 C 
ATOM      8  N   UNL d   1      54.113  33.414  54.800  0.00  0.00    -0.224 N 
ATOM      9  O   UNL d   1      54.186  32.051  54.372  0.00  0.00    -0.245 OA
ATOM     10  C   UNL d   1      53.727  34.145  54.824  0.00  0.00     0.271 A 
ATOM     11  C   UNL d   1      54.834  33.326  55.197  0.00  0.00     0.107 C 
ATOM     12  C   UNL d   1      53.005  34.221  54.421  0.00  0.00     0.099 A 
ATOM     13  O   UNL d   1      54.048  34.776  55.232  0.00  0.00    -0.266 OA
ENDBRANCH   1   4
BRANCH   2  14
ATOM     14  C   UNL d   1      51.126  34.397  52.711  0.00  0.00     0.069 A 
ATOM     15  C   UNL d   1      51.101  34.282  51.918  0.00  0.00     0.062 A 
ATOM     16  C   UNL d   1      50.394  34.364  51.511  0.00  0.00     0.012 A 
ATOM     17 CL   UNL d   1      51.792  34.078  51.501  0.00  0.00    -0.082 Cl
ATOM     18  C   UNL d   1      49.707  34.566  51.920  0.00  0.00     0.008 A 
ATOM     19  C   UNL d   1      49.742  34.681  52.724  0.00  0.00     0.035 A 
ATOM     20  C   UNL d   1      50.449  34.600  53.136  0.00  0.00     0.012 A 
ATOM     21 BR   UNL d   1      49.038  34.887  53.134  0.00  0.00    -0.049 Br
ENDBRANCH   2  14
TORSDOF 2
ENDMDL
MODEL 3
REMARK VINA RESULT:      -7.9      2.500      3.850
REMARK  2 active torsions:
REMARK  status: ('A' for Active; 'I' for Inactive)
REMARK    1  A    between atoms: N_7  and  C_3 
REMARK       I    between atoms: C_8  and  N_7 
REMARK    2  A    between atoms: C_9  and  C_8 
ROOT
ATOM      1  N   UNL d   1      51.972  34.380  53.439  0.00  0.00    -0.190 NA
ATOM      2  C   UNL d   1      51.334  33.900  53.235  0.00  0.00     0.281 C 
ATOM      3  O   UNL d   1      51.332  33.103  53.445  0.00  0.00    -0.265 OA
ENDROOT
BRANCH   1   4
ATOM      4  C   UNL d   1      52.612  34.062  53.855  0.00  0.00     0.159 A 
ATOM      5  N   UNL d   1      53.076  34.544  54.333  0.00  0.00    -0.241 N 
ATOM      6  C   UNL d   1      53.709  34.228  54.744  0.00  0.00     0.343 A 
ATOM      7  C   UNL d   1      52.901  35.349  54.397  0.00  0.00     0.105 C 
ATOM      8  N   UNL d   1      53.883  33.424  54.680  0.00  0.00    -0.224 N 
ATOM      9  O   UNL d   1      54.175  34.714  55.225  0.00  0.00    -0.245 OA
ATOM     10  C   UNL d   1      53.426  32.926  54.203  0.00  0.00     0.271 A 
ATOM     11  C   UNL d   1      54.523  33.106  55.096  0.00  0.00     0.107 C 
ATOM     12  C   UNL d   1      52.786  33.258  53.791  0.00  0.00     0.099 A 
ATOM     13  O   UNL d   1      53.599  32.130  54.140  0.00  0.00    -0.266 OA
ENDBRANCH   1   4
BRANCH   2  14
ATOM     14  C   UNL d   1      50.696  34.219  52.820  0.00  0.00     0.069 A 
ATOM     15  C   UNL d   1      50.663  34.128  52.025  0.00  0.00     0.062 A 
ATOM     16  C   UNL d   1      50.036  34.439  51.598  0.00  0.00     0.012 A 
ATOM     17 CL   UNL d   1      51.266  33.716  51.624  0.00  0.00    -0.082 Cl
ATOM     18  C   UNL d   1      49.437  34.847  51.990  0.00  0.00     0.008 A 
ATOM     19  C   UNL d   1      49.478  34.936  52.797  0.00  0.00     0.035 A 
ATOM     20  C   UNL d   1      50.106  34.625  53.229  0.00  0.00     0.012 A 
ATOM     21 BR   UNL d   1      48.865  35.353  53.190  0.00  0.00    -0.049 Br
ENDBRANCH   2  14
TORSDOF 2
ENDMDL
MODEL 4
REMARK VINA RESULT:      -7.7      2.043      3.083
REMARK  2 active torsions:
REMARK  status: ('A' for Active; 'I' for Inactive)
REMARK    1  A    between atoms: N_7  and  C_3 
REMARK       I    between atoms: C_8  and  N_7 
REMARK    2  A    between atoms: C_9  and  C_8 
ROOT
ATOM      1  N   UNL d   1      52.047  33.697  53.322  0.00  0.00    -0.190 NA
ATOM      2  C   UNL d   1      52.535  33.080  53.076  0.00  0.00     0.281 C 
ATOM      3  O   UNL d   1      52.396  32.708  52.353  0.00  0.00    -0.265 OA
ENDROOT
BRANCH   1   4
ATOM      4  C   UNL d   1      51.418  33.943  52.844  0.00  0.00     0.159 A 
ATOM      5  N   UNL d   1      50.691  34.128  53.180  0.00  0.00    -0.241 N 
ATOM      6  C   UNL d   1      50.069  34.371  52.707  0.00  0.00     0.343 A 
ATOM      7  C   UNL d   1      50.588  34.066  53.997  0.00  0.00     0.105 C 
ATOM      8  N   UNL d   1      50.172  34.432  51.891  0.00  0.00    -0.224 N 
ATOM      9  O   UNL d   1      49.338  34.556  53.046  0.00  0.00    -0.245 OA
ATOM     10  C   UNL d   1      50.897  34.251  51.538  0.00  0.00     0.271 A 
ATOM     11  C   UNL d   1      49.543  34.679  51.413  0.00  0.00     0.107 C 
ATOM     12  C   UNL d   1      51.521  34.005  52.028  0.00  0.00     0.099 A 
ATOM     13  O   UNL d   1      50.999  34.311  50.729  0.00  0.00    -0.266 OA
ENDBRANCH   1   4
BRANCH   2  14
ATOM     14  C   UNL d   1      53.161  32.836  53.553  0.00  0.00     0.069 A 
ATOM     15  C   UNL d   1      53.348  32.057  53.583  0.00  0.00     0.062 A 
ATOM     16  C   UNL d   1      53.968  31.798  54.053  0.00  0.00     0.012 A 
ATOM     17 CL   UNL d   1      52.913  31.504  53.137  0.00  0.00    -0.082 Cl
ATOM     18  C   UNL d   1      54.400  32.342  54.496  0.00  0.00     0.008 A 
ATOM     19  C   UNL d   1      54.204  33.131  54.460  0.00  0.00     0.035 A 
ATOM     20  C   UNL d   1      53.583  33.394  53.990  0.00  0.00     0.012 A 
ATOM     21 BR   UNL d   1      54.649  33.680  54.913  0.00  0.00    -0.049 Br
ENDBRANCH   2  14
TORSDOF 2
ENDMDL
MODEL 5
REMARK VINA RESULT:      -7.4      3.478      4.874
REMARK  2 active torsions:
REMARK  status: ('A' for Active; 'I' for Inactive)
REMARK    1  A    between atoms: N_7  and  C_3 
REMARK       I    between atoms: C_8  and  N_7 
REMARK    2  A    between atoms: C_9  and  C_8 
ROOT
ATOM      1  N   UNL d   1      49.930  34.767  53.019  0.00  0.00    -0.190 NA
ATOM      2  C   UNL d   1      50.554  34.391  52.635  0.00  0.00     0.281 C 
ATOM      3  O   UNL d   1      50.501  34.219  51.830  0.00  0.00    -0.265 OA
ENDROOT
BRANCH   1   4
ATOM      4  C   UNL d   1      49.249  34.972  52.597  0.00  0.00     0.159 A 
ATOM      5  N   UNL d   1      48.702  35.493  52.922  0.00  0.00    -0.241 N 
ATOM      6  C   UNL d   1      48.028  35.696  52.504  0.00  0.00     0.343 A 
ATOM      7  C   UNL d   1      48.834  35.812  53.673  0.00  0.00     0.105 C 
ATOM      8  N   UNL d   1      47.896  35.377  51.755  0.00  0.00    -0.224 N 
ATOM      9  O   UNL d   1      47.479  36.220  52.833  0.00  0.00    -0.245 OA
ATOM     10  C   UNL d   1      48.436  34.852  51.414  0.00  0.00     0.271 A 
ATOM     11  C   UNL d   1      47.215  35.583  51.333  0.00  0.00     0.107 C 
ATOM     12  C   UNL d   1      49.117  34.653  51.848  0.00  0.00     0.099 A 
ATOM     13  O   UNL d   1      48.306  34.536  50.672  0.00  0.00    -0.266 OA
ENDBRANCH   1   4
BRANCH   2  14
ATOM     14  C   UNL d   1      51.233  34.187  53.057  0.00  0.00     0.069 A 
ATOM     15  C   UNL d   1      51.363  33.417  53.237  0.00  0.00     0.062 A 
ATOM     16  C   UNL d   1      52.033  33.198  53.656  0.00  0.00     0.012 A 
ATOM     17 CL   UNL d   1      50.819  32.833  53.001  0.00  0.00    -0.082 Cl
ATOM     18  C   UNL d   1      52.575  33.773  53.892  0.00  0.00     0.008 A 
ATOM     19  C   UNL d   1      52.435  34.552  53.705  0.00  0.00     0.035 A 
ATOM     20  C   UNL d   1      51.764  34.776  53.285  0.00  0.00     0.012 A 
ATOM     21 BR   UNL d   1      52.990  35.133  53.948  0.00  0.00    -0.049 Br
ENDBRANCH   2  14
TORSDOF 2
ENDMDL
MODEL 6
REMARK VINA RESULT:      -7.3      1.979      4.152
REMARK  2 active torsions:
REMARK  status: ('A' for Active; 'I' for Inactive)
REMARK    1  A    between atoms: N_7  and  C_3 
REMARK       I    between atoms: C_8  and  N_7 
REMARK    2  A    between atoms: C_9  and  C_8 
ROOT
ATOM      1  N   UNL d   1      53.273  32.423  53.653  0.00  0.00    -0.190 NA
ATOM      2  C   UNL d   1      52.610  32.893  53.517  0.00  0.00     0.281 C 
ATOM      3  O   UNL d   1      51.897  32.545  53.290  0.00  0.00    -0.265 OA
ENDROOT
BRANCH   1   4
ATOM      4  C   UNL d   1      53.224  31.602  53.563  0.00  0.00     0.159 A 
ATOM      5  N   UNL d   1      53.398  31.106  54.195  0.00  0.00    -0.241 N 
ATOM      6  C   UNL d   1      53.349  30.293  54.106  0.00  0.00     0.343 A 
ATOM      7  C   UNL d   1      53.622  31.428  54.922  0.00  0.00     0.105 C 
ATOM      8  N   UNL d   1      53.125  29.971  53.380  0.00  0.00    -0.224 N 
ATOM      9  O   UNL d   1      53.524  29.795  54.742  0.00  0.00    -0.245 OA
ATOM     10  C   UNL d   1      52.947  30.457  52.735  0.00  0.00     0.271 A 
ATOM     11  C   UNL d   1      53.076  29.150  53.290  0.00  0.00     0.107 C 
ATOM     12  C   UNL d   1      53.000  31.280  52.838  0.00  0.00     0.099 A 
ATOM     13  O   UNL d   1      52.725  30.138  52.016  0.00  0.00    -0.266 OA
ENDBRANCH   1   4
BRANCH   2  14
ATOM     14  C   UNL d   1      52.660  33.711  53.607  0.00  0.00     0.069 A 
ATOM     15  C   UNL d   1      52.347  34.185  53.042  0.00  0.00     0.062 A 
ATOM     16  C   UNL d   1      52.389  35.000  53.117  0.00  0.00     0.012 A 
ATOM     17 CL   UNL d   1      51.975  33.854  52.374  0.00  0.00    -0.082 Cl
ATOM     18  C   UNL d   1      52.756  35.333  53.776  0.00  0.00     0.008 A 
ATOM     19  C   UNL d   1      53.071  34.844  54.344  0.00  0.00     0.035 A 
ATOM     20  C   UNL d   1      53.031  34.026  54.273  0.00  0.00     0.012 A 
ATOM     21 BR   UNL d   1      53.443  35.189  55.014  0.00  0.00    -0.049 Br
ENDBRANCH   2  14
TORSDOF 2
ENDMDL
