MODEL 1
REMARK VINA RESULT:      -3.5      0.000      0.000
REMARK  3 active torsions:
REMARK  status: ('A' for Active; 'I' for Inactive)
REMARK    1  A    between atoms: S_5  and  C_1 
REMARK    2  A    between atoms: N_3  and  C_2 
REMARK    3  A    between atoms: C_4  and  S_5 
ROOT
ATOM      1  C   UNL d   1     -41.501-122.518 -52.862  0.00  0.00     0.140 A 
ATOM      2  C   UNL d   1     -41.686-122.276 -53.602  0.00  0.00     0.188 A 
ATOM      3  N   UNL d   1     -41.253-123.275 -52.708  0.00  0.00    -0.216 NA
ATOM      4  C   UNL d   1     -41.621-122.818 -54.239  0.00  0.00     0.209 A 
ATOM      5  N   UNL d   1     -41.376-123.565 -54.093  0.00  0.00    -0.202 NA
ATOM      6  C   UNL d   1     -41.188-123.817 -53.345  0.00  0.00     0.201 A 
ATOM      7  N   UNL d   1     -41.761-122.651 -54.834  0.00  0.00    -0.125 N 
ENDROOT
BRANCH   1   8
ATOM      8  S   UNL d   1     -41.566-121.976 -52.225  0.00  0.00    -0.028 SA
BRANCH   8   9
ATOM      9  C   UNL d   1     -41.841-122.250 -51.463  0.00  0.00     0.196 A 
ATOM     10  N   UNL d   1     -41.347-122.703 -50.985  0.00  0.00    -0.221 NA
ATOM     11  C   UNL d   1     -41.657-122.947 -50.252  0.00  0.00     0.085 A 
ATOM     12  C   UNL d   1     -41.123-123.425 -49.758  0.00  0.00     0.021 C 
ATOM     13  C   UNL d   1     -42.402-122.759 -50.005  0.00  0.00     0.038 A 
ATOM     14  C   UNL d   1     -42.884-122.315 -50.476  0.00  0.00     0.085 A 
ATOM     15  N   UNL d   1     -42.597-122.044 -51.242  0.00  0.00    -0.221 NA
ATOM     16  C   UNL d   1     -43.646-122.122 -50.224  0.00  0.00     0.021 C 
ENDBRANCH   8   9
ENDBRANCH   1   8
BRANCH   2  17
ATOM     17  N   UNL d   1     -41.934-121.519 -53.756  0.00  0.00    -0.108 N 
ATOM     18  O   UNL d   1     -42.741-121.293 -53.907  0.00  0.00    -0.532 OA
ATOM     19  O   UNL d   1     -41.423-120.858 -53.787  0.00  0.00    -0.532 OA
ENDBRANCH   2  17
TORSDOF 3
ENDMDL
MODEL 2
REMARK VINA RESULT:      -3.4      1.479      1.888
REMARK  3 active torsions:
REMARK  status: ('A' for Active; 'I' for Inactive)
REMARK    1  A    between atoms: S_5  and  C_1 
REMARK    2  A    between atoms: N_3  and  C_2 
REMARK    3  A    between atoms: C_4  and  S_5 
ROOT
ATOM      1  C   UNL d   1     -41.678-122.692 -51.081  0.00  0.00     0.140 A 
ATOM      2  C   UNL d   1     -41.661-122.254 -51.751  0.00  0.00     0.188 A 
ATOM      3  N   UNL d   1     -41.439-123.467 -51.069  0.00  0.00    -0.216 NA
ATOM      4  C   UNL d   1     -41.388-122.605 -52.463  0.00  0.00     0.209 A 
ATOM      5  N   UNL d   1     -41.152-123.368 -52.456  0.00  0.00    -0.202 NA
ATOM      6  C   UNL d   1     -41.167-123.817 -51.781  0.00  0.00     0.201 A 
ATOM      7  N   UNL d   1     -41.365-122.281 -53.006  0.00  0.00    -0.125 N 
ENDROOT
BRANCH   1   8
ATOM      8  S   UNL d   1     -41.950-122.341 -50.369  0.00  0.00    -0.028 SA
BRANCH   8   9
ATOM      9  C   UNL d   1     -42.137-122.837 -49.698  0.00  0.00     0.196 A 
ATOM     10  N   UNL d   1     -41.542-123.063 -49.175  0.00  0.00    -0.221 NA
ATOM     11  C   UNL d   1     -41.770-123.546 -48.536  0.00  0.00     0.085 A 
ATOM     12  C   UNL d   1     -41.131-123.777 -47.992  0.00  0.00     0.021 C 
ATOM     13  C   UNL d   1     -42.531-123.790 -48.419  0.00  0.00     0.038 A 
ATOM     14  C   UNL d   1     -43.110-123.566 -48.933  0.00  0.00     0.085 A 
ATOM     15  N   UNL d   1     -42.912-123.067 -49.606  0.00  0.00    -0.221 NA
ATOM     16  C   UNL d   1     -43.889-123.816 -48.813  0.00  0.00     0.021 C 
ENDBRANCH   8   9
ENDBRANCH   1   8
BRANCH   2  17
ATOM     17  N   UNL d   1     -41.899-121.479 -51.763  0.00  0.00    -0.108 N 
ATOM     18  O   UNL d   1     -42.705-121.219 -51.851  0.00  0.00    -0.532 OA
ATOM     19  O   UNL d   1     -41.378-120.829 -51.690  0.00  0.00    -0.532 OA
ENDBRANCH   2  17
TORSDOF 3
ENDMDL
MODEL 3
REMARK VINA RESULT:      -3.3      2.393      4.092
REMARK  3 active torsions:
REMARK  status: ('A' for Active; 'I' for Inactive)
REMARK    1  A    between atoms: S_5  and  C_1 
REMARK    2  A    between atoms: N_3  and  C_2 
REMARK    3  A    between atoms: C_4  and  S_5 
ROOT
ATOM      1  C   UNL d   1     -42.180-122.832 -49.906  0.00  0.00     0.140 A 
ATOM      2  C   UNL d   1     -42.223-122.926 -49.112  0.00  0.00     0.188 A 
ATOM      3  N   UNL d   1     -42.840-122.688 -50.357  0.00  0.00    -0.216 NA
ATOM      4  C   UNL d   1     -42.969-122.873 -48.732  0.00  0.00     0.209 A 
ATOM      5  N   UNL d   1     -43.621-122.731 -49.172  0.00  0.00    -0.202 NA
ATOM      6  C   UNL d   1     -43.586-122.636 -49.977  0.00  0.00     0.201 A 
ATOM      7  N   UNL d   1     -43.029-122.943 -48.106  0.00  0.00    -0.125 N 
ENDROOT
BRANCH   1   8
ATOM      8  S   UNL d   1     -41.434-122.885 -50.286  0.00  0.00    -0.028 SA
BRANCH   8   9
ATOM      9  C   UNL d   1     -41.374-122.726 -51.124  0.00  0.00     0.196 A 
ATOM     10  N   UNL d   1     -41.412-123.347 -51.664  0.00  0.00    -0.221 NA
ATOM     11  C   UNL d   1     -41.349-123.144 -52.470  0.00  0.00     0.085 A 
ATOM     12  C   UNL d   1     -41.391-123.811 -53.028  0.00  0.00     0.021 C 
ATOM     13  C   UNL d   1     -41.256-122.385 -52.727  0.00  0.00     0.038 A 
ATOM     14  C   UNL d   1     -41.219-121.780 -52.195  0.00  0.00     0.085 A 
ATOM     15  N   UNL d   1     -41.280-121.951 -51.352  0.00  0.00    -0.221 NA
ATOM     16  C   UNL d   1     -41.123-121.003 -52.458  0.00  0.00     0.021 C 
ENDBRANCH   8   9
ENDBRANCH   1   8
BRANCH   2  17
ATOM     17  N   UNL d   1     -41.563-123.070 -48.662  0.00  0.00    -0.108 N 
ATOM     18  O   UNL d   1     -41.161-122.488 -48.189  0.00  0.00    -0.532 OA
ATOM     19  O   UNL d   1     -41.193-123.817 -48.604  0.00  0.00    -0.532 OA
ENDBRANCH   2  17
TORSDOF 3
ENDMDL
MODEL 4
REMARK VINA RESULT:      -3.1      1.468      2.088
REMARK  3 active torsions:
REMARK  status: ('A' for Active; 'I' for Inactive)
REMARK    1  A    between atoms: S_5  and  C_1 
REMARK    2  A    between atoms: N_3  and  C_2 
REMARK    3  A    between atoms: C_4  and  S_5 
ROOT
ATOM      1  C   UNL d   1     -42.008-122.125 -53.855  0.00  0.00     0.140 A 
ATOM      2  C   UNL d   1     -42.072-122.251 -54.643  0.00  0.00     0.188 A 
ATOM      3  N   UNL d   1     -42.591-121.753 -53.431  0.00  0.00    -0.216 NA
ATOM      4  C   UNL d   1     -42.761-121.990 -55.045  0.00  0.00     0.209 A 
ATOM      5  N   UNL d   1     -43.338-121.622 -54.631  0.00  0.00    -0.202 NA
ATOM      6  C   UNL d   1     -43.280-121.492 -53.833  0.00  0.00     0.201 A 
ATOM      7  N   UNL d   1     -42.837-122.077 -55.667  0.00  0.00    -0.125 N 
ENDROOT
BRANCH   1   8
ATOM      8  S   UNL d   1     -41.319-122.386 -53.453  0.00  0.00    -0.028 SA
BRANCH   8   9
ATOM      9  C   UNL d   1     -41.294-122.363 -52.599  0.00  0.00     0.196 A 
ATOM     10  N   UNL d   1     -41.223-121.641 -52.208  0.00  0.00    -0.221 NA
ATOM     11  C   UNL d   1     -41.202-121.668 -51.376  0.00  0.00     0.085 A 
ATOM     12  C   UNL d   1     -41.127-120.897 -50.978  0.00  0.00     0.021 C 
ATOM     13  C   UNL d   1     -41.248-122.355 -50.957  0.00  0.00     0.038 A 
ATOM     14  C   UNL d   1     -41.318-123.060 -51.343  0.00  0.00     0.085 A 
ATOM     15  N   UNL d   1     -41.342-123.072 -52.204  0.00  0.00    -0.221 NA
ATOM     16  C   UNL d   1     -41.364-123.764 -50.913  0.00  0.00     0.021 C 
ENDBRANCH   8   9
ENDBRANCH   1   8
BRANCH   2  17
ATOM     17  N   UNL d   1     -41.490-122.624 -55.067  0.00  0.00    -0.108 N 
ATOM     18  O   UNL d   1     -41.127-122.314 -55.772  0.00  0.00    -0.532 OA
ATOM     19  O   UNL d   1     -41.168-123.368 -54.862  0.00  0.00    -0.532 OA
ENDBRANCH   2  17
TORSDOF 3
ENDMDL
MODEL 5
REMARK VINA RESULT:      -2.6      1.709      3.763
REMARK  3 active torsions:
REMARK  status: ('A' for Active; 'I' for Inactive)
REMARK    1  A    between atoms: S_5  and  C_1 
REMARK    2  A    between atoms: N_3  and  C_2 
REMARK    3  A    between atoms: C_4  and  S_5 
ROOT
ATOM      1  C   UNL d   1     -41.754-122.263 -52.042  0.00  0.00     0.140 A 
ATOM      2  C   UNL d   1     -41.748-122.397 -51.253  0.00  0.00     0.188 A 
ATOM      3  N   UNL d   1     -41.454-121.582 -52.364  0.00  0.00    -0.216 NA
ATOM      4  C   UNL d   1     -41.421-121.817 -50.742  0.00  0.00     0.209 A 
ATOM      5  N   UNL d   1     -41.124-121.144 -51.055  0.00  0.00    -0.202 NA
ATOM      6  C   UNL d   1     -41.128-121.002 -51.853  0.00  0.00     0.201 A 
ATOM      7  N   UNL d   1     -41.403-121.898 -50.115  0.00  0.00    -0.125 N 
ENDROOT
BRANCH   1   8
ATOM      8  S   UNL d   1     -42.081-122.843 -52.553  0.00  0.00    -0.028 SA
BRANCH   8   9
ATOM      9  C   UNL d   1     -42.039-122.732 -53.400  0.00  0.00     0.196 A 
ATOM     10  N   UNL d   1     -42.430-122.098 -53.752  0.00  0.00    -0.221 NA
ATOM     11  C   UNL d   1     -42.361-122.030 -54.579  0.00  0.00     0.085 A 
ATOM     12  C   UNL d   1     -42.780-121.355 -54.936  0.00  0.00     0.021 C 
ATOM     13  C   UNL d   1     -41.938-122.549 -55.029  0.00  0.00     0.038 A 
ATOM     14  C   UNL d   1     -41.557-123.169 -54.681  0.00  0.00     0.085 A 
ATOM     15  N   UNL d   1     -41.605-123.271 -53.827  0.00  0.00    -0.221 NA
ATOM     16  C   UNL d   1     -41.124-123.700 -55.142  0.00  0.00     0.021 C 
ENDBRANCH   8   9
ENDBRANCH   1   8
BRANCH   2  17
ATOM     17  N   UNL d   1     -42.048-123.078 -50.930  0.00  0.00    -0.108 N 
ATOM     18  O   UNL d   1     -42.798-123.139 -50.534  0.00  0.00    -0.532 OA
ATOM     19  O   UNL d   1     -41.653-123.815 -50.947  0.00  0.00    -0.532 OA
ENDBRANCH   2  17
TORSDOF 3
ENDMDL
MODEL 6
REMARK VINA RESULT:      -2.3      1.880      3.738
REMARK  3 active torsions:
REMARK  status: ('A' for Active; 'I' for Inactive)
REMARK    1  A    between atoms: S_5  and  C_1 
REMARK    2  A    between atoms: N_3  and  C_2 
REMARK    3  A    between atoms: C_4  and  S_5 
ROOT
ATOM      1  C   UNL d   1     -42.170-122.373 -50.796  0.00  0.00     0.140 A 
ATOM      2  C   UNL d   1     -42.197-122.708 -50.070  0.00  0.00     0.188 A 
ATOM      3  N   UNL d   1     -42.820-122.022 -51.131  0.00  0.00    -0.216 NA
ATOM      4  C   UNL d   1     -42.918-122.699 -49.640  0.00  0.00     0.209 A 
ATOM      5  N   UNL d   1     -43.561-122.355 -49.966  0.00  0.00    -0.202 NA
ATOM      6  C   UNL d   1     -43.541-122.013 -50.701  0.00  0.00     0.201 A 
ATOM      7  N   UNL d   1     -42.966-122.958 -49.065  0.00  0.00    -0.125 N 
ENDROOT
BRANCH   1   8
ATOM      8  S   UNL d   1     -41.449-122.382 -51.225  0.00  0.00    -0.028 SA
BRANCH   8   9
ATOM      9  C   UNL d   1     -41.466-122.385 -52.080  0.00  0.00     0.196 A 
ATOM     10  N   UNL d   1     -41.474-123.100 -52.489  0.00  0.00    -0.221 NA
ATOM     11  C   UNL d   1     -41.490-123.054 -53.321  0.00  0.00     0.085 A 
ATOM     12  C   UNL d   1     -41.498-123.817 -53.739  0.00  0.00     0.021 C 
ATOM     13  C   UNL d   1     -41.499-122.354 -53.722  0.00  0.00     0.038 A 
ATOM     14  C   UNL d   1     -41.492-121.656 -53.318  0.00  0.00     0.085 A 
ATOM     15  N   UNL d   1     -41.474-121.664 -52.457  0.00  0.00    -0.221 NA
ATOM     16  C   UNL d   1     -41.500-120.940 -53.729  0.00  0.00     0.021 C 
ENDBRANCH   8   9
ENDBRANCH   1   8
BRANCH   2  17
ATOM     17  N   UNL d   1     -41.546-123.059 -49.735  0.00  0.00    -0.108 N 
ATOM     18  O   UNL d   1     -41.204-123.795 -49.990  0.00  0.00    -0.532 OA
ATOM     19  O   UNL d   1     -41.125-122.737 -49.087  0.00  0.00    -0.532 OA
ENDBRANCH   2  17
TORSDOF 3
ENDMDL
MODEL 7
REMARK VINA RESULT:      -1.0      1.331      3.576
REMARK  3 active torsions:
REMARK  status: ('A' for Active; 'I' for Inactive)
REMARK    1  A    between atoms: S_5  and  C_1 
REMARK    2  A    between atoms: N_3  and  C_2 
REMARK    3  A    between atoms: C_4  and  S_5 
ROOT
ATOM      1  C   UNL d   1     -41.389-122.488 -52.502  0.00  0.00     0.140 A 
ATOM      2  C   UNL d   1     -41.374-122.244 -51.741  0.00  0.00     0.188 A 
ATOM      3  N   UNL d   1     -41.536-123.261 -52.702  0.00  0.00    -0.216 NA
ATOM      4  C   UNL d   1     -41.513-122.800 -51.129  0.00  0.00     0.209 A 
ATOM      5  N   UNL d   1     -41.658-123.563 -51.320  0.00  0.00    -0.202 NA
ATOM      6  C   UNL d   1     -41.675-123.817 -52.090  0.00  0.00     0.201 A 
ATOM      7  N   UNL d   1     -41.507-122.633 -50.519  0.00  0.00    -0.125 N 
ENDROOT
BRANCH   1   8
ATOM      8  S   UNL d   1     -41.250-121.932 -53.115  0.00  0.00    -0.028 SA
BRANCH   8   9
ATOM      9  C   UNL d   1     -41.614-122.045 -53.880  0.00  0.00     0.196 A 
ATOM     10  N   UNL d   1     -42.375-121.763 -54.019  0.00  0.00    -0.221 NA
ATOM     11  C   UNL d   1     -42.689-121.896 -54.779  0.00  0.00     0.085 A 
ATOM     12  C   UNL d   1     -43.495-121.592 -54.911  0.00  0.00     0.021 C 
ATOM     13  C   UNL d   1     -42.283-122.279 -55.362  0.00  0.00     0.038 A 
ATOM     14  C   UNL d   1     -41.538-122.553 -55.222  0.00  0.00     0.085 A 
ATOM     15  N   UNL d   1     -41.180-122.434 -54.447  0.00  0.00    -0.221 NA
ATOM     16  C   UNL d   1     -41.123-122.945 -55.819  0.00  0.00     0.021 C 
ENDBRANCH   8   9
ENDBRANCH   1   8
BRANCH   2  17
ATOM     17  N   UNL d   1     -41.227-121.471 -51.541  0.00  0.00    -0.108 N 
ATOM     18  O   UNL d   1     -41.126-120.836 -52.097  0.00  0.00    -0.532 OA
ATOM     19  O   UNL d   1     -41.156-121.199 -50.753  0.00  0.00    -0.532 OA
ENDBRANCH   2  17
TORSDOF 3
ENDMDL
