MODEL 1
REMARK VINA RESULT:      -7.8      0.000      0.000
REMARK  4 active torsions:
REMARK  status: ('A' for Active; 'I' for Inactive)
REMARK    1  A    between atoms: O_2  and  C_1 
REMARK       I    between atoms: N_6  and  C_1 
REMARK    2  A    between atoms: C_3  and  O_2 
REMARK    3  A    between atoms: C_14  and  N_6 
REMARK    4  A    between atoms: C_15  and  N_6 
ROOT
ATOM      1  C   UNL d   1     -48.110  13.527  22.850  0.00  0.00     0.105 A 
ATOM      2  C   UNL d   1     -47.754  12.837  23.130  0.00  0.00     0.024 A 
ATOM      3  C   UNL d   1     -46.947  12.764  23.160  0.00  0.00     0.013 A 
ATOM      4  C   UNL d   1     -46.473  13.379  22.911  0.00  0.00     0.058 A 
ATOM      5  C   UNL d   1     -47.615  14.146  22.600  0.00  0.00     0.026 A 
ATOM      6  C   UNL d   1     -46.809  14.074  22.630  0.00  0.00     0.013 A 
ATOM      7 CL   UNL d   1     -45.648  13.312  22.939  0.00  0.00    -0.082 Cl
ATOM      8  C   UNL d   1     -48.248  12.219  23.380  0.00  0.00     0.002 A 
ATOM      9  C   UNL d   1     -46.611  12.071  23.441  0.00  0.00     0.001 A 
ATOM     10  C   UNL d   1     -47.087  11.437  23.697  0.00  0.00     0.000 A 
ATOM     11  C   UNL d   1     -47.894  11.510  23.667  0.00  0.00     0.000 A 
ENDROOT
BRANCH   1  12
ATOM     12  O   UNL d   1     -48.922  13.608  22.817  0.00  0.00    -0.259 OA
BRANCH  12  13
ATOM     13  C   UNL d   1     -49.267  14.358  22.911  0.00  0.00     0.377 C 
ATOM     14  N   UNL d   1     -50.074  14.478  22.670  0.00  0.00    -0.252 N 
ATOM     15  O   UNL d   1     -48.852  14.988  23.230  0.00  0.00    -0.237 OA
BRANCH  14  16
ATOM     16  C   UNL d   1     -50.418  15.221  22.762  0.00  0.00     0.085 C 
ATOM     17  C   UNL d   1     -51.016  15.327  23.331  0.00  0.00     0.021 C 
ENDBRANCH  14  16
BRANCH  14  18
ATOM     18  C   UNL d   1     -50.497  13.863  22.352  0.00  0.00     0.085 C 
ATOM     19  C   UNL d   1     -51.033  14.005  21.732  0.00  0.00     0.021 C 
ENDBRANCH  14  18
ENDBRANCH  12  13
ENDBRANCH   1  12
TORSDOF 4
ENDMDL
MODEL 2
REMARK VINA RESULT:      -7.8      0.835      1.831
REMARK  4 active torsions:
REMARK  status: ('A' for Active; 'I' for Inactive)
REMARK    1  A    between atoms: O_2  and  C_1 
REMARK       I    between atoms: N_6  and  C_1 
REMARK    2  A    between atoms: C_3  and  O_2 
REMARK    3  A    between atoms: C_14  and  N_6 
REMARK    4  A    between atoms: C_15  and  N_6 
ROOT
ATOM      1  C   UNL d   1     -48.081  13.086  23.245  0.00  0.00     0.105 A 
ATOM      2  C   UNL d   1     -47.274  13.119  23.077  0.00  0.00     0.024 A 
ATOM      3  C   UNL d   1     -46.791  12.483  23.215  0.00  0.00     0.013 A 
ATOM      4  C   UNL d   1     -47.101  11.795  23.524  0.00  0.00     0.058 A 
ATOM      5  C   UNL d   1     -48.385  12.380  23.560  0.00  0.00     0.026 A 
ATOM      6  C   UNL d   1     -47.902  11.744  23.698  0.00  0.00     0.013 A 
ATOM      7 CL   UNL d   1     -46.614  11.141  23.668  0.00  0.00    -0.082 Cl
ATOM      8  C   UNL d   1     -46.971  13.825  22.762  0.00  0.00     0.002 A 
ATOM      9  C   UNL d   1     -45.991  12.534  23.042  0.00  0.00     0.001 A 
ATOM     10  C   UNL d   1     -45.665  13.233  22.725  0.00  0.00     0.000 A 
ATOM     11  C   UNL d   1     -46.148  13.869  22.587  0.00  0.00     0.000 A 
ENDROOT
BRANCH   1  12
ATOM     12  O   UNL d   1     -48.575  13.723  23.109  0.00  0.00    -0.259 OA
BRANCH  12  13
ATOM     13  C   UNL d   1     -49.369  13.594  22.902  0.00  0.00     0.377 C 
ATOM     14  N   UNL d   1     -49.914  14.248  22.915  0.00  0.00    -0.252 N 
ATOM     15  O   UNL d   1     -49.645  12.854  22.686  0.00  0.00    -0.237 OA
BRANCH  14  16
ATOM     16  C   UNL d   1     -50.702  14.122  22.711  0.00  0.00     0.085 C 
ATOM     17  C   UNL d   1     -50.972  14.358  21.960  0.00  0.00     0.021 C 
ENDBRANCH  14  16
BRANCH  14  18
ATOM     18  C   UNL d   1     -49.655  14.987  23.128  0.00  0.00     0.085 C 
ATOM     19  C   UNL d   1     -50.097  15.443  23.664  0.00  0.00     0.021 C 
ENDBRANCH  14  18
ENDBRANCH  12  13
ENDBRANCH   1  12
TORSDOF 4
ENDMDL
MODEL 3
REMARK VINA RESULT:      -7.4      1.710      3.730
REMARK  4 active torsions:
REMARK  status: ('A' for Active; 'I' for Inactive)
REMARK    1  A    between atoms: O_2  and  C_1 
REMARK       I    between atoms: N_6  and  C_1 
REMARK    2  A    between atoms: C_3  and  O_2 
REMARK    3  A    between atoms: C_14  and  N_6 
REMARK    4  A    between atoms: C_15  and  N_6 
ROOT
ATOM      1  C   UNL d   1     -48.961  14.057  22.774  0.00  0.00     0.105 A 
ATOM      2  C   UNL d   1     -49.669  13.882  22.388  0.00  0.00     0.024 A 
ATOM      3  C   UNL d   1     -50.304  14.382  22.430  0.00  0.00     0.013 A 
ATOM      4  C   UNL d   1     -50.251  15.073  22.860  0.00  0.00     0.058 A 
ATOM      5  C   UNL d   1     -48.919  14.764  23.208  0.00  0.00     0.026 A 
ATOM      6  C   UNL d   1     -49.554  15.264  23.251  0.00  0.00     0.013 A 
ATOM      7 CL   UNL d   1     -50.897  15.590  22.908  0.00  0.00    -0.082 Cl
ATOM      8  C   UNL d   1     -49.710  13.175  21.953  0.00  0.00     0.002 A 
ATOM      9  C   UNL d   1     -51.000  14.192  22.040  0.00  0.00     0.001 A 
ATOM     10  C   UNL d   1     -51.064  13.488  21.598  0.00  0.00     0.000 A 
ATOM     11  C   UNL d   1     -50.429  12.987  21.555  0.00  0.00     0.000 A 
ENDROOT
BRANCH   1  12
ATOM     12  O   UNL d   1     -48.316  13.557  22.735  0.00  0.00    -0.259 OA
BRANCH  12  13
ATOM     13  C   UNL d   1     -47.547  13.873  22.746  0.00  0.00     0.377 C 
ATOM     14  N   UNL d   1     -46.887  13.356  22.895  0.00  0.00    -0.252 N 
ATOM     15  O   UNL d   1     -47.405  14.668  22.618  0.00  0.00    -0.237 OA
BRANCH  14  16
ATOM     16  C   UNL d   1     -46.125  13.666  22.906  0.00  0.00     0.085 C 
ATOM     17  C   UNL d   1     -45.582  13.440  22.318  0.00  0.00     0.021 C 
ENDBRANCH  14  16
BRANCH  14  18
ATOM     18  C   UNL d   1     -47.014  12.565  23.024  0.00  0.00     0.085 C 
ATOM     19  C   UNL d   1     -46.584  12.167  23.615  0.00  0.00     0.021 C 
ENDBRANCH  14  18
ENDBRANCH  12  13
ENDBRANCH   1  12
TORSDOF 4
ENDMDL
MODEL 4
REMARK VINA RESULT:      -5.4      9.112      9.952
REMARK  4 active torsions:
REMARK  status: ('A' for Active; 'I' for Inactive)
REMARK    1  A    between atoms: O_2  and  C_1 
REMARK       I    between atoms: N_6  and  C_1 
REMARK    2  A    between atoms: C_3  and  O_2 
REMARK    3  A    between atoms: C_14  and  N_6 
REMARK    4  A    between atoms: C_15  and  N_6 
ROOT
ATOM      1  C   UNL d   1     -39.874  14.617  19.158  0.00  0.00     0.105 A 
ATOM      2  C   UNL d   1     -39.570  14.247  18.486  0.00  0.00     0.024 A 
ATOM      3  C   UNL d   1     -39.874  14.397  17.751  0.00  0.00     0.013 A 
ATOM      4  C   UNL d   1     -40.493  14.921  17.665  0.00  0.00     0.058 A 
ATOM      5  C   UNL d   1     -40.505  15.149  19.057  0.00  0.00     0.026 A 
ATOM      6  C   UNL d   1     -40.809  15.299  18.322  0.00  0.00     0.013 A 
ATOM      7 CL   UNL d   1     -40.810  15.080  16.916  0.00  0.00    -0.082 Cl
ATOM      8  C   UNL d   1     -38.940  13.716  18.587  0.00  0.00     0.002 A 
ATOM      9  C   UNL d   1     -39.559  14.020  17.094  0.00  0.00     0.001 A 
ATOM     10  C   UNL d   1     -38.926  13.483  17.172  0.00  0.00     0.000 A 
ATOM     11  C   UNL d   1     -38.621  13.333  17.907  0.00  0.00     0.000 A 
ENDROOT
BRANCH   1  12
ATOM     12  O   UNL d   1     -39.572  14.470  19.903  0.00  0.00    -0.259 OA
BRANCH  12  13
ATOM     13  C   UNL d   1     -39.614  15.059  20.489  0.00  0.00     0.377 C 
ATOM     14  N   UNL d   1     -39.428  14.857  21.294  0.00  0.00    -0.252 N 
ATOM     15  O   UNL d   1     -39.830  15.829  20.313  0.00  0.00    -0.237 OA
BRANCH  14  16
ATOM     16  C   UNL d   1     -39.468  15.438  21.876  0.00  0.00     0.085 C 
ATOM     17  C   UNL d   1     -38.769  15.696  22.247  0.00  0.00     0.021 C 
ENDBRANCH  14  16
BRANCH  14  18
ATOM     18  C   UNL d   1     -39.212  14.098  21.482  0.00  0.00     0.085 C 
ATOM     19  C   UNL d   1     -39.457  13.764  22.204  0.00  0.00     0.021 C 
ENDBRANCH  14  18
ENDBRANCH  12  13
ENDBRANCH   1  12
TORSDOF 4
ENDMDL
