MODEL 1
REMARK VINA RESULT:      22.5      0.000      0.000
REMARK  2 active torsions:
REMARK  status: ('A' for Active; 'I' for Inactive)
REMARK    1  A    between atoms: C_7  and  C_4 
REMARK    2  A    between atoms: O_13  and  C_11 
ROOT
ATOM      1  N   UNL d   1      58.238  49.620  51.382  0.00  0.00    -0.211 NA
ATOM      2  C   UNL d   1      57.416  49.617  51.238  0.00  0.00     0.140 A 
ATOM      3  C   UNL d   1      57.137  49.645  50.465  0.00  0.00     0.051 A 
ATOM      4  C   UNL d   1      58.764  49.650  50.744  0.00  0.00     0.183 A 
ATOM      5  C   UNL d   1      57.665  49.674  49.833  0.00  0.00     0.104 A 
ATOM      6  O   UNL d   1      58.479  49.677  49.971  0.00  0.00    -0.289 OA
ATOM      7  S   UNL d   1      56.885  49.588  51.868  0.00  0.00    -0.057 SA
ATOM      8  C   UNL d   1      56.324  49.643  50.317  0.00  0.00     0.004 A 
ATOM      9  C   UNL d   1      57.391  49.702  49.059  0.00  0.00     0.025 A 
ATOM     10  C   UNL d   1      56.037  49.670  49.539  0.00  0.00     0.000 A 
ATOM     11  C   UNL d   1      56.575  49.700  48.914  0.00  0.00     0.002 A 
ENDROOT
BRANCH   4  12
ATOM     12  C   UNL d   1      59.571  49.652  50.893  0.00  0.00     0.043 A 
ATOM     13  C   UNL d   1      59.859  49.662  51.656  0.00  0.00     0.028 A 
ATOM     14  C   UNL d   1      60.664  49.664  51.800  0.00  0.00     0.094 A 
ATOM     15  C   UNL d   1      61.196  49.655  51.169  0.00  0.00     0.024 A 
ATOM     16  C   UNL d   1      60.907  49.645  50.394  0.00  0.00     0.002 A 
ATOM     17  C   UNL d   1      60.098  49.643  50.248  0.00  0.00     0.004 A 
BRANCH  14  18
ATOM     18  O   UNL d   1      60.950  49.674  52.572  0.00  0.00    -0.328 OA
ATOM     19  C   UNL d   1      61.761  49.705  52.714  0.00  0.00     0.181 C 
ENDBRANCH  14  18
ENDBRANCH   4  12
TORSDOF 2
ENDMDL
