MODEL 1
REMARK VINA RESULT:      59.7      0.000      0.000
REMARK  3 active torsions:
REMARK  status: ('A' for Active; 'I' for Inactive)
REMARK    1  A    between atoms: S_2  and  N_1 
REMARK    2  A    between atoms: C_7  and  S_2 
REMARK    3  A    between atoms: C_14  and  C_6 
ROOT
ATOM      1  S   UNL d   1      59.104  49.114  51.092  0.00  0.00     0.273 S 
ATOM      2  O   UNL d   1      59.010  48.505  51.569  0.00  0.00    -0.200 OA
ATOM      3  O   UNL d   1      59.360  49.708  50.737  0.00  0.00    -0.200 OA
ENDROOT
BRANCH   1   4
ATOM      4  N   UNL d   1      59.764  49.263  51.407  0.00  0.00    -0.202 N 
ATOM      5  C   UNL d   1      59.866  49.552  52.097  0.00  0.00     0.218 A 
ATOM      6  N   UNL d   1      60.612  49.620  52.211  0.00  0.00    -0.178 NA
ATOM      7  S   UNL d   1      59.241  49.702  52.497  0.00  0.00    -0.037 SA
ATOM      8  C   UNL d   1      60.957  49.372  51.593  0.00  0.00     0.298 A 
ATOM      9  C   UNL d   1      60.438  49.152  51.098  0.00  0.00     0.135 A 
ATOM     10  O   UNL d   1      61.705  49.363  51.520  0.00  0.00    -0.264 OA
BRANCH   9  11
ATOM     11  C   UNL d   1      60.562  48.871  50.414  0.00  0.00     0.022 C 
ATOM     12  C   UNL d   1      60.879  48.195  50.343  0.00  0.00     0.002 C 
ATOM     13  C   UNL d   1      60.370  49.263  49.803  0.00  0.00     0.002 C 
ENDBRANCH   9  11
ENDBRANCH   1   4
BRANCH   1  14
ATOM     14  C   UNL d   1      58.386  49.007  50.699  0.00  0.00     0.104 A 
ATOM     15  C   UNL d   1      57.807  48.502  51.008  0.00  0.00     0.012 A 
ATOM     16  C   UNL d   1      57.088  48.396  50.615  0.00  0.00     0.001 A 
ATOM     17  C   UNL d   1      57.970  48.103  51.731  0.00  0.00     0.001 C 
ATOM     18  C   UNL d   1      56.941  48.793  49.908  0.00  0.00     0.000 A 
ATOM     19  C   UNL d   1      57.515  49.300  49.591  0.00  0.00     0.001 A 
ATOM     20  C   UNL d   1      58.240  49.408  49.988  0.00  0.00     0.013 A 
ATOM     21  C   UNL d   1      57.367  49.702  48.877  0.00  0.00     0.000 C 
ENDBRANCH   1  14
TORSDOF 3
ENDMDL
