MODEL 1
REMARK VINA RESULT:      -3.8      0.000      0.000
REMARK  5 active torsions:
REMARK  status: ('A' for Active; 'I' for Inactive)
REMARK    1  A    between atoms: C_2  and  S_1 
REMARK    2  A    between atoms: N_3  and  S_1 
REMARK    3  A    between atoms: C_6  and  C_7 
REMARK    4  A    between atoms: C_7  and  C_8 
REMARK    5  A    between atoms: C_8  and  C_12 
ROOT
ATOM      1  C   UNL d   1     -41.647-122.358 -51.253  0.00  0.00     0.104 A 
ATOM      2  C   UNL d   1     -41.371-121.598 -51.260  0.00  0.00     0.012 A 
ATOM      3  C   UNL d   1     -41.689-122.795 -51.936  0.00  0.00     0.013 A 
ATOM      4  C   UNL d   1     -41.441-122.452 -52.661  0.00  0.00     0.001 A 
ATOM      5  C   UNL d   1     -41.123-121.255 -51.986  0.00  0.00     0.001 A 
ATOM      6  C   UNL d   1     -41.164-121.690 -52.666  0.00  0.00     0.000 A 
ATOM      7  C   UNL d   1     -41.331-121.153 -50.550  0.00  0.00     0.001 C 
ENDROOT
BRANCH   1   8
ATOM      8  S   UNL d   1     -41.895-122.701 -50.528  0.00  0.00     0.271 S 
ATOM      9  O   UNL d   1     -41.123-122.917 -50.366  0.00  0.00    -0.200 OA
ATOM     10  O   UNL d   1     -42.688-122.479 -50.694  0.00  0.00    -0.200 OA
BRANCH   8  11
ATOM     11  N   UNL d   1     -42.129-123.037 -49.821  0.00  0.00    -0.229 N 
ATOM     12  C   UNL d   1     -41.590-123.477 -49.385  0.00  0.00     0.092 A 
ATOM     13  C   UNL d   1     -41.828-123.817 -48.667  0.00  0.00     0.020 A 
ATOM     14  C   UNL d   1     -42.607-123.715 -48.390  0.00  0.00     0.003 A 
ATOM     15  C   UNL d   1     -43.122-123.273 -48.843  0.00  0.00     0.020 A 
ATOM     16  C   UNL d   1     -42.889-122.932 -49.558  0.00  0.00     0.092 A 
ENDBRANCH   8  11
ENDBRANCH   1   8
BRANCH   4  17
ATOM     17  C   UNL d   1     -41.488-122.917 -53.374  0.00  0.00     0.006 C 
BRANCH  17  18
ATOM     18  C   UNL d   1     -41.693-122.574 -54.107  0.00  0.00     0.070 C 
BRANCH  18  19
ATOM     19  C   UNL d   1     -41.700-123.028 -54.788  0.00  0.00     0.211 C 
ATOM     20  O   UNL d   1     -41.215-123.703 -54.846  0.00  0.00    -0.644 OA
ATOM     21  O   UNL d   1     -42.182-122.825 -55.416  0.00  0.00    -0.644 OA
ENDBRANCH  18  19
ENDBRANCH  17  18
ENDBRANCH   4  17
TORSDOF 5
ENDMDL
MODEL 2
REMARK VINA RESULT:      -2.7      1.577      4.314
REMARK  5 active torsions:
REMARK  status: ('A' for Active; 'I' for Inactive)
REMARK    1  A    between atoms: C_2  and  S_1 
REMARK    2  A    between atoms: N_3  and  S_1 
REMARK    3  A    between atoms: C_6  and  C_7 
REMARK    4  A    between atoms: C_7  and  C_8 
REMARK    5  A    between atoms: C_8  and  C_12 
ROOT
ATOM      1  C   UNL d   1     -41.654-122.094 -52.254  0.00  0.00     0.104 A 
ATOM      2  C   UNL d   1     -41.338-121.401 -51.982  0.00  0.00     0.012 A 
ATOM      3  C   UNL d   1     -41.866-122.688 -51.744  0.00  0.00     0.013 A 
ATOM      4  C   UNL d   1     -41.754-122.582 -50.918  0.00  0.00     0.001 A 
ATOM      5  C   UNL d   1     -41.226-121.295 -51.156  0.00  0.00     0.001 A 
ATOM      6  C   UNL d   1     -41.437-121.886 -50.647  0.00  0.00     0.000 A 
ATOM      7  C   UNL d   1     -41.123-120.791 -52.517  0.00  0.00     0.001 C 
ENDROOT
BRANCH   1   8
ATOM      8  S   UNL d   1     -41.766-122.200 -53.080  0.00  0.00     0.271 S 
ATOM      9  O   UNL d   1     -41.147-122.735 -53.095  0.00  0.00    -0.200 OA
ATOM     10  O   UNL d   1     -42.401-121.651 -53.065  0.00  0.00    -0.200 OA
BRANCH   8  11
ATOM     11  N   UNL d   1     -41.869-122.309 -53.883  0.00  0.00    -0.229 N 
ATOM     12  C   UNL d   1     -42.568-122.064 -54.238  0.00  0.00     0.092 A 
ATOM     13  C   UNL d   1     -42.671-122.175 -55.053  0.00  0.00     0.020 A 
ATOM     14  C   UNL d   1     -42.072-122.531 -55.510  0.00  0.00     0.003 A 
ATOM     15  C   UNL d   1     -41.387-122.765 -55.131  0.00  0.00     0.020 A 
ATOM     16  C   UNL d   1     -41.281-122.656 -54.320  0.00  0.00     0.092 A 
ENDBRANCH   8  11
ENDBRANCH   1   8
BRANCH   4  17
ATOM     17  C   UNL d   1     -41.978-123.210 -50.388  0.00  0.00     0.006 C 
BRANCH  17  18
ATOM     18  C   UNL d   1     -42.035-123.086 -49.564  0.00  0.00     0.070 C 
BRANCH  18  19
ATOM     19  C   UNL d   1     -42.514-123.568 -49.107  0.00  0.00     0.211 C 
ATOM     20  O   UNL d   1     -43.259-123.809 -49.392  0.00  0.00    -0.644 OA
ATOM     21  O   UNL d   1     -42.267-123.817 -48.369  0.00  0.00    -0.644 OA
ENDBRANCH  18  19
ENDBRANCH  17  18
ENDBRANCH   4  17
TORSDOF 5
ENDMDL
MODEL 3
REMARK VINA RESULT:      -2.0      1.797      4.661
REMARK  5 active torsions:
REMARK  status: ('A' for Active; 'I' for Inactive)
REMARK    1  A    between atoms: C_2  and  S_1 
REMARK    2  A    between atoms: N_3  and  S_1 
REMARK    3  A    between atoms: C_6  and  C_7 
REMARK    4  A    between atoms: C_7  and  C_8 
REMARK    5  A    between atoms: C_8  and  C_12 
ROOT
ATOM      1  C   UNL d   1     -41.775-122.676 -53.003  0.00  0.00     0.104 A 
ATOM      2  C   UNL d   1     -41.380-123.375 -52.905  0.00  0.00     0.012 A 
ATOM      3  C   UNL d   1     -42.027-122.244 -52.364  0.00  0.00     0.013 A 
ATOM      4  C   UNL d   1     -41.874-122.527 -51.589  0.00  0.00     0.001 A 
ATOM      5  C   UNL d   1     -41.227-123.658 -52.129  0.00  0.00     0.001 A 
ATOM      6  C   UNL d   1     -41.478-123.228 -51.493  0.00  0.00     0.000 A 
ATOM      7  C   UNL d   1     -41.123-123.816 -53.572  0.00  0.00     0.001 C 
ENDROOT
BRANCH   1   8
ATOM      8  S   UNL d   1     -41.928-122.393 -53.779  0.00  0.00     0.271 S 
ATOM      9  O   UNL d   1     -42.636-122.802 -53.789  0.00  0.00    -0.200 OA
ATOM     10  O   UNL d   1     -41.201-121.973 -53.768  0.00  0.00    -0.200 OA
BRANCH   8  11
ATOM     11  N   UNL d   1     -42.084-122.121 -54.533  0.00  0.00    -0.229 N 
ATOM     12  C   UNL d   1     -42.854-122.134 -54.817  0.00  0.00     0.092 A 
ATOM     13  C   UNL d   1     -43.011-121.858 -55.582  0.00  0.00     0.020 A 
ATOM     14  C   UNL d   1     -42.393-121.570 -56.062  0.00  0.00     0.003 A 
ATOM     15  C   UNL d   1     -41.637-121.568 -55.755  0.00  0.00     0.020 A 
ATOM     16  C   UNL d   1     -41.477-121.842 -54.993  0.00  0.00     0.092 A 
ENDBRANCH   8  11
ENDBRANCH   1   8
BRANCH   4  17
ATOM     17  C   UNL d   1     -42.141-122.068 -50.922  0.00  0.00     0.006 C 
BRANCH  17  18
ATOM     18  C   UNL d   1     -42.123-122.374 -50.145  0.00  0.00     0.070 C 
BRANCH  18  19
ATOM     19  C   UNL d   1     -42.799-122.371 -49.684  0.00  0.00     0.211 C 
ATOM     20  O   UNL d   1     -43.546-122.266 -50.037  0.00  0.00    -0.644 OA
ATOM     21  O   UNL d   1     -42.748-122.470 -48.875  0.00  0.00    -0.644 OA
ENDBRANCH  18  19
ENDBRANCH  17  18
ENDBRANCH   4  17
TORSDOF 5
ENDMDL
MODEL 4
REMARK VINA RESULT:      -1.6      1.239      1.652
REMARK  5 active torsions:
REMARK  status: ('A' for Active; 'I' for Inactive)
REMARK    1  A    between atoms: C_2  and  S_1 
REMARK    2  A    between atoms: N_3  and  S_1 
REMARK    3  A    between atoms: C_6  and  C_7 
REMARK    4  A    between atoms: C_7  and  C_8 
REMARK    5  A    between atoms: C_8  and  C_12 
ROOT
ATOM      1  C   UNL d   1     -41.958-122.750 -51.724  0.00  0.00     0.104 A 
ATOM      2  C   UNL d   1     -41.409-123.323 -51.877  0.00  0.00     0.012 A 
ATOM      3  C   UNL d   1     -42.238-122.268 -52.313  0.00  0.00     0.013 A 
ATOM      4  C   UNL d   1     -41.952-122.366 -53.097  0.00  0.00     0.001 A 
ATOM      5  C   UNL d   1     -41.122-123.422 -52.661  0.00  0.00     0.001 A 
ATOM      6  C   UNL d   1     -41.401-122.942 -53.249  0.00  0.00     0.000 A 
ATOM      7  C   UNL d   1     -41.124-123.817 -51.261  0.00  0.00     0.001 C 
ENDROOT
BRANCH   1   8
ATOM      8  S   UNL d   1     -42.244-122.651 -50.940  0.00  0.00     0.271 S 
ATOM      9  O   UNL d   1     -42.755-123.281 -51.047  0.00  0.00    -0.200 OA
ATOM     10  O   UNL d   1     -41.720-122.004 -50.830  0.00  0.00    -0.200 OA
BRANCH   8  11
ATOM     11  N   UNL d   1     -42.528-122.561 -50.179  0.00  0.00    -0.229 N 
ATOM     12  C   UNL d   1     -43.321-122.386 -50.061  0.00  0.00     0.092 A 
ATOM     13  C   UNL d   1     -43.608-122.295 -49.289  0.00  0.00     0.020 A 
ATOM     14  C   UNL d   1     -43.096-122.380 -48.636  0.00  0.00     0.003 A 
ATOM     15  C   UNL d   1     -42.312-122.555 -48.782  0.00  0.00     0.020 A 
ATOM     16  C   UNL d   1     -42.023-122.646 -49.550  0.00  0.00     0.092 A 
ENDBRANCH   8  11
ENDBRANCH   1   8
BRANCH   4  17
ATOM     17  C   UNL d   1     -42.250-121.857 -53.711  0.00  0.00     0.006 C 
BRANCH  17  18
ATOM     18  C   UNL d   1     -42.293-122.110 -54.507  0.00  0.00     0.070 C 
BRANCH  18  19
ATOM     19  C   UNL d   1     -42.613-121.620 -55.078  0.00  0.00     0.211 C 
ATOM     20  O   UNL d   1     -43.428-121.649 -55.247  0.00  0.00    -0.644 OA
ATOM     21  O   UNL d   1     -42.137-121.098 -55.489  0.00  0.00    -0.644 OA
ENDBRANCH  18  19
ENDBRANCH  17  18
ENDBRANCH   4  17
TORSDOF 5
ENDMDL
