MODEL 1
REMARK VINA RESULT:      -6.7      0.000      0.000
REMARK  7 active torsions:
REMARK  status: ('A' for Active; 'I' for Inactive)
REMARK    1  A    between atoms: C_3  and  C_1 
REMARK    2  A    between atoms: O_13  and  C_1 
REMARK       I    between atoms: C_2  and  N_7 
REMARK    3  A    between atoms: C_4  and  C_2 
REMARK    4  A    between atoms: C_6  and  C_4 
REMARK    5  A    between atoms: C_5  and  C_6 
REMARK    6  A    between atoms: O_14  and  C_5 
REMARK    7  A    between atoms: N_7  and  C_9 
ROOT
ATOM      1  C   UNL d   1     -50.260  14.540  22.231  0.00  0.00     0.063 A 
ATOM      2  C   UNL d   1     -49.441  14.456  22.130  0.00  0.00     0.023 A 
ATOM      3  C   UNL d   1     -48.930  14.755  22.699  0.00  0.00     0.059 A 
ATOM      4  C   UNL d   1     -50.563  14.921  22.897  0.00  0.00     0.006 A 
ATOM      5  C   UNL d   1     -50.049  15.218  23.461  0.00  0.00     0.002 A 
ATOM      6  C   UNL d   1     -49.233  15.136  23.365  0.00  0.00     0.017 A 
ENDROOT
BRANCH   3   7
ATOM      7  N   UNL d   1     -48.116  14.676  22.607  0.00  0.00    -0.321 N 
ATOM      8  C   UNL d   1     -47.721  14.048  22.945  0.00  0.00     0.258 C 
ATOM      9  O   UNL d   1     -48.148  13.498  23.377  0.00  0.00    -0.267 OA
ATOM     10  H   UNL d   1     -47.698  15.231  22.173  0.00  0.00     0.169 HD
BRANCH   8  11
ATOM     11  C   UNL d   1     -46.918  13.975  22.851  0.00  0.00     0.067 C 
BRANCH  11  12
ATOM     12  C   UNL d   1     -46.603  13.270  22.585  0.00  0.00     0.072 C 
BRANCH  12  13
ATOM     13  C   UNL d   1     -45.798  13.112  22.671  0.00  0.00     0.178 C 
ATOM     14  O   UNL d   1     -45.253  13.518  22.207  0.00  0.00    -0.646 OA
BRANCH  13  15
ATOM     15  O   UNL d   1     -45.536  12.551  23.219  0.00  0.00    -0.773 OA
ATOM     16  H   UNL d   1     -45.362  12.793  23.991  0.00  0.00     0.167 HD
ENDBRANCH  13  15
ENDBRANCH  12  13
ENDBRANCH  11  12
ENDBRANCH   8  11
ENDBRANCH   3   7
BRANCH   1  17
ATOM     17  C   UNL d   1     -50.770  14.238  21.657  0.00  0.00     0.178 C 
ATOM     18  O   UNL d   1     -50.988  13.442  21.665  0.00  0.00    -0.646 OA
BRANCH  17  19
ATOM     19  O   UNL d   1     -51.064  14.739  21.070  0.00  0.00    -0.773 OA
ATOM     20  H   UNL d   1     -51.810  14.604  20.743  0.00  0.00     0.167 HD
ENDBRANCH  17  19
ENDBRANCH   1  17
TORSDOF 7
ENDMDL
MODEL 2
REMARK VINA RESULT:      -6.5      1.232      1.446
REMARK  7 active torsions:
REMARK  status: ('A' for Active; 'I' for Inactive)
REMARK    1  A    between atoms: C_3  and  C_1 
REMARK    2  A    between atoms: O_13  and  C_1 
REMARK       I    between atoms: C_2  and  N_7 
REMARK    3  A    between atoms: C_4  and  C_2 
REMARK    4  A    between atoms: C_6  and  C_4 
REMARK    5  A    between atoms: C_5  and  C_6 
REMARK    6  A    between atoms: O_14  and  C_5 
REMARK    7  A    between atoms: N_7  and  C_9 
ROOT
ATOM      1  C   UNL d   1     -50.531  13.927  22.486  0.00  0.00     0.063 A 
ATOM      2  C   UNL d   1     -49.744  13.905  22.744  0.00  0.00     0.023 A 
ATOM      3  C   UNL d   1     -49.438  13.207  23.053  0.00  0.00     0.059 A 
ATOM      4  C   UNL d   1     -51.009  13.255  22.536  0.00  0.00     0.006 A 
ATOM      5  C   UNL d   1     -50.699  12.562  22.844  0.00  0.00     0.002 A 
ATOM      6  C   UNL d   1     -49.916  12.536  23.103  0.00  0.00     0.017 A 
ENDROOT
BRANCH   3   7
ATOM      7  N   UNL d   1     -48.658  13.175  23.312  0.00  0.00    -0.321 N 
ATOM      8  C   UNL d   1     -48.062  12.957  22.801  0.00  0.00     0.258 C 
ATOM      9  O   UNL d   1     -48.253  12.769  22.027  0.00  0.00    -0.267 OA
ATOM     10  H   UNL d   1     -48.478  13.365  24.088  0.00  0.00     0.169 HD
BRANCH   8  11
ATOM     11  C   UNL d   1     -47.293  12.927  23.063  0.00  0.00     0.067 C 
BRANCH  11  12
ATOM     12  C   UNL d   1     -46.682  12.913  22.521  0.00  0.00     0.072 C 
BRANCH  12  13
ATOM     13  C   UNL d   1     -45.898  12.955  22.775  0.00  0.00     0.178 C 
ATOM     14  O   UNL d   1     -45.434  13.599  22.558  0.00  0.00    -0.646 OA
BRANCH  13  15
ATOM     15  O   UNL d   1     -45.576  12.356  23.244  0.00  0.00    -0.773 OA
ATOM     16  H   UNL d   1     -45.727  12.356  24.058  0.00  0.00     0.167 HD
ENDBRANCH  13  15
ENDBRANCH  12  13
ENDBRANCH  11  12
ENDBRANCH   8  11
ENDBRANCH   3   7
BRANCH   1  17
ATOM     17  C   UNL d   1     -50.835  14.630  22.177  0.00  0.00     0.178 C 
ATOM     18  O   UNL d   1     -51.064  15.243  22.678  0.00  0.00    -0.646 OA
BRANCH  17  19
ATOM     19  O   UNL d   1     -50.908  14.717  21.360  0.00  0.00    -0.773 OA
ATOM     20  H   UNL d   1     -51.079  14.064  20.885  0.00  0.00     0.167 HD
ENDBRANCH  17  19
ENDBRANCH   1  17
TORSDOF 7
ENDMDL
MODEL 3
REMARK VINA RESULT:      -6.4      0.950      4.275
REMARK  7 active torsions:
REMARK  status: ('A' for Active; 'I' for Inactive)
REMARK    1  A    between atoms: C_3  and  C_1 
REMARK    2  A    between atoms: O_13  and  C_1 
REMARK       I    between atoms: C_2  and  N_7 
REMARK    3  A    between atoms: C_4  and  C_2 
REMARK    4  A    between atoms: C_6  and  C_4 
REMARK    5  A    between atoms: C_5  and  C_6 
REMARK    6  A    between atoms: O_14  and  C_5 
REMARK    7  A    between atoms: N_7  and  C_9 
ROOT
ATOM      1  C   UNL d   1     -46.206  12.993  22.848  0.00  0.00     0.063 A 
ATOM      2  C   UNL d   1     -46.770  13.593  22.761  0.00  0.00     0.023 A 
ATOM      3  C   UNL d   1     -47.527  13.485  23.063  0.00  0.00     0.059 A 
ATOM      4  C   UNL d   1     -46.397  12.290  23.236  0.00  0.00     0.006 A 
ATOM      5  C   UNL d   1     -47.152  12.187  23.535  0.00  0.00     0.002 A 
ATOM      6  C   UNL d   1     -47.718  12.782  23.450  0.00  0.00     0.017 A 
ENDROOT
BRANCH   3   7
ATOM      7  N   UNL d   1     -48.095  14.075  22.981  0.00  0.00    -0.321 N 
ATOM      8  C   UNL d   1     -48.699  13.994  22.442  0.00  0.00     0.258 C 
ATOM      9  O   UNL d   1     -48.733  13.316  21.983  0.00  0.00    -0.267 OA
ATOM     10  H   UNL d   1     -48.052  14.749  23.445  0.00  0.00     0.169 HD
BRANCH   8  11
ATOM     11  C   UNL d   1     -49.257  14.580  22.365  0.00  0.00     0.067 C 
BRANCH  11  12
ATOM     12  C   UNL d   1     -50.045  14.380  22.278  0.00  0.00     0.072 C 
BRANCH  12  13
ATOM     13  C   UNL d   1     -50.617  14.968  22.184  0.00  0.00     0.178 C 
ATOM     14  O   UNL d   1     -50.782  15.476  22.811  0.00  0.00    -0.646 OA
BRANCH  13  15
ATOM     15  O   UNL d   1     -51.023  15.049  21.470  0.00  0.00    -0.773 OA
ATOM     16  H   UNL d   1     -51.632  14.519  21.289  0.00  0.00     0.167 HD
ENDBRANCH  13  15
ENDBRANCH  12  13
ENDBRANCH  11  12
ENDBRANCH   8  11
ENDBRANCH   3   7
BRANCH   1  17
ATOM     17  C   UNL d   1     -45.447  13.106  22.543  0.00  0.00     0.178 C 
ATOM     18  O   UNL d   1     -44.893  12.495  22.559  0.00  0.00    -0.646 OA
BRANCH  17  19
ATOM     19  O   UNL d   1     -45.243  13.837  22.219  0.00  0.00    -0.773 OA
ATOM     20  H   UNL d   1     -44.605  13.900  21.701  0.00  0.00     0.167 HD
ENDBRANCH  17  19
ENDBRANCH   1  17
TORSDOF 7
ENDMDL
MODEL 4
REMARK VINA RESULT:      -5.1      8.442      9.741
REMARK  7 active torsions:
REMARK  status: ('A' for Active; 'I' for Inactive)
REMARK    1  A    between atoms: C_3  and  C_1 
REMARK    2  A    between atoms: O_13  and  C_1 
REMARK       I    between atoms: C_2  and  N_7 
REMARK    3  A    between atoms: C_4  and  C_2 
REMARK    4  A    between atoms: C_6  and  C_4 
REMARK    5  A    between atoms: C_5  and  C_6 
REMARK    6  A    between atoms: O_14  and  C_5 
REMARK    7  A    between atoms: N_7  and  C_9 
ROOT
ATOM      1  C   UNL d   1     -39.405  14.310  20.940  0.00  0.00     0.063 A 
ATOM      2  C   UNL d   1     -39.525  14.756  20.252  0.00  0.00     0.023 A 
ATOM      3  C   UNL d   1     -40.290  14.947  20.021  0.00  0.00     0.059 A 
ATOM      4  C   UNL d   1     -40.047  14.057  21.394  0.00  0.00     0.006 A 
ATOM      5  C   UNL d   1     -40.807  14.250  21.160  0.00  0.00     0.002 A 
ATOM      6  C   UNL d   1     -40.931  14.694  20.475  0.00  0.00     0.017 A 
ENDROOT
BRANCH   3   7
ATOM      7  N   UNL d   1     -40.419  15.390  19.340  0.00  0.00    -0.321 N 
ATOM      8  C   UNL d   1     -40.557  15.019  18.627  0.00  0.00     0.258 C 
ATOM      9  O   UNL d   1     -40.565  14.200  18.602  0.00  0.00    -0.267 OA
ATOM     10  H   UNL d   1     -40.409  16.208  19.376  0.00  0.00     0.169 HD
BRANCH   8  11
ATOM     11  C   UNL d   1     -40.684  15.461  17.957  0.00  0.00     0.067 C 
BRANCH  11  12
ATOM     12  C   UNL d   1     -40.938  15.095  17.273  0.00  0.00     0.072 C 
BRANCH  12  13
ATOM     13  C   UNL d   1     -41.142  15.543  16.611  0.00  0.00     0.178 C 
ATOM     14  O   UNL d   1     -41.934  15.610  16.395  0.00  0.00    -0.646 OA
BRANCH  13  15
ATOM     15  O   UNL d   1     -40.561  15.922  16.164  0.00  0.00    -0.773 OA
ATOM     16  H   UNL d   1     -40.397  15.649  15.399  0.00  0.00     0.167 HD
ENDBRANCH  13  15
ENDBRANCH  12  13
ENDBRANCH  11  12
ENDBRANCH   8  11
ENDBRANCH   3   7
BRANCH   1  17
ATOM     17  C   UNL d   1     -38.635  14.120  21.169  0.00  0.00     0.178 C 
ATOM     18  O   UNL d   1     -38.267  14.527  21.785  0.00  0.00    -0.646 OA
BRANCH  17  19
ATOM     19  O   UNL d   1     -38.231  13.518  20.775  0.00  0.00    -0.773 OA
ATOM     20  H   UNL d   1     -37.419  13.420  20.885  0.00  0.00     0.167 HD
ENDBRANCH  17  19
ENDBRANCH   1  17
TORSDOF 7
ENDMDL
MODEL 5
REMARK VINA RESULT:      -5.0      9.117      9.736
REMARK  7 active torsions:
REMARK  status: ('A' for Active; 'I' for Inactive)
REMARK    1  A    between atoms: C_3  and  C_1 
REMARK    2  A    between atoms: O_13  and  C_1 
REMARK       I    between atoms: C_2  and  N_7 
REMARK    3  A    between atoms: C_4  and  C_2 
REMARK    4  A    between atoms: C_6  and  C_4 
REMARK    5  A    between atoms: C_5  and  C_6 
REMARK    6  A    between atoms: O_14  and  C_5 
REMARK    7  A    between atoms: N_7  and  C_9 
ROOT
ATOM      1  C   UNL d   1     -40.391  14.823  17.166  0.00  0.00     0.063 A 
ATOM      2  C   UNL d   1     -40.530  14.782  17.982  0.00  0.00     0.023 A 
ATOM      3  C   UNL d   1     -40.068  14.287  18.447  0.00  0.00     0.059 A 
ATOM      4  C   UNL d   1     -39.794  14.371  16.818  0.00  0.00     0.006 A 
ATOM      5  C   UNL d   1     -39.336  13.879  17.286  0.00  0.00     0.002 A 
ATOM      6  C   UNL d   1     -39.471  13.835  18.100  0.00  0.00     0.017 A 
ENDROOT
BRANCH   3   7
ATOM      7  N   UNL d   1     -40.198  14.239  19.258  0.00  0.00    -0.321 N 
ATOM      8  C   UNL d   1     -39.669  14.572  19.781  0.00  0.00     0.258 C 
ATOM      9  O   UNL d   1     -39.007  14.954  19.486  0.00  0.00    -0.267 OA
ATOM     10  H   UNL d   1     -40.863  13.855  19.543  0.00  0.00     0.169 HD
BRANCH   8  11
ATOM     11  C   UNL d   1     -39.803  14.522  20.581  0.00  0.00     0.067 C 
BRANCH  11  12
ATOM     12  C   UNL d   1     -39.182  14.356  21.086  0.00  0.00     0.072 C 
BRANCH  12  13
ATOM     13  C   UNL d   1     -39.315  14.262  21.895  0.00  0.00     0.178 C 
ATOM     14  O   UNL d   1     -39.397  13.505  22.207  0.00  0.00    -0.646 OA
BRANCH  13  15
ATOM     15  O   UNL d   1     -39.367  14.920  22.391  0.00  0.00    -0.773 OA
ATOM     16  H   UNL d   1     -39.903  14.908  23.022  0.00  0.00     0.167 HD
ENDBRANCH  13  15
ENDBRANCH  12  13
ENDBRANCH  11  12
ENDBRANCH   8  11
ENDBRANCH   3   7
BRANCH   1  17
ATOM     17  C   UNL d   1     -40.857  15.322  16.702  0.00  0.00     0.178 C 
ATOM     18  O   UNL d   1     -41.676  15.227  16.677  0.00  0.00    -0.646 OA
BRANCH  17  19
ATOM     19  O   UNL d   1     -40.499  15.920  16.261  0.00  0.00    -0.773 OA
ATOM     20  H   UNL d   1     -39.832  15.758  15.803  0.00  0.00     0.167 HD
ENDBRANCH  17  19
ENDBRANCH   1  17
TORSDOF 7
ENDMDL
MODEL 6
REMARK VINA RESULT:      -4.6      8.253     10.754
REMARK  7 active torsions:
REMARK  status: ('A' for Active; 'I' for Inactive)
REMARK    1  A    between atoms: C_3  and  C_1 
REMARK    2  A    between atoms: O_13  and  C_1 
REMARK       I    between atoms: C_2  and  N_7 
REMARK    3  A    between atoms: C_4  and  C_2 
REMARK    4  A    between atoms: C_6  and  C_4 
REMARK    5  A    between atoms: C_5  and  C_6 
REMARK    6  A    between atoms: O_14  and  C_5 
REMARK    7  A    between atoms: N_7  and  C_9 
ROOT
ATOM      1  C   UNL d   1     -38.512  14.086  16.521  0.00  0.00     0.063 A 
ATOM      2  C   UNL d   1     -38.846  14.509  17.151  0.00  0.00     0.023 A 
ATOM      3  C   UNL d   1     -38.980  14.129  17.867  0.00  0.00     0.059 A 
ATOM      4  C   UNL d   1     -38.315  13.290  16.607  0.00  0.00     0.006 A 
ATOM      5  C   UNL d   1     -38.450  12.916  17.323  0.00  0.00     0.002 A 
ATOM      6  C   UNL d   1     -38.782  13.333  17.954  0.00  0.00     0.017 A 
ENDROOT
BRANCH   3   7
ATOM      7  N   UNL d   1     -39.311  14.540  18.499  0.00  0.00    -0.321 N 
ATOM      8  C   UNL d   1     -40.090  14.422  18.705  0.00  0.00     0.258 C 
ATOM      9  O   UNL d   1     -40.537  13.888  18.275  0.00  0.00    -0.267 OA
ATOM     10  H   UNL d   1     -38.855  15.072  18.923  0.00  0.00     0.169 HD
BRANCH   8  11
ATOM     11  C   UNL d   1     -40.411  14.831  19.330  0.00  0.00     0.067 C 
BRANCH  11  12
ATOM     12  C   UNL d   1     -40.770  14.422  19.940  0.00  0.00     0.072 C 
BRANCH  12  13
ATOM     13  C   UNL d   1     -40.914  14.792  20.663  0.00  0.00     0.178 C 
ATOM     14  O   UNL d   1     -40.611  14.463  21.354  0.00  0.00    -0.646 OA
BRANCH  13  15
ATOM     15  O   UNL d   1     -41.357  15.488  20.698  0.00  0.00    -0.773 OA
ATOM     16  H   UNL d   1     -41.445  15.946  20.014  0.00  0.00     0.167 HD
ENDBRANCH  13  15
ENDBRANCH  12  13
ENDBRANCH  11  12
ENDBRANCH   8  11
ENDBRANCH   3   7
BRANCH   1  17
ATOM     17  C   UNL d   1     -38.379  14.471  15.803  0.00  0.00     0.178 C 
ATOM     18  O   UNL d   1     -37.940  15.169  15.776  0.00  0.00    -0.646 OA
BRANCH  17  19
ATOM     19  O   UNL d   1     -38.689  14.154  15.107  0.00  0.00    -0.773 OA
ATOM     20  H   UNL d   1     -39.484  14.267  14.916  0.00  0.00     0.167 HD
ENDBRANCH  17  19
ENDBRANCH   1  17
TORSDOF 7
ENDMDL
