MODEL 1
REMARK VINA RESULT:      -2.7      0.000      0.000
REMARK  6 active torsions:
REMARK  status: ('A' for Active; 'I' for Inactive)
REMARK    1  A    between atoms: C_9  and  N_2 
REMARK    2  A    between atoms: O_11  and  C_7 
REMARK    3  A    between atoms: C_8  and  O_10 
REMARK    4  A    between atoms: C_12  and  C_9 
REMARK    5  A    between atoms: O_10  and  C_15 
REMARK    6  A    between atoms: C_15  and  C_12 
ROOT
ATOM      1  C   UNL d   1      33.150  19.501 -22.473  0.00  0.00     0.087 C 
ENDROOT
BRANCH   1   2
ATOM      2  N   UNL d   1      33.181  20.325 -22.456  0.00  0.00    -0.251 N 
ATOM      3  C   UNL d   1      33.222  20.861 -23.091  0.00  0.00     0.378 A 
ATOM      4  O   UNL d   1      33.241  21.630 -22.779  0.00  0.00    -0.258 OA
ATOM      5  O   UNL d   1      33.241  20.654 -23.886  0.00  0.00    -0.237 OA
ATOM      6  C   UNL d   1      33.211  21.572 -21.958  0.00  0.00     0.121 A 
ATOM      7  C   UNL d   1      33.213  22.143 -21.353  0.00  0.00     0.026 A 
ATOM      8  C   UNL d   1      33.174  20.767 -21.756  0.00  0.00     0.092 A 
ATOM      9  C   UNL d   1      33.178  21.913 -20.567  0.00  0.00     0.002 A 
ATOM     10  C   UNL d   1      33.141  21.115 -20.371  0.00  0.00     0.002 A 
ATOM     11  C   UNL d   1      33.139  20.539 -20.961  0.00  0.00     0.020 A 
ENDBRANCH   1   2
BRANCH   1  12
ATOM     12  C   UNL d   1      32.758  19.120 -23.080  0.00  0.00     0.046 C 
BRANCH  12  13
ATOM     13  C   UNL d   1      32.746  18.296 -23.108  0.00  0.00     0.124 C 
BRANCH  13  14
ATOM     14  O   UNL d   1      32.098  17.903 -23.436  0.00  0.00    -0.303 OA
BRANCH  14  15
ATOM     15  C   UNL d   1      32.132  17.090 -23.568  0.00  0.00     0.122 A 
ATOM     16  C   UNL d   1      31.561  16.725 -24.040  0.00  0.00     0.117 A 
ATOM     17  C   UNL d   1      31.591  15.913 -24.174  0.00  0.00     0.026 A 
ATOM     18  C   UNL d   1      32.199  15.462 -23.832  0.00  0.00     0.002 A 
ATOM     19  C   UNL d   1      32.768  15.822 -23.362  0.00  0.00     0.002 A 
ATOM     20  C   UNL d   1      32.735  16.635 -23.230  0.00  0.00     0.027 A 
BRANCH  16  21
ATOM     21  O   UNL d   1      30.957  17.178 -24.379  0.00  0.00    -0.326 OA
ATOM     22  C   UNL d   1      30.408  16.817 -24.881  0.00  0.00     0.181 C 
ENDBRANCH  16  21
ENDBRANCH  14  15
ENDBRANCH  13  14
ENDBRANCH  12  13
ENDBRANCH   1  12
TORSDOF 6
ENDMDL
MODEL 2
REMARK VINA RESULT:      -2.6      1.285      4.995
REMARK  6 active torsions:
REMARK  status: ('A' for Active; 'I' for Inactive)
REMARK    1  A    between atoms: C_9  and  N_2 
REMARK    2  A    between atoms: O_11  and  C_7 
REMARK    3  A    between atoms: C_8  and  O_10 
REMARK    4  A    between atoms: C_12  and  C_9 
REMARK    5  A    between atoms: O_10  and  C_15 
REMARK    6  A    between atoms: C_15  and  C_12 
ROOT
ATOM      1  C   UNL d   1      32.615  18.845 -23.279  0.00  0.00     0.087 C 
ENDROOT
BRANCH   1   2
ATOM      2  N   UNL d   1      32.826  18.358 -23.910  0.00  0.00    -0.251 N 
ATOM      3  C   UNL d   1      33.112  18.570 -24.663  0.00  0.00     0.378 A 
ATOM      4  O   UNL d   1      33.241  17.873 -25.095  0.00  0.00    -0.258 OA
ATOM      5  O   UNL d   1      33.240  19.339 -24.922  0.00  0.00    -0.237 OA
ATOM      6  C   UNL d   1      33.037  17.235 -24.615  0.00  0.00     0.121 A 
ATOM      7  C   UNL d   1      33.047  16.413 -24.739  0.00  0.00     0.026 A 
ATOM      8  C   UNL d   1      32.780  17.532 -23.883  0.00  0.00     0.092 A 
ATOM      9  C   UNL d   1      32.806  15.901 -24.145  0.00  0.00     0.002 A 
ATOM     10  C   UNL d   1      32.553  16.200 -23.421  0.00  0.00     0.002 A 
ATOM     11  C   UNL d   1      32.538  17.013 -23.285  0.00  0.00     0.020 A 
ENDBRANCH   1   2
BRANCH   1  12
ATOM     12  C   UNL d   1      33.151  19.386 -22.984  0.00  0.00     0.046 C 
BRANCH  12  13
ATOM     13  C   UNL d   1      32.937  19.880 -22.360  0.00  0.00     0.124 C 
BRANCH  13  14
ATOM     14  O   UNL d   1      33.171  20.672 -22.359  0.00  0.00    -0.303 OA
BRANCH  14  15
ATOM     15  C   UNL d   1      32.867  21.193 -21.796  0.00  0.00     0.122 A 
ATOM     16  C   UNL d   1      32.874  22.005 -21.940  0.00  0.00     0.117 A 
ATOM     17  C   UNL d   1      32.572  22.529 -21.381  0.00  0.00     0.026 A 
ATOM     18  C   UNL d   1      32.258  22.234 -20.670  0.00  0.00     0.002 A 
ATOM     19  C   UNL d   1      32.249  21.426 -20.524  0.00  0.00     0.002 A 
ATOM     20  C   UNL d   1      32.553  20.905 -21.087  0.00  0.00     0.027 A 
BRANCH  16  21
ATOM     21  O   UNL d   1      33.188  22.294 -22.649  0.00  0.00    -0.326 OA
ATOM     22  C   UNL d   1      33.239  23.111 -22.771  0.00  0.00     0.181 C 
ENDBRANCH  16  21
ENDBRANCH  14  15
ENDBRANCH  13  14
ENDBRANCH  12  13
ENDBRANCH   1  12
TORSDOF 6
ENDMDL
MODEL 3
REMARK VINA RESULT:      -2.3      1.780      2.660
REMARK  6 active torsions:
REMARK  status: ('A' for Active; 'I' for Inactive)
REMARK    1  A    between atoms: C_9  and  N_2 
REMARK    2  A    between atoms: O_11  and  C_7 
REMARK    3  A    between atoms: C_8  and  O_10 
REMARK    4  A    between atoms: C_12  and  C_9 
REMARK    5  A    between atoms: O_10  and  C_15 
REMARK    6  A    between atoms: C_15  and  C_12 
ROOT
ATOM      1  C   UNL d   1      32.488  21.283 -21.013  0.00  0.00     0.087 C 
ENDROOT
BRANCH   1   2
ATOM      2  N   UNL d   1      32.442  22.072 -20.776  0.00  0.00    -0.251 N 
ATOM      3  C   UNL d   1      32.150  22.729 -21.195  0.00  0.00     0.378 A 
ATOM      4  O   UNL d   1      32.228  23.399 -20.711  0.00  0.00    -0.258 OA
ATOM      5  O   UNL d   1      31.840  22.707 -21.956  0.00  0.00    -0.237 OA
ATOM      6  C   UNL d   1      32.565  23.160 -19.998  0.00  0.00     0.121 A 
ATOM      7  C   UNL d   1      32.775  23.575 -19.308  0.00  0.00     0.026 A 
ATOM      8  C   UNL d   1      32.699  22.341 -20.036  0.00  0.00     0.092 A 
ATOM      9  C   UNL d   1      33.109  23.179 -18.673  0.00  0.00     0.002 A 
ATOM     10  C   UNL d   1      33.240  22.367 -18.715  0.00  0.00     0.002 A 
ATOM     11  C   UNL d   1      33.036  21.945 -19.393  0.00  0.00     0.020 A 
ENDBRANCH   1   2
BRANCH   1  12
ATOM     12  C   UNL d   1      32.841  21.091 -21.724  0.00  0.00     0.046 C 
BRANCH  12  13
ATOM     13  C   UNL d   1      32.973  20.300 -21.917  0.00  0.00     0.124 C 
BRANCH  13  14
ATOM     14  O   UNL d   1      33.240  20.098 -22.672  0.00  0.00    -0.303 OA
BRANCH  14  15
ATOM     15  C   UNL d   1      33.239  19.310 -22.913  0.00  0.00     0.122 A 
ATOM     16  C   UNL d   1      33.239  19.124 -23.717  0.00  0.00     0.117 A 
ATOM     17  C   UNL d   1      33.239  18.338 -23.963  0.00  0.00     0.026 A 
ATOM     18  C   UNL d   1      33.237  17.731 -23.396  0.00  0.00     0.002 A 
ATOM     19  C   UNL d   1      33.237  17.912 -22.594  0.00  0.00     0.002 A 
ATOM     20  C   UNL d   1      33.237  18.701 -22.353  0.00  0.00     0.027 A 
BRANCH  16  21
ATOM     21  O   UNL d   1      33.241  19.733 -24.279  0.00  0.00    -0.326 OA
ATOM     22  C   UNL d   1      32.697  19.715 -24.902  0.00  0.00     0.181 C 
ENDBRANCH  16  21
ENDBRANCH  14  15
ENDBRANCH  13  14
ENDBRANCH  12  13
ENDBRANCH   1  12
TORSDOF 6
ENDMDL
MODEL 4
REMARK VINA RESULT:      -1.9      1.665      5.176
REMARK  6 active torsions:
REMARK  status: ('A' for Active; 'I' for Inactive)
REMARK    1  A    between atoms: C_9  and  N_2 
REMARK    2  A    between atoms: O_11  and  C_7 
REMARK    3  A    between atoms: C_8  and  O_10 
REMARK    4  A    between atoms: C_12  and  C_9 
REMARK    5  A    between atoms: O_10  and  C_15 
REMARK    6  A    between atoms: C_15  and  C_12 
ROOT
ATOM      1  C   UNL d   1      31.315  17.319 -24.484  0.00  0.00     0.087 C 
ENDROOT
BRANCH   1   2
ATOM      2  N   UNL d   1      30.788  16.727 -24.257  0.00  0.00    -0.251 N 
ATOM      3  C   UNL d   1      30.945  15.936 -24.050  0.00  0.00     0.378 A 
ATOM      4  O   UNL d   1      30.223  15.569 -23.866  0.00  0.00    -0.258 OA
ATOM      5  O   UNL d   1      31.690  15.590 -24.034  0.00  0.00    -0.237 OA
ATOM      6  C   UNL d   1      29.624  16.127 -23.959  0.00  0.00     0.121 A 
ATOM      7  C   UNL d   1      28.800  16.088 -23.857  0.00  0.00     0.026 A 
ATOM      8  C   UNL d   1      29.970  16.843 -24.200  0.00  0.00     0.092 A 
ATOM      9  C   UNL d   1      28.334  16.749 -23.993  0.00  0.00     0.002 A 
ATOM     10  C   UNL d   1      28.681  17.456 -24.232  0.00  0.00     0.002 A 
ATOM     11  C   UNL d   1      29.497  17.507 -24.337  0.00  0.00     0.020 A 
ENDBRANCH   1   2
BRANCH   1  12
ATOM     12  C   UNL d   1      31.859  17.608 -23.947  0.00  0.00     0.046 C 
BRANCH  12  13
ATOM     13  C   UNL d   1      32.294  18.285 -24.126  0.00  0.00     0.124 C 
BRANCH  13  14
ATOM     14  O   UNL d   1      32.693  18.690 -23.527  0.00  0.00    -0.303 OA
BRANCH  14  15
ATOM     15  C   UNL d   1      32.876  19.489 -23.619  0.00  0.00     0.122 A 
ATOM     16  C   UNL d   1      33.052  19.950 -22.958  0.00  0.00     0.117 A 
ATOM     17  C   UNL d   1      33.235  20.749 -23.045  0.00  0.00     0.026 A 
ATOM     18  C   UNL d   1      33.241  21.088 -23.803  0.00  0.00     0.002 A 
ATOM     19  C   UNL d   1      33.066  20.632 -24.464  0.00  0.00     0.002 A 
ATOM     20  C   UNL d   1      32.883  19.833 -24.372  0.00  0.00     0.027 A 
BRANCH  16  21
ATOM     21  O   UNL d   1      33.045  19.608 -22.205  0.00  0.00    -0.326 OA
ATOM     22  C   UNL d   1      32.904  20.082 -21.542  0.00  0.00     0.181 C 
ENDBRANCH  16  21
ENDBRANCH  14  15
ENDBRANCH  13  14
ENDBRANCH  12  13
ENDBRANCH   1  12
TORSDOF 6
ENDMDL
MODEL 5
REMARK VINA RESULT:      -1.1      1.367      5.078
REMARK  6 active torsions:
REMARK  status: ('A' for Active; 'I' for Inactive)
REMARK    1  A    between atoms: C_9  and  N_2 
REMARK    2  A    between atoms: O_11  and  C_7 
REMARK    3  A    between atoms: C_8  and  O_10 
REMARK    4  A    between atoms: C_12  and  C_9 
REMARK    5  A    between atoms: O_10  and  C_15 
REMARK    6  A    between atoms: C_15  and  C_12 
ROOT
ATOM      1  C   UNL d   1      32.874  19.606 -23.203  0.00  0.00     0.087 C 
ENDROOT
BRANCH   1   2
ATOM      2  N   UNL d   1      32.980  19.062 -23.813  0.00  0.00    -0.251 N 
ATOM      3  C   UNL d   1      33.050  19.199 -24.631  0.00  0.00     0.378 A 
ATOM      4  O   UNL d   1      33.148  18.466 -25.008  0.00  0.00    -0.258 OA
ATOM      5  O   UNL d   1      33.026  19.937 -24.992  0.00  0.00    -0.237 OA
ATOM      6  C   UNL d   1      33.138  17.880 -24.429  0.00  0.00     0.121 A 
ATOM      7  C   UNL d   1      33.210  17.052 -24.467  0.00  0.00     0.026 A 
ATOM      8  C   UNL d   1      33.034  18.246 -23.691  0.00  0.00     0.092 A 
ATOM      9  C   UNL d   1      33.178  16.602 -23.782  0.00  0.00     0.002 A 
ATOM     10  C   UNL d   1      33.075  16.969 -23.052  0.00  0.00     0.002 A 
ATOM     11  C   UNL d   1      33.003  17.789 -23.002  0.00  0.00     0.020 A 
ENDBRANCH   1   2
BRANCH   1  12
ATOM     12  C   UNL d   1      33.241  20.336 -23.238  0.00  0.00     0.046 C 
BRANCH  12  13
ATOM     13  C   UNL d   1      32.918  20.979 -22.835  0.00  0.00     0.124 C 
BRANCH  13  14
ATOM     14  O   UNL d   1      33.197  21.178 -22.084  0.00  0.00    -0.303 OA
BRANCH  14  15
ATOM     15  C   UNL d   1      32.932  21.866 -21.715  0.00  0.00     0.122 A 
ATOM     16  C   UNL d   1      32.871  21.895 -20.892  0.00  0.00     0.117 A 
ATOM     17  C   UNL d   1      32.607  22.580 -20.519  0.00  0.00     0.026 A 
ATOM     18  C   UNL d   1      32.402  23.243 -20.975  0.00  0.00     0.002 A 
ATOM     19  C   UNL d   1      32.462  23.218 -21.794  0.00  0.00     0.002 A 
ATOM     20  C   UNL d   1      32.726  22.530 -22.164  0.00  0.00     0.027 A 
BRANCH  16  21
ATOM     21  O   UNL d   1      33.076  21.232 -20.442  0.00  0.00    -0.326 OA
ATOM     22  C   UNL d   1      33.241  21.320 -19.636  0.00  0.00     0.181 C 
ENDBRANCH  16  21
ENDBRANCH  14  15
ENDBRANCH  13  14
ENDBRANCH  12  13
ENDBRANCH   1  12
TORSDOF 6
ENDMDL
MODEL 6
REMARK VINA RESULT:      -0.8      1.791      2.906
REMARK  6 active torsions:
REMARK  status: ('A' for Active; 'I' for Inactive)
REMARK    1  A    between atoms: C_9  and  N_2 
REMARK    2  A    between atoms: O_11  and  C_7 
REMARK    3  A    between atoms: C_8  and  O_10 
REMARK    4  A    between atoms: C_12  and  C_9 
REMARK    5  A    between atoms: O_10  and  C_15 
REMARK    6  A    between atoms: C_15  and  C_12 
ROOT
ATOM      1  C   UNL d   1      32.736  17.870 -24.097  0.00  0.00     0.087 C 
ENDROOT
BRANCH   1   2
ATOM      2  N   UNL d   1      32.906  18.566 -23.688  0.00  0.00    -0.251 N 
ATOM      3  C   UNL d   1      33.040  18.677 -22.874  0.00  0.00     0.378 A 
ATOM      4  O   UNL d   1      33.187  19.483 -22.744  0.00  0.00    -0.258 OA
ATOM      5  O   UNL d   1      33.026  18.083 -22.306  0.00  0.00    -0.237 OA
ATOM      6  C   UNL d   1      33.145  19.869 -23.471  0.00  0.00     0.121 A 
ATOM      7  C   UNL d   1      33.241  20.666 -23.691  0.00  0.00     0.026 A 
ATOM      8  C   UNL d   1      32.971  19.305 -24.056  0.00  0.00     0.092 A 
ATOM      9  C   UNL d   1      33.165  20.891 -24.476  0.00  0.00     0.002 A 
ATOM     10  C   UNL d   1      32.993  20.328 -25.051  0.00  0.00     0.002 A 
ATOM     11  C   UNL d   1      32.895  19.536 -24.846  0.00  0.00     0.020 A 
ENDBRANCH   1   2
BRANCH   1  12
ATOM     12  C   UNL d   1      32.179  17.350 -23.803  0.00  0.00     0.046 C 
BRANCH  12  13
ATOM     13  C   UNL d   1      31.531  17.136 -24.266  0.00  0.00     0.124 C 
BRANCH  13  14
ATOM     14  O   UNL d   1      31.039  16.517 -24.029  0.00  0.00    -0.303 OA
BRANCH  14  15
ATOM     15  C   UNL d   1      30.248  16.505 -24.261  0.00  0.00     0.122 A 
ATOM     16  C   UNL d   1      29.719  15.988 -23.895  0.00  0.00     0.117 A 
ATOM     17  C   UNL d   1      28.928  15.972 -24.123  0.00  0.00     0.026 A 
ATOM     18  C   UNL d   1      28.665  16.481 -24.725  0.00  0.00     0.002 A 
ATOM     19  C   UNL d   1      29.189  16.997 -25.092  0.00  0.00     0.002 A 
ATOM     20  C   UNL d   1      29.980  17.009 -24.860  0.00  0.00     0.027 A 
BRANCH  16  21
ATOM     21  O   UNL d   1      29.986  15.483 -23.296  0.00  0.00    -0.326 OA
ATOM     22  C   UNL d   1      29.600  15.477 -22.564  0.00  0.00     0.181 C 
ENDBRANCH  16  21
ENDBRANCH  14  15
ENDBRANCH  13  14
ENDBRANCH  12  13
ENDBRANCH   1  12
TORSDOF 6
ENDMDL
