MODEL 1
REMARK VINA RESULT:      -8.5      0.000      0.000
REMARK  3 active torsions:
REMARK  status: ('A' for Active; 'I' for Inactive)
REMARK    1  A    between atoms: C_5  and  C_1 
REMARK    2  A    between atoms: C_7  and  C_5 
REMARK    3  A    between atoms: C_10  and  C_7 
ROOT
ATOM      1  C   UNL d   1     -47.249  13.356  23.164  0.00  0.00     0.220 A 
ATOM      2  C   UNL d   1     -46.569  13.716  22.948  0.00  0.00     0.315 A 
ATOM      3  N   UNL d   1     -45.956  13.174  22.968  0.00  0.00    -0.205 NA
ATOM      4  C   UNL d   1     -47.087  12.569  23.329  0.00  0.00     0.059 A 
ATOM      5  C   UNL d   1     -46.269  12.454  23.205  0.00  0.00     0.088 A 
ATOM      6  O   UNL d   1     -46.530  14.516  22.742  0.00  0.00    -0.262 OA
ATOM      7  O   UNL d   1     -47.838  12.843  23.402  0.00  0.00    -0.285 OA
ATOM      8  C   UNL d   1     -47.545  11.928  23.574  0.00  0.00     0.005 A 
ATOM      9  C   UNL d   1     -45.922  11.700  23.327  0.00  0.00     0.019 A 
ATOM     10  C   UNL d   1     -47.225  11.187  23.698  0.00  0.00     0.000 A 
ATOM     11  C   UNL d   1     -46.407  11.072  23.574  0.00  0.00     0.002 A 
ENDROOT
BRANCH   1  12
ATOM     12  C   UNL d   1     -47.937  13.799  23.183  0.00  0.00     0.086 C 
BRANCH  12  13
ATOM     13  C   UNL d   1     -48.344  14.006  22.489  0.00  0.00     0.199 C 
ATOM     14  O   UNL d   1     -48.016  13.813  21.759  0.00  0.00    -0.286 OA
BRANCH  13  15
ATOM     15  C   UNL d   1     -49.058  14.395  22.530  0.00  0.00     0.039 A 
ATOM     16  C   UNL d   1     -49.144  15.119  22.943  0.00  0.00     0.003 A 
ATOM     17  C   UNL d   1     -49.858  15.508  22.983  0.00  0.00     0.000 A 
ATOM     18  C   UNL d   1     -50.517  15.171  22.601  0.00  0.00     0.000 A 
ATOM     19  C   UNL d   1     -50.449  14.463  22.192  0.00  0.00     0.000 A 
ATOM     20  C   UNL d   1     -49.735  14.085  22.158  0.00  0.00     0.003 A 
ENDBRANCH  13  15
ENDBRANCH  12  13
ENDBRANCH   1  12
TORSDOF 3
ENDMDL
MODEL 2
REMARK VINA RESULT:      -8.2      1.524      2.315
REMARK  3 active torsions:
REMARK  status: ('A' for Active; 'I' for Inactive)
REMARK    1  A    between atoms: C_5  and  C_1 
REMARK    2  A    between atoms: C_7  and  C_5 
REMARK    3  A    between atoms: C_10  and  C_7 
ROOT
ATOM      1  C   UNL d   1     -47.316  12.546  23.298  0.00  0.00     0.220 A 
ATOM      2  C   UNL d   1     -46.861  11.901  23.424  0.00  0.00     0.315 A 
ATOM      3  N   UNL d   1     -46.083  12.077  23.241  0.00  0.00    -0.205 NA
ATOM      4  C   UNL d   1     -46.837  13.155  23.030  0.00  0.00     0.059 A 
ATOM      5  C   UNL d   1     -46.057  12.859  22.993  0.00  0.00     0.088 A 
ATOM      6  O   UNL d   1     -47.166  11.183  23.698  0.00  0.00    -0.262 OA
ATOM      7  O   UNL d   1     -47.624  13.280  23.120  0.00  0.00    -0.285 OA
ATOM      8  C   UNL d   1     -46.974  13.938  22.809  0.00  0.00     0.005 A 
ATOM      9  C   UNL d   1     -45.427  13.349  22.737  0.00  0.00     0.019 A 
ATOM     10  C   UNL d   1     -46.373  14.431  22.556  0.00  0.00     0.000 A 
ATOM     11  C   UNL d   1     -45.594  14.134  22.520  0.00  0.00     0.002 A 
ENDROOT
BRANCH   1  12
ATOM     12  C   UNL d   1     -48.119  12.493  23.447  0.00  0.00     0.086 C 
BRANCH  12  13
ATOM     13  C   UNL d   1     -48.629  12.064  22.952  0.00  0.00     0.199 C 
ATOM     14  O   UNL d   1     -48.313  11.503  22.438  0.00  0.00    -0.286 OA
BRANCH  13  15
ATOM     15  C   UNL d   1     -49.433  12.195  22.972  0.00  0.00     0.039 A 
ATOM     16  C   UNL d   1     -49.851  12.476  22.302  0.00  0.00     0.003 A 
ATOM     17  C   UNL d   1     -50.655  12.608  22.323  0.00  0.00     0.000 A 
ATOM     18  C   UNL d   1     -51.064  12.457  23.033  0.00  0.00     0.000 A 
ATOM     19  C   UNL d   1     -50.669  12.182  23.697  0.00  0.00     0.000 A 
ATOM     20  C   UNL d   1     -49.870  12.055  23.665  0.00  0.00     0.003 A 
ENDBRANCH  13  15
ENDBRANCH  12  13
ENDBRANCH   1  12
TORSDOF 3
ENDMDL
MODEL 3
REMARK VINA RESULT:      -8.0      1.378      3.964
REMARK  3 active torsions:
REMARK  status: ('A' for Active; 'I' for Inactive)
REMARK    1  A    between atoms: C_5  and  C_1 
REMARK    2  A    between atoms: C_7  and  C_5 
REMARK    3  A    between atoms: C_10  and  C_7 
ROOT
ATOM      1  C   UNL d   1     -49.203  14.240  22.364  0.00  0.00     0.220 A 
ATOM      2  C   UNL d   1     -49.652  13.875  21.812  0.00  0.00     0.315 A 
ATOM      3  N   UNL d   1     -50.418  14.159  21.852  0.00  0.00    -0.205 NA
ATOM      4  C   UNL d   1     -49.676  14.772  22.774  0.00  0.00     0.059 A 
ATOM      5  C   UNL d   1     -50.444  14.721  22.450  0.00  0.00     0.088 A 
ATOM      6  O   UNL d   1     -49.351  13.302  21.297  0.00  0.00    -0.262 OA
ATOM      7  O   UNL d   1     -48.900  14.699  22.967  0.00  0.00    -0.285 OA
ATOM      8  C   UNL d   1     -49.540  15.300  23.393  0.00  0.00     0.005 A 
ATOM      9  C   UNL d   1     -51.064  15.199  22.750  0.00  0.00     0.019 A 
ATOM     10  C   UNL d   1     -50.132  15.773  23.698  0.00  0.00     0.000 A 
ATOM     11  C   UNL d   1     -50.900  15.722  23.374  0.00  0.00     0.002 A 
ENDROOT
BRANCH   1  12
ATOM     12  C   UNL d   1     -48.413  14.038  22.422  0.00  0.00     0.086 C 
BRANCH  12  13
ATOM     13  C   UNL d   1     -48.166  13.338  22.795  0.00  0.00     0.199 C 
ATOM     14  O   UNL d   1     -48.731  12.835  23.120  0.00  0.00    -0.286 OA
BRANCH  13  15
ATOM     15  C   UNL d   1     -47.374  13.149  22.838  0.00  0.00     0.039 A 
ATOM     16  C   UNL d   1     -46.795  13.577  22.410  0.00  0.00     0.003 A 
ATOM     17  C   UNL d   1     -46.003  13.389  22.453  0.00  0.00     0.000 A 
ATOM     18  C   UNL d   1     -45.772  12.753  22.938  0.00  0.00     0.000 A 
ATOM     19  C   UNL d   1     -46.327  12.324  23.364  0.00  0.00     0.000 A 
ATOM     20  C   UNL d   1     -47.111  12.520  23.313  0.00  0.00     0.003 A 
ENDBRANCH  13  15
ENDBRANCH  12  13
ENDBRANCH   1  12
TORSDOF 3
ENDMDL
MODEL 4
REMARK VINA RESULT:      -6.5      8.195      9.799
REMARK  3 active torsions:
REMARK  status: ('A' for Active; 'I' for Inactive)
REMARK    1  A    between atoms: C_5  and  C_1 
REMARK    2  A    between atoms: C_7  and  C_5 
REMARK    3  A    between atoms: C_10  and  C_7 
ROOT
ATOM      1  C   UNL d   1     -40.118  15.218  18.897  0.00  0.00     0.220 A 
ATOM      2  C   UNL d   1     -40.733  15.594  18.551  0.00  0.00     0.315 A 
ATOM      3  N   UNL d   1     -41.211  15.922  19.128  0.00  0.00    -0.205 NA
ATOM      4  C   UNL d   1     -40.189  15.297  19.711  0.00  0.00     0.059 A 
ATOM      5  C   UNL d   1     -40.880  15.742  19.857  0.00  0.00     0.088 A 
ATOM      6  O   UNL d   1     -40.836  15.625  17.731  0.00  0.00    -0.262 OA
ATOM      7  O   UNL d   1     -39.568  14.890  19.404  0.00  0.00    -0.285 OA
ATOM      8  C   UNL d   1     -39.740  15.039  20.353  0.00  0.00     0.005 A 
ATOM      9  C   UNL d   1     -41.111  15.922  20.643  0.00  0.00     0.019 A 
ATOM     10  C   UNL d   1     -39.949  15.204  21.125  0.00  0.00     0.000 A 
ATOM     11  C   UNL d   1     -40.641  15.649  21.271  0.00  0.00     0.002 A 
ENDROOT
BRANCH   1  12
ATOM     12  C   UNL d   1     -39.567  14.848  18.419  0.00  0.00     0.086 C 
BRANCH  12  13
ATOM     13  C   UNL d   1     -39.739  14.141  18.017  0.00  0.00     0.199 C 
ATOM     14  O   UNL d   1     -40.493  13.816  18.081  0.00  0.00    -0.286 OA
BRANCH  13  15
ATOM     15  C   UNL d   1     -39.170  13.774  17.564  0.00  0.00     0.039 A 
ATOM     16  C   UNL d   1     -38.840  13.036  17.785  0.00  0.00     0.003 A 
ATOM     17  C   UNL d   1     -38.271  12.668  17.332  0.00  0.00     0.000 A 
ATOM     18  C   UNL d   1     -38.016  13.043  16.633  0.00  0.00     0.000 A 
ATOM     19  C   UNL d   1     -38.329  13.766  16.404  0.00  0.00     0.000 A 
ATOM     20  C   UNL d   1     -38.894  14.122  16.861  0.00  0.00     0.003 A 
ENDBRANCH  13  15
ENDBRANCH  12  13
ENDBRANCH   1  12
TORSDOF 3
ENDMDL
MODEL 5
REMARK VINA RESULT:      -6.5      8.449      9.681
REMARK  3 active torsions:
REMARK  status: ('A' for Active; 'I' for Inactive)
REMARK    1  A    between atoms: C_5  and  C_1 
REMARK    2  A    between atoms: C_7  and  C_5 
REMARK    3  A    between atoms: C_10  and  C_7 
ROOT
ATOM      1  C   UNL d   1     -39.652  14.861  17.571  0.00  0.00     0.220 A 
ATOM      2  C   UNL d   1     -40.071  15.176  16.968  0.00  0.00     0.315 A 
ATOM      3  N   UNL d   1     -39.764  14.915  16.256  0.00  0.00    -0.205 NA
ATOM      4  C   UNL d   1     -39.061  14.385  17.257  0.00  0.00     0.059 A 
ATOM      5  C   UNL d   1     -39.132  14.420  16.426  0.00  0.00     0.088 A 
ATOM      6  O   UNL d   1     -40.712  15.686  17.085  0.00  0.00    -0.262 OA
ATOM      7  O   UNL d   1     -39.130  14.460  18.054  0.00  0.00    -0.285 OA
ATOM      8  C   UNL d   1     -38.464  13.922  17.586  0.00  0.00     0.005 A 
ATOM      9  C   UNL d   1     -38.603  13.990  15.937  0.00  0.00     0.019 A 
ATOM     10  C   UNL d   1     -37.940  13.496  17.126  0.00  0.00     0.000 A 
ATOM     11  C   UNL d   1     -38.011  13.530  16.294  0.00  0.00     0.002 A 
ENDROOT
BRANCH   1  12
ATOM     12  C   UNL d   1     -39.867  15.050  18.337  0.00  0.00     0.086 C 
BRANCH  12  13
ATOM     13  C   UNL d   1     -40.526  14.704  18.706  0.00  0.00     0.199 C 
ATOM     14  O   UNL d   1     -40.983  14.163  18.287  0.00  0.00    -0.286 OA
BRANCH  13  15
ATOM     15  C   UNL d   1     -40.719  14.898  19.474  0.00  0.00     0.039 A 
ATOM     16  C   UNL d   1     -40.802  15.694  19.721  0.00  0.00     0.003 A 
ATOM     17  C   UNL d   1     -40.995  15.888  20.488  0.00  0.00     0.000 A 
ATOM     18  C   UNL d   1     -41.112  15.271  21.036  0.00  0.00     0.000 A 
ATOM     19  C   UNL d   1     -41.034  14.486  20.810  0.00  0.00     0.000 A 
ATOM     20  C   UNL d   1     -40.842  14.306  20.045  0.00  0.00     0.003 A 
ENDBRANCH  13  15
ENDBRANCH  12  13
ENDBRANCH   1  12
TORSDOF 3
ENDMDL
