MODEL 1
REMARK VINA RESULT:      49.2      0.000      0.000
REMARK  8 active torsions:
REMARK  status: ('A' for Active; 'I' for Inactive)
REMARK    1  A    between atoms: C_2  and  C_8 
REMARK    2  A    between atoms: O_17  and  C_2 
REMARK    3  A    between atoms: C_15  and  C_3 
REMARK    4  A    between atoms: C_20  and  C_4 
REMARK    5  A    between atoms: C_5  and  C_16 
REMARK       I    between atoms: N_9  and  C_5 
REMARK    6  A    between atoms: C_14  and  N_9 
REMARK    7  A    between atoms: C_16  and  C_15 
REMARK    8  A    between atoms: C_21  and  O_17 
ROOT
ATOM      1  C   UNL d   1      61.110  49.092  51.474  0.00  0.00     0.279 C 
ATOM      2  N   UNL d   1      60.571  49.705  51.511  0.00  0.00    -0.208 NA
ATOM      3  O   UNL d   1      61.855  49.170  51.833  0.00  0.00    -0.265 OA
ENDROOT
BRANCH   2   4
ATOM      4  C   UNL d   1      59.829  49.627  51.154  0.00  0.00     0.085 A 
ATOM      5  C   UNL d   1      59.777  49.532  50.338  0.00  0.00     0.019 A 
ATOM      6  C   UNL d   1      59.040  49.455  49.984  0.00  0.00     0.007 A 
ATOM      7  C   UNL d   1      58.357  49.473  50.447  0.00  0.00     0.064 A 
ATOM      8  C   UNL d   1      58.407  49.568  51.262  0.00  0.00     0.007 A 
ATOM      9  C   UNL d   1      59.158  49.646  51.616  0.00  0.00     0.019 A 
BRANCH   7  10
ATOM     10  C   UNL d   1      57.612  49.395  50.087  0.00  0.00     0.300 C 
ATOM     11  O   UNL d   1      57.546  49.004  49.366  0.00  0.00    -0.259 OA
BRANCH  10  12
ATOM     12  O   UNL d   1      56.948  49.706  50.450  0.00  0.00    -0.271 OA
BRANCH  12  13
ATOM     13  C   UNL d   1      56.289  49.228  50.587  0.00  0.00     0.126 C 
ATOM     14  C   UNL d   1      56.201  48.518  50.173  0.00  0.00     0.029 C 
ENDBRANCH  12  13
ENDBRANCH  10  12
ENDBRANCH   7  10
ENDBRANCH   2   4
BRANCH   1  15
ATOM     15  C   UNL d   1      60.915  48.394  51.079  0.00  0.00     0.065 C 
BRANCH  15  16
ATOM     16  C   UNL d   1      61.259  47.678  51.306  0.00  0.00     0.030 C 
BRANCH  16  17
ATOM     17  C   UNL d   1      61.258  47.038  50.791  0.00  0.00     0.100 A 
ATOM     18  O   UNL d   1      61.924  46.695  50.427  0.00  0.00    -0.307 OA
ATOM     19  C   UNL d   1      61.669  46.074  49.961  0.00  0.00     0.100 A 
ATOM     20  C   UNL d   1      60.848  46.021  50.025  0.00  0.00     0.027 A 
ATOM     21  C   UNL d   1      60.599  46.618  50.538  0.00  0.00     0.027 A 
BRANCH  19  22
ATOM     22  C   UNL d   1      62.152  45.588  49.507  0.00  0.00     0.025 C 
ATOM     23  C   UNL d   1      61.849  45.222  48.829  0.00  0.00     0.002 C 
ENDBRANCH  19  22
ENDBRANCH  16  17
ENDBRANCH  15  16
ENDBRANCH   1  15
TORSDOF 8
ENDMDL
