MODEL 1
REMARK VINA RESULT:      -8.3      0.000      0.000
REMARK  2 active torsions:
REMARK  status: ('A' for Active; 'I' for Inactive)
REMARK    1  A    between atoms: C_6  and  C_2 
REMARK    2  A    between atoms: C_7  and  C_3 
ROOT
ATOM      1  N   UNL d   1      53.046  32.746  54.060  0.00  0.00    -0.238 NA
ATOM      2  C   UNL d   1      53.483  33.426  53.986  0.00  0.00     0.112 A 
ATOM      3  C   UNL d   1      53.496  32.121  53.757  0.00  0.00     0.088 A 
ATOM      4  S   UNL d   1      54.208  33.242  53.640  0.00  0.00    -0.066 SA
ATOM      5  C   UNL d   1      54.213  32.424  53.498  0.00  0.00     0.056 A 
ENDROOT
BRANCH   3   6
ATOM      6  C   UNL d   1      53.337  31.322  53.689  0.00  0.00     0.020 A 
ATOM      7  C   UNL d   1      53.506  30.799  54.319  0.00  0.00     0.028 A 
ATOM      8  C   UNL d   1      53.337  29.972  54.237  0.00  0.00     0.123 A 
ATOM      9  O   UNL d   1      53.504  29.461  54.853  0.00  0.00    -0.301 OA
ATOM     10  C   UNL d   1      53.008  29.690  53.540  0.00  0.00     0.123 A 
ATOM     11  C   UNL d   1      53.345  28.663  54.786  0.00  0.00     0.149 A 
ATOM     12  C   UNL d   1      53.014  28.368  54.090  0.00  0.00     0.149 A 
ATOM     13  O   UNL d   1      52.845  28.879  53.465  0.00  0.00    -0.301 OA
ATOM     14  C   UNL d   1      52.845  30.224  52.923  0.00  0.00     0.027 A 
ATOM     15  C   UNL d   1      53.005  31.031  52.990  0.00  0.00     0.004 A 
ENDBRANCH   3   6
BRANCH   2  16
ATOM     16  C   UNL d   1      53.311  34.215  54.196  0.00  0.00     0.043 A 
ATOM     17  C   UNL d   1      53.501  34.499  54.945  0.00  0.00     0.101 A 
ATOM     18  N   UNL d   1      53.323  35.293  55.144  0.00  0.00    -0.242 NA
ATOM     19  C   UNL d   1      52.954  35.795  54.585  0.00  0.00     0.099 A 
ATOM     20  C   UNL d   1      52.769  35.499  53.839  0.00  0.00     0.021 A 
ATOM     21  C   UNL d   1      52.943  34.718  53.640  0.00  0.00     0.005 A 
ENDBRANCH   2  16
TORSDOF 2
ENDMDL
MODEL 2
REMARK VINA RESULT:      -8.0      2.455      2.938
REMARK  2 active torsions:
REMARK  status: ('A' for Active; 'I' for Inactive)
REMARK    1  A    between atoms: C_6  and  C_2 
REMARK    2  A    between atoms: C_7  and  C_3 
ROOT
ATOM      1  N   UNL d   1      51.112  33.353  52.995  0.00  0.00    -0.238 NA
ATOM      2  C   UNL d   1      50.919  34.093  52.721  0.00  0.00     0.112 A 
ATOM      3  C   UNL d   1      51.936  33.281  52.972  0.00  0.00     0.088 A 
ATOM      4  S   UNL d   1      51.610  34.494  52.524  0.00  0.00    -0.066 SA
ATOM      5  C   UNL d   1      52.246  33.984  52.681  0.00  0.00     0.056 A 
ENDROOT
BRANCH   3   6
ATOM      6  C   UNL d   1      52.432  32.666  53.179  0.00  0.00     0.020 A 
ATOM      7  C   UNL d   1      52.251  31.880  52.959  0.00  0.00     0.028 A 
ATOM      8  C   UNL d   1      52.774  31.249  53.179  0.00  0.00     0.123 A 
ATOM      9  O   UNL d   1      52.596  30.481  52.964  0.00  0.00    -0.301 OA
ATOM     10  C   UNL d   1      53.454  31.414  53.607  0.00  0.00     0.123 A 
ATOM     11  C   UNL d   1      53.091  29.866  53.170  0.00  0.00     0.149 A 
ATOM     12  C   UNL d   1      53.778  30.020  53.600  0.00  0.00     0.149 A 
ATOM     13  O   UNL d   1      53.962  30.793  53.821  0.00  0.00    -0.301 OA
ATOM     14  C   UNL d   1      53.620  32.202  53.819  0.00  0.00     0.027 A 
ATOM     15  C   UNL d   1      53.119  32.824  53.610  0.00  0.00     0.004 A 
ENDBRANCH   3   6
BRANCH   2  16
ATOM     16  C   UNL d   1      50.179  34.466  52.623  0.00  0.00     0.043 A 
ATOM     17  C   UNL d   1      49.844  34.899  53.238  0.00  0.00     0.101 A 
ATOM     18  N   UNL d   1      49.101  35.269  53.128  0.00  0.00    -0.242 NA
ATOM     19  C   UNL d   1      48.701  35.199  52.396  0.00  0.00     0.099 A 
ATOM     20  C   UNL d   1      49.045  34.763  51.789  0.00  0.00     0.021 A 
ATOM     21  C   UNL d   1      49.776  34.398  51.894  0.00  0.00     0.005 A 
ENDBRANCH   2  16
TORSDOF 2
ENDMDL
MODEL 3
REMARK VINA RESULT:      -7.8      3.351      4.769
REMARK  2 active torsions:
REMARK  status: ('A' for Active; 'I' for Inactive)
REMARK    1  A    between atoms: C_6  and  C_2 
REMARK    2  A    between atoms: C_7  and  C_3 
ROOT
ATOM      1  N   UNL d   1      52.203  34.016  53.413  0.00  0.00    -0.238 NA
ATOM      2  C   UNL d   1      52.707  33.404  53.594  0.00  0.00     0.112 A 
ATOM      3  C   UNL d   1      51.544  33.696  53.029  0.00  0.00     0.088 A 
ATOM      4  S   UNL d   1      52.376  32.698  53.329  0.00  0.00    -0.066 SA
ATOM      5  C   UNL d   1      51.648  32.883  52.976  0.00  0.00     0.056 A 
ENDROOT
BRANCH   3   6
ATOM      6  C   UNL d   1      50.871  34.046  52.726  0.00  0.00     0.020 A 
ATOM      7  C   UNL d   1      50.356  34.479  53.221  0.00  0.00     0.028 A 
ATOM      8  C   UNL d   1      49.660  34.838  52.895  0.00  0.00     0.123 A 
ATOM      9  O   UNL d   1      49.157  35.262  53.381  0.00  0.00    -0.301 OA
ATOM     10  C   UNL d   1      49.496  34.758  52.095  0.00  0.00     0.123 A 
ATOM     11  C   UNL d   1      48.484  35.612  53.078  0.00  0.00     0.149 A 
ATOM     12  C   UNL d   1      48.309  35.538  52.276  0.00  0.00     0.149 A 
ATOM     13  O   UNL d   1      48.813  35.112  51.781  0.00  0.00    -0.301 OA
ATOM     14  C   UNL d   1      50.019  34.323  51.615  0.00  0.00     0.027 A 
ATOM     15  C   UNL d   1      50.699  33.969  51.921  0.00  0.00     0.004 A 
ENDBRANCH   3   6
BRANCH   2  16
ATOM     16  C   UNL d   1      53.448  33.399  53.977  0.00  0.00     0.043 A 
ATOM     17  C   UNL d   1      54.091  33.013  53.638  0.00  0.00     0.101 A 
ATOM     18  N   UNL d   1      54.830  33.014  54.033  0.00  0.00    -0.242 NA
ATOM     19  C   UNL d   1      54.914  33.406  54.767  0.00  0.00     0.099 A 
ATOM     20  C   UNL d   1      54.264  33.789  55.096  0.00  0.00     0.021 A 
ATOM     21  C   UNL d   1      53.535  33.790  54.711  0.00  0.00     0.005 A 
ENDBRANCH   2  16
TORSDOF 2
ENDMDL
MODEL 4
REMARK VINA RESULT:      -7.8      3.091      4.322
REMARK  2 active torsions:
REMARK  status: ('A' for Active; 'I' for Inactive)
REMARK    1  A    between atoms: C_6  and  C_2 
REMARK    2  A    between atoms: C_7  and  C_3 
ROOT
ATOM      1  N   UNL d   1      50.857  34.650  53.176  0.00  0.00    -0.238 NA
ATOM      2  C   UNL d   1      50.434  34.530  52.493  0.00  0.00     0.112 A 
ATOM      3  C   UNL d   1      51.613  34.333  53.065  0.00  0.00     0.088 A 
ATOM      4  S   UNL d   1      50.912  34.140  51.947  0.00  0.00    -0.066 SA
ATOM      5  C   UNL d   1      51.650  34.017  52.307  0.00  0.00     0.056 A 
ENDROOT
BRANCH   3   6
ATOM      6  C   UNL d   1      52.263  34.296  53.559  0.00  0.00     0.020 A 
ATOM      7  C   UNL d   1      52.552  33.559  53.828  0.00  0.00     0.028 A 
ATOM      8  C   UNL d   1      53.227  33.533  54.340  0.00  0.00     0.123 A 
ATOM      9  O   UNL d   1      53.509  32.812  54.603  0.00  0.00    -0.301 OA
ATOM     10  C   UNL d   1      53.594  34.231  54.569  0.00  0.00     0.123 A 
ATOM     11  C   UNL d   1      54.158  32.775  55.097  0.00  0.00     0.149 A 
ATOM     12  C   UNL d   1      54.535  33.469  55.333  0.00  0.00     0.149 A 
ATOM     13  O   UNL d   1      54.254  34.200  55.071  0.00  0.00    -0.301 OA
ATOM     14  C   UNL d   1      53.293  34.956  54.292  0.00  0.00     0.027 A 
ATOM     15  C   UNL d   1      52.637  34.995  53.793  0.00  0.00     0.004 A 
ENDBRANCH   3   6
BRANCH   2  16
ATOM     16  C   UNL d   1      49.650  34.732  52.290  0.00  0.00     0.043 A 
ATOM     17  C   UNL d   1      49.333  34.501  51.566  0.00  0.00     0.101 A 
ATOM     18  N   UNL d   1      48.545  34.710  51.374  0.00  0.00    -0.242 NA
ATOM     19  C   UNL d   1      48.082  35.150  51.915  0.00  0.00     0.099 A 
ATOM     20  C   UNL d   1      48.410  35.374  52.636  0.00  0.00     0.021 A 
ATOM     21  C   UNL d   1      49.185  35.171  52.828  0.00  0.00     0.005 A 
ENDBRANCH   2  16
TORSDOF 2
ENDMDL
MODEL 5
REMARK VINA RESULT:      -7.6      2.088      4.851
REMARK  2 active torsions:
REMARK  status: ('A' for Active; 'I' for Inactive)
REMARK    1  A    between atoms: C_6  and  C_2 
REMARK    2  A    between atoms: C_7  and  C_3 
ROOT
ATOM      1  N   UNL d   1      53.287  31.572  54.267  0.00  0.00    -0.238 NA
ATOM      2  C   UNL d   1      53.508  30.946  53.799  0.00  0.00     0.112 A 
ATOM      3  C   UNL d   1      53.683  32.246  53.994  0.00  0.00     0.088 A 
ATOM      4  S   UNL d   1      54.042  31.212  53.231  0.00  0.00    -0.066 SA
ATOM      5  C   UNL d   1      54.151  32.026  53.355  0.00  0.00     0.056 A 
ENDROOT
BRANCH   3   6
ATOM      6  C   UNL d   1      53.673  33.022  54.249  0.00  0.00     0.020 A 
ATOM      7  C   UNL d   1      53.099  33.557  53.964  0.00  0.00     0.028 A 
ATOM      8  C   UNL d   1      53.099  34.360  54.236  0.00  0.00     0.123 A 
ATOM      9  O   UNL d   1      52.536  34.883  53.955  0.00  0.00    -0.301 OA
ATOM     10  C   UNL d   1      53.662  34.607  54.779  0.00  0.00     0.123 A 
ATOM     11  C   UNL d   1      52.526  35.658  54.211  0.00  0.00     0.149 A 
ATOM     12  C   UNL d   1      53.087  35.918  54.757  0.00  0.00     0.149 A 
ATOM     13  O   UNL d   1      53.657  35.394  55.043  0.00  0.00    -0.301 OA
ATOM     14  C   UNL d   1      54.227  34.061  55.054  0.00  0.00     0.027 A 
ATOM     15  C   UNL d   1      54.238  33.277  54.797  0.00  0.00     0.004 A 
ENDBRANCH   3   6
BRANCH   2  16
ATOM     16  C   UNL d   1      53.286  30.142  53.818  0.00  0.00     0.043 A 
ATOM     17  C   UNL d   1      52.786  29.833  53.242  0.00  0.00     0.101 A 
ATOM     18  N   UNL d   1      52.570  29.025  53.271  0.00  0.00    -0.242 NA
ATOM     19  C   UNL d   1      52.861  28.533  53.883  0.00  0.00     0.099 A 
ATOM     20  C   UNL d   1      53.361  28.853  54.453  0.00  0.00     0.021 A 
ATOM     21  C   UNL d   1      53.575  29.649  54.427  0.00  0.00     0.005 A 
ENDBRANCH   2  16
TORSDOF 2
ENDMDL
