MODEL 1
REMARK VINA RESULT:      18.7      0.000      0.000
REMARK  4 active torsions:
REMARK  status: ('A' for Active; 'I' for Inactive)
REMARK    1  A    between atoms: C_6  and  C_1 
REMARK    2  A    between atoms: O_15  and  C_6 
REMARK    3  A    between atoms: C_7  and  C_8 
REMARK    4  A    between atoms: C_16  and  O_15 
ROOT
ATOM      1  C   UNL d   1      59.969  49.701  50.918  0.00  0.00     0.145 A 
ATOM      2  N   UNL d   1      59.808  49.707  50.115  0.00  0.00    -0.240 NA
ATOM      3  C   UNL d   1      59.255  49.693  51.329  0.00  0.00     0.026 A 
ATOM      4  C   UNL d   1      58.644  49.693  50.775  0.00  0.00     0.019 A 
ATOM      5  C   UNL d   1      58.985  49.702  50.016  0.00  0.00     0.082 A 
ATOM      6  C   UNL d   1      57.337  49.688  50.181  0.00  0.00     0.065 A 
ATOM      7  C   UNL d   1      57.817  49.686  50.858  0.00  0.00     0.008 A 
ATOM      8  C   UNL d   1      58.508  49.704  49.347  0.00  0.00     0.019 A 
ATOM      9  C   UNL d   1      57.678  49.697  49.428  0.00  0.00     0.008 A 
ENDROOT
BRANCH   1  10
ATOM     10  C   UNL d   1      60.718  49.704  51.264  0.00  0.00     0.318 C 
ATOM     11  O   UNL d   1      61.394  49.707  50.796  0.00  0.00    -0.257 OA
BRANCH  10  12
ATOM     12  O   UNL d   1      60.789  49.702  52.091  0.00  0.00    -0.270 OA
BRANCH  12  13
ATOM     13  C   UNL d   1      61.446  49.356  52.442  0.00  0.00     0.126 C 
ATOM     14  C   UNL d   1      61.778  49.682  53.122  0.00  0.00     0.029 C 
ENDBRANCH  12  13
ENDBRANCH  10  12
ENDBRANCH   1  10
BRANCH   6  15
ATOM     15  C   UNL d   1      56.519  49.682  50.262  0.00  0.00     0.211 C 
ATOM     16  O   UNL d   1      56.039  49.704  49.591  0.00  0.00    -0.644 OA
ATOM     17  O   UNL d   1      56.176  49.653  51.012  0.00  0.00    -0.644 OA
ENDBRANCH   6  15
TORSDOF 4
ENDMDL
