MODEL 1
REMARK VINA RESULT:      -2.7      0.000      0.000
REMARK  4 active torsions:
REMARK  status: ('A' for Active; 'I' for Inactive)
REMARK    1  A    between atoms: N_2  and  S_1 
REMARK    2  A    between atoms: C_4  and  S_1 
REMARK       I    between atoms: C_3  and  N_7 
REMARK    3  A    between atoms: C_6  and  C_3 
REMARK    4  A    between atoms: N_7  and  C_12 
ROOT
ATOM      1  N   UNL d   1      59.974  -1.093  29.004  0.00  0.00    -0.230 N 
ATOM      2  C   UNL d   1      59.738  -0.591  29.615  0.00  0.00     0.076 A 
ATOM      3  C   UNL d   1      59.176  -0.836  30.164  0.00  0.00     0.037 A 
ATOM      4  C   UNL d   1      58.947  -0.319  30.776  0.00  0.00     0.086 A 
ATOM      5  C   UNL d   1      60.071   0.169  29.677  0.00  0.00     0.017 A 
ATOM      6  C   UNL d   1      59.841   0.682  30.286  0.00  0.00     0.003 A 
ATOM      7  C   UNL d   1      60.540  -0.841  28.455  0.00  0.00     0.092 A 
ATOM      8  C   UNL d   1      59.279   0.429  30.832  0.00  0.00     0.019 A 
ATOM      9  C   UNL d   1      60.872  -0.088  28.514  0.00  0.00     0.020 A 
ATOM     10  C   UNL d   1      60.639   0.416  29.122  0.00  0.00     0.003 A 
ENDROOT
BRANCH   4  11
ATOM     11  N   UNL d   1      58.382  -0.564  31.328  0.00  0.00    -0.208 NA
ATOM     12  C   UNL d   1      57.618  -0.263  31.297  0.00  0.00     0.282 C 
ATOM     13  O   UNL d   1      57.403   0.287  30.717  0.00  0.00    -0.265 OA
BRANCH  12  14
ATOM     14  C   UNL d   1      57.053  -0.497  31.835  0.00  0.00     0.096 A 
ATOM     15  C   UNL d   1      56.898  -0.021  32.504  0.00  0.00     0.065 A 
ATOM     16 CL   UNL d   1      57.319   0.680  32.610  0.00  0.00    -0.082 Cl
ATOM     17  C   UNL d   1      56.328  -0.253  33.050  0.00  0.00     0.012 A 
ATOM     18  C   UNL d   1      55.908  -0.960  32.936  0.00  0.00     0.003 A 
ATOM     19  C   UNL d   1      56.062  -1.430  32.275  0.00  0.00     0.030 A 
ATOM     20  C   UNL d   1      56.633  -1.194  31.731  0.00  0.00     0.146 A 
ATOM     21  F   UNL d   1      56.782  -1.664  31.078  0.00  0.00    -0.204 F 
ENDBRANCH  12  14
ENDBRANCH   4  11
BRANCH   1  22
ATOM     22  S   UNL d   1      59.636  -1.849  28.952  0.00  0.00     0.277 S 
ATOM     23  O   UNL d   1      59.004  -1.516  28.530  0.00  0.00    -0.199 OA
ATOM     24  O   UNL d   1      60.261  -2.170  29.367  0.00  0.00    -0.199 OA
BRANCH  22  25
ATOM     25  C   UNL d   1      59.290  -2.590  28.892  0.00  0.00     0.133 A 
ATOM     26  S   UNL d   1      59.610  -3.299  29.168  0.00  0.00    -0.074 SA
ATOM     27  C   UNL d   1      59.085  -3.903  28.995  0.00  0.00     0.036 A 
ATOM     28  C   UNL d   1      58.432  -3.577  28.610  0.00  0.00     0.008 A 
ATOM     29  C   UNL d   1      58.562  -2.760  28.548  0.00  0.00     0.020 A 
ENDBRANCH  22  25
ENDBRANCH   1  22
TORSDOF 4
ENDMDL
