MODEL 1
REMARK VINA RESULT:      18.5      0.000      0.000
REMARK  5 active torsions:
REMARK  status: ('A' for Active; 'I' for Inactive)
REMARK    1  A    between atoms: C_2  and  C_1 
REMARK    2  A    between atoms: C_3  and  C_1 
REMARK    3  A    between atoms: C_4  and  C_2 
REMARK    4  A    between atoms: C_6  and  C_3 
REMARK    5  A    between atoms: P_5  and  C_4 
ROOT
ATOM      1  C   UNL d   1     -47.669  31.249  34.977  0.00  0.00     0.389 C 
ATOM      2  F   UNL d   1     -47.304  31.745  35.518  0.00  0.00    -0.191 F 
ATOM      3  F   UNL d   1     -48.046  30.742  34.420  0.00  0.00    -0.191 F 
ENDROOT
BRANCH   1   4
ATOM      4  C   UNL d   1     -47.864  31.917  34.492  0.00  0.00     0.387 C 
ATOM      5  F   UNL d   1     -47.306  32.366  34.903  0.00  0.00    -0.190 F 
ATOM      6  F   UNL d   1     -48.433  31.451  34.077  0.00  0.00    -0.190 F 
BRANCH   4   7
ATOM      7  C   UNL d   1     -48.047  32.570  34.027  0.00  0.00     0.329 C 
ATOM      8  O   UNL d   1     -48.832  32.802  33.911  0.00  0.00    -0.275 OA
BRANCH   7   9
ATOM      9  P   UNL d   1     -47.435  33.015  33.661  0.00  0.00     0.339 P 
ATOM     10  O   UNL d   1     -46.950  32.353  33.646  0.00  0.00    -0.634 OA
ATOM     11  O   UNL d   1     -47.922  33.688  33.674  0.00  0.00    -0.634 OA
ATOM     12  O   UNL d   1     -46.851  33.461  33.306  0.00  0.00    -0.634 OA
ENDBRANCH   7   9
ENDBRANCH   4   7
ENDBRANCH   1   4
BRANCH   1  13
ATOM     13  C   UNL d   1     -47.485  30.595  35.440  0.00  0.00     0.393 C 
ATOM     14  F   UNL d   1     -47.738  30.095  34.834  0.00  0.00    -0.188 F 
ATOM     15  F   UNL d   1     -47.225  31.098  36.061  0.00  0.00    -0.188 F 
BRANCH  13  16
ATOM     16  C   UNL d   1     -47.301  29.936  35.901  0.00  0.00     0.322 C 
ATOM     17  F   UNL d   1     -47.047  29.239  35.537  0.00  0.00    -0.171 F 
ATOM     18  F   UNL d   1     -47.370  29.968  36.724  0.00  0.00    -0.171 F 
ENDBRANCH  13  16
ENDBRANCH   1  13
TORSDOF 5
ENDMDL
