MODEL 1
REMARK VINA RESULT:      -4.0      0.000      0.000
REMARK  2 active torsions:
REMARK  status: ('A' for Active; 'I' for Inactive)
REMARK    1  A    between atoms: C_2  and  P_1 
REMARK    2  A    between atoms: C_7  and  C_2 
ROOT
ATOM      1  C   UNL d   1     -41.558-122.720 -54.510  0.00  0.00     0.194 C 
ATOM      2  N   UNL d   1     -41.124-123.296 -54.924  0.00  0.00    -0.138 N 
ENDROOT
BRANCH   1   3
ATOM      3  P   UNL d   1     -41.499-122.699 -53.677  0.00  0.00     0.317 P 
ATOM      4  O   UNL d   1     -41.445-122.686 -52.865  0.00  0.00    -0.635 OA
ATOM      5  O   UNL d   1     -41.880-123.452 -53.653  0.00  0.00    -0.635 OA
ATOM      6  O   UNL d   1     -41.123-121.955 -53.704  0.00  0.00    -0.635 OA
ENDBRANCH   1   3
BRANCH   1   7
ATOM      7  C   UNL d   1     -42.036-122.181 -54.915  0.00  0.00     0.029 C 
ATOM      8  C   UNL d   1     -42.717-121.894 -54.566  0.00  0.00     0.002 C 
ATOM      9  C   UNL d   1     -41.817-121.937 -55.673  0.00  0.00     0.002 C 
ENDBRANCH   1   7
TORSDOF 2
ENDMDL
MODEL 2
REMARK VINA RESULT:      -3.0      3.094      3.528
REMARK  2 active torsions:
REMARK  status: ('A' for Active; 'I' for Inactive)
REMARK    1  A    between atoms: C_2  and  P_1 
REMARK    2  A    between atoms: C_7  and  C_2 
ROOT
ATOM      1  C   UNL d   1     -41.435-122.351 -51.103  0.00  0.00     0.194 C 
ATOM      2  N   UNL d   1     -41.157-121.570 -51.166  0.00  0.00    -0.138 N 
ENDROOT
BRANCH   1   3
ATOM      3  P   UNL d   1     -41.923-122.549 -50.456  0.00  0.00     0.317 P 
ATOM      4  O   UNL d   1     -42.405-122.740 -49.828  0.00  0.00    -0.635 OA
ATOM      5  O   UNL d   1     -42.584-122.258 -50.892  0.00  0.00    -0.635 OA
ATOM      6  O   UNL d   1     -41.268-122.837 -50.027  0.00  0.00    -0.635 OA
ENDBRANCH   1   3
BRANCH   1   7
ATOM      7  C   UNL d   1     -41.232-122.916 -51.670  0.00  0.00     0.029 C 
ATOM      8  C   UNL d   1     -41.123-123.696 -51.451  0.00  0.00     0.002 C 
ATOM      9  C   UNL d   1     -41.140-122.685 -52.458  0.00  0.00     0.002 C 
ENDBRANCH   1   7
TORSDOF 2
ENDMDL
MODEL 3
REMARK VINA RESULT:      -2.8      4.364      4.712
REMARK  2 active torsions:
REMARK  status: ('A' for Active; 'I' for Inactive)
REMARK    1  A    between atoms: C_2  and  P_1 
REMARK    2  A    between atoms: C_7  and  C_2 
ROOT
ATOM      1  C   UNL d   1     -41.993-123.076 -49.795  0.00  0.00     0.194 C 
ATOM      2  N   UNL d   1     -41.216-123.234 -49.543  0.00  0.00    -0.138 N 
ENDROOT
BRANCH   1   3
ATOM      3  P   UNL d   1     -42.108-122.764 -50.560  0.00  0.00     0.317 P 
ATOM      4  O   UNL d   1     -42.219-122.466 -51.310  0.00  0.00    -0.635 OA
ATOM      5  O   UNL d   1     -41.956-123.532 -50.874  0.00  0.00    -0.635 OA
ATOM      6  O   UNL d   1     -42.258-122.005 -50.247  0.00  0.00    -0.635 OA
ENDBRANCH   1   3
BRANCH   1   7
ATOM      7  C   UNL d   1     -42.635-123.227 -49.296  0.00  0.00     0.029 C 
ATOM      8  C   UNL d   1     -43.168-123.817 -49.482  0.00  0.00     0.002 C 
ATOM      9  C   UNL d   1     -42.730-122.775 -48.612  0.00  0.00     0.002 C 
ENDBRANCH   1   7
TORSDOF 2
ENDMDL
