MODEL 1
REMARK VINA RESULT:      57.0      0.000      0.000
REMARK  5 active torsions:
REMARK  status: ('A' for Active; 'I' for Inactive)
REMARK    1  A    between atoms: C_7  and  N_2 
REMARK    2  A    between atoms: C_6  and  C_8 
REMARK       I    between atoms: N_9  and  C_6 
REMARK    3  A    between atoms: C_8  and  C_7 
REMARK    4  A    between atoms: C_11  and  N_9 
REMARK    5  A    between atoms: C_13  and  C_11 
ROOT
ATOM      1  C   UNL d   1      59.478  48.989  50.742  0.00  0.00     0.080 C 
ENDROOT
BRANCH   1   2
ATOM      2  C   UNL d   1      60.245  48.908  50.450  0.00  0.00     0.266 C 
ATOM      3  N   UNL d   1      60.686  48.235  50.617  0.00  0.00    -0.270 N 
ATOM      4  C   UNL d   1      60.357  47.631  51.084  0.00  0.00     0.102 C 
ATOM      5  O   UNL d   1      60.573  49.507  49.985  0.00  0.00    -0.267 OA
BRANCH   3   6
ATOM      6  C   UNL d   1      61.448  48.156  50.326  0.00  0.00     0.083 C 
BRANCH   6   7
ATOM      7  C   UNL d   1      61.713  47.430  50.047  0.00  0.00     0.018 A 
ATOM      8  C   UNL d   1      62.225  47.387  49.397  0.00  0.00     0.002 A 
ATOM      9  C   UNL d   1      62.491  46.662  49.118  0.00  0.00     0.000 A 
ATOM     10  C   UNL d   1      62.250  45.969  49.482  0.00  0.00     0.000 A 
ATOM     11  C   UNL d   1      61.740  46.003  50.130  0.00  0.00     0.000 A 
ATOM     12  C   UNL d   1      61.471  46.740  50.413  0.00  0.00     0.002 A 
ENDBRANCH   6   7
ENDBRANCH   3   6
ENDBRANCH   1   2
BRANCH   1  13
ATOM     13  C   UNL d   1      59.046  49.672  50.594  0.00  0.00     0.090 C 
BRANCH  13  14
ATOM     14  N   UNL d   1      58.232  49.684  50.722  0.00  0.00    -0.251 N 
ATOM     15  C   UNL d   1      57.856  49.697  51.453  0.00  0.00     0.378 A 
ATOM     16  O   UNL d   1      57.058  49.706  51.253  0.00  0.00    -0.258 OA
ATOM     17  O   UNL d   1      58.230  49.699  52.189  0.00  0.00    -0.237 OA
ATOM     18  C   UNL d   1      56.916  49.700  50.507  0.00  0.00     0.121 A 
ATOM     19  C   UNL d   1      56.222  49.705  50.054  0.00  0.00     0.026 A 
ATOM     20  C   UNL d   1      57.652  49.686  50.134  0.00  0.00     0.092 A 
ATOM     21  C   UNL d   1      56.267  49.696  49.225  0.00  0.00     0.002 A 
ATOM     22  C   UNL d   1      57.009  49.682  48.862  0.00  0.00     0.002 A 
ATOM     23  C   UNL d   1      57.699  49.677  49.318  0.00  0.00     0.020 A 
ENDBRANCH  13  14
ENDBRANCH   1  13
TORSDOF 5
ENDMDL
