MODEL 1
REMARK VINA RESULT:      -9.4      0.000      0.000
REMARK  5 active torsions:
REMARK  status: ('A' for Active; 'I' for Inactive)
REMARK    1  A    between atoms: C_10  and  N_2 
REMARK    2  A    between atoms: C_11  and  N_4 
REMARK    3  A    between atoms: C_12  and  C_11 
REMARK       I    between atoms: N_16  and  C_12 
REMARK       I    between atoms: C_15  and  N_17 
REMARK    4  A    between atoms: C_22  and  N_16 
REMARK    5  A    between atoms: N_17  and  C_23 
ROOT
ATOM      1  C   UNL d   1      53.279  33.157  54.376  0.00  0.00     0.172 A 
ATOM      2  N   UNL d   1      52.930  32.054  53.522  0.00  0.00    -0.226 N 
ATOM      3  C   UNL d   1      52.599  32.605  52.975  0.00  0.00     0.342 A 
ATOM      4  N   UNL d   1      52.615  33.405  53.137  0.00  0.00    -0.252 N 
ATOM      5  C   UNL d   1      52.952  33.682  53.832  0.00  0.00     0.098 A 
ATOM      6  C   UNL d   1      53.266  32.340  54.217  0.00  0.00     0.292 A 
ATOM      7  O   UNL d   1      53.574  33.578  55.013  0.00  0.00    -0.301 OA
ATOM      8  C   UNL d   1      53.057  34.428  54.156  0.00  0.00     0.041 A 
ATOM      9  C   UNL d   1      53.437  34.349  54.875  0.00  0.00     0.102 A 
ATOM     10  O   UNL d   1      52.251  32.332  52.260  0.00  0.00    -0.245 OA
ATOM     11  O   UNL d   1      53.597  31.805  54.768  0.00  0.00    -0.264 OA
ATOM     12  C   UNL d   1      52.847  35.183  53.874  0.00  0.00     0.004 A 
ATOM     13  C   UNL d   1      53.615  35.022  55.327  0.00  0.00     0.025 A 
ATOM     14  C   UNL d   1      53.024  35.855  54.326  0.00  0.00     0.000 A 
ATOM     15  C   UNL d   1      53.405  35.760  55.043  0.00  0.00     0.002 A 
ENDROOT
BRANCH   4  16
ATOM     16  C   UNL d   1      52.285  33.956  52.590  0.00  0.00     0.147 C 
BRANCH  16  17
ATOM     17  C   UNL d   1      51.443  33.977  52.483  0.00  0.00     0.297 C 
ATOM     18  N   UNL d   1      51.122  34.468  51.924  0.00  0.00    -0.207 NA
ATOM     19  O   UNL d   1      50.967  33.495  52.954  0.00  0.00    -0.264 OA
BRANCH  18  20
ATOM     20  C   UNL d   1      50.316  34.487  51.823  0.00  0.00     0.085 A 
ATOM     21  C   UNL d   1      49.815  34.678  52.450  0.00  0.00     0.021 A 
ATOM     22  C   UNL d   1      49.003  34.696  52.345  0.00  0.00     0.021 A 
ATOM     23  C   UNL d   1      48.678  34.522  51.602  0.00  0.00     0.085 A 
ATOM     24  C   UNL d   1      49.177  34.329  50.963  0.00  0.00     0.021 A 
ATOM     25  C   UNL d   1      49.997  34.312  51.074  0.00  0.00     0.021 A 
BRANCH  23  26
ATOM     26  N   UNL d   1      47.859  34.539  51.491  0.00  0.00    -0.208 NA
ATOM     27  C   UNL d   1      47.457  35.269  51.496  0.00  0.00     0.279 C 
ATOM     28  O   UNL d   1      46.663  35.281  51.388  0.00  0.00    -0.265 OA
ATOM     29  C   UNL d   1      47.899  35.976  51.614  0.00  0.00     0.068 C 
ENDBRANCH  23  26
ENDBRANCH  18  20
ENDBRANCH  16  17
ENDBRANCH   4  16
BRANCH   2  30
ATOM     30  C   UNL d   1      52.920  31.235  53.370  0.00  0.00     0.071 A 
ATOM     31  C   UNL d   1      52.250  30.793  53.524  0.00  0.00     0.020 A 
ATOM     32  C   UNL d   1      52.233  29.991  53.378  0.00  0.00     0.031 A 
ATOM     33  C   UNL d   1      52.903  29.622  53.071  0.00  0.00     0.140 A 
ATOM     34  C   UNL d   1      53.574  30.047  52.915  0.00  0.00     0.031 A 
ATOM     35  F   UNL d   1      52.887  28.803  52.922  0.00  0.00    -0.204 F 
ATOM     36  C   UNL d   1      53.590  30.867  53.064  0.00  0.00     0.020 A 
ENDBRANCH   2  30
TORSDOF 5
ENDMDL
MODEL 2
REMARK VINA RESULT:      -7.4      1.920      5.060
REMARK  5 active torsions:
REMARK  status: ('A' for Active; 'I' for Inactive)
REMARK    1  A    between atoms: C_10  and  N_2 
REMARK    2  A    between atoms: C_11  and  N_4 
REMARK    3  A    between atoms: C_12  and  C_11 
REMARK       I    between atoms: N_16  and  C_12 
REMARK       I    between atoms: C_15  and  N_17 
REMARK    4  A    between atoms: C_22  and  N_16 
REMARK    5  A    between atoms: N_17  and  C_23 
ROOT
ATOM      1  C   UNL d   1      52.743  34.586  54.016  0.00  0.00     0.172 A 
ATOM      2  N   UNL d   1      51.784  34.150  53.037  0.00  0.00    -0.226 N 
ATOM      3  C   UNL d   1      52.303  33.515  52.837  0.00  0.00     0.342 A 
ATOM      4  N   UNL d   1      53.017  33.431  53.224  0.00  0.00    -0.252 N 
ATOM      5  C   UNL d   1      53.239  33.960  53.809  0.00  0.00     0.098 A 
ATOM      6  C   UNL d   1      52.014  34.677  53.626  0.00  0.00     0.292 A 
ATOM      7  O   UNL d   1      53.097  35.024  54.610  0.00  0.00    -0.301 OA
ATOM      8  C   UNL d   1      53.897  34.033  54.292  0.00  0.00     0.041 A 
ATOM      9  C   UNL d   1      53.797  34.685  54.774  0.00  0.00     0.102 A 
ATOM     10  O   UNL d   1      52.086  32.966  52.238  0.00  0.00    -0.245 OA
ATOM     11  O   UNL d   1      51.509  35.311  53.834  0.00  0.00    -0.264 OA
ATOM     12  C   UNL d   1      54.589  33.573  54.348  0.00  0.00     0.004 A 
ATOM     13  C   UNL d   1      54.385  34.891  55.323  0.00  0.00     0.025 A 
ATOM     14  C   UNL d   1      55.177  33.778  54.897  0.00  0.00     0.000 A 
ATOM     15  C   UNL d   1      55.061  34.434  55.372  0.00  0.00     0.002 A 
ENDROOT
BRANCH   4  16
ATOM     16  C   UNL d   1      53.536  32.796  53.023  0.00  0.00     0.147 C 
BRANCH  16  17
ATOM     17  C   UNL d   1      53.387  32.024  53.344  0.00  0.00     0.297 C 
ATOM     18  N   UNL d   1      53.726  31.374  52.998  0.00  0.00    -0.207 NA
ATOM     19  O   UNL d   1      52.898  31.952  54.004  0.00  0.00    -0.264 OA
BRANCH  18  20
ATOM     20  C   UNL d   1      53.583  30.636  53.306  0.00  0.00     0.085 A 
ATOM     21  C   UNL d   1      52.840  30.283  53.232  0.00  0.00     0.021 A 
ATOM     22  C   UNL d   1      52.699  29.539  53.543  0.00  0.00     0.021 A 
ATOM     23  C   UNL d   1      53.305  29.134  53.937  0.00  0.00     0.085 A 
ATOM     24  C   UNL d   1      54.058  29.483  54.017  0.00  0.00     0.021 A 
ATOM     25  C   UNL d   1      54.196  30.235  53.700  0.00  0.00     0.021 A 
BRANCH  23  26
ATOM     26  N   UNL d   1      53.167  28.383  54.254  0.00  0.00    -0.208 NA
ATOM     27  C   UNL d   1      53.200  28.269  55.078  0.00  0.00     0.279 C 
ATOM     28  O   UNL d   1      53.065  27.540  55.380  0.00  0.00    -0.265 OA
ATOM     29  C   UNL d   1      53.374  28.927  55.573  0.00  0.00     0.068 C 
ENDBRANCH  23  26
ENDBRANCH  18  20
ENDBRANCH  16  17
ENDBRANCH   4  16
BRANCH   2  30
ATOM     30  C   UNL d   1      51.053  34.249  52.652  0.00  0.00     0.071 A 
ATOM     31  C   UNL d   1      50.352  34.155  53.063  0.00  0.00     0.020 A 
ATOM     32  C   UNL d   1      49.632  34.250  52.692  0.00  0.00     0.031 A 
ATOM     33  C   UNL d   1      49.612  34.444  51.891  0.00  0.00     0.140 A 
ATOM     34  C   UNL d   1      50.298  34.539  51.472  0.00  0.00     0.031 A 
ATOM     35  F   UNL d   1      48.877  34.541  51.512  0.00  0.00    -0.204 F 
ATOM     36  C   UNL d   1      51.033  34.442  51.851  0.00  0.00     0.020 A 
ENDBRANCH   2  30
TORSDOF 5
ENDMDL
