MODEL 1
REMARK VINA RESULT:      -5.4      0.000      0.000
REMARK  4 active torsions:
REMARK  status: ('A' for Active; 'I' for Inactive)
REMARK    1  A    between atoms: C_4  and  S_1 
REMARK    2  A    between atoms: N_8  and  S_1 
REMARK    3  A    between atoms: C_5  and  C_11 
REMARK    4  A    between atoms: C_16  and  N_8 
ROOT
ATOM      1  C   UNL d   1      58.256  -0.726  29.833  0.00  0.00     0.021 A 
ATOM      2  C   UNL d   1      57.437  -0.069  30.815  0.00  0.00     0.094 A 
ATOM      3  C   UNL d   1      57.794  -0.753  30.530  0.00  0.00     0.021 A 
ATOM      4  C   UNL d   1      58.351  -0.015  29.434  0.00  0.00     0.002 A 
ATOM      5  C   UNL d   1      57.994   0.682  29.714  0.00  0.00     0.002 A 
ATOM      6  C   UNL d   1      57.532   0.655  30.412  0.00  0.00     0.020 A 
ENDROOT
BRANCH   2   7
ATOM      7  N   UNL d   1      56.987  -0.095  31.496  0.00  0.00    -0.158 NA
BRANCH   7   8
ATOM      8  S   UNL d   1      57.316   0.124  32.217  0.00  0.00     0.287 S 
ATOM      9  O   UNL d   1      58.047   0.203  31.863  0.00  0.00    -0.198 OA
ATOM     10  O   UNL d   1      57.660   0.347  32.938  0.00  0.00    -0.198 OA
BRANCH   8  11
ATOM     11  C   UNL d   1      56.582   0.048  32.582  0.00  0.00     0.133 A 
ATOM     12  C   UNL d   1      56.378  -0.664  32.943  0.00  0.00     0.155 A 
ATOM     13  C   UNL d   1      55.649  -0.747  33.309  0.00  0.00     0.060 A 
ATOM     14  F   UNL d   1      56.908  -1.296  32.938  0.00  0.00    -0.203 F 
ATOM     15  C   UNL d   1      55.112  -0.111  33.316  0.00  0.00     0.142 A 
ATOM     16  C   UNL d   1      55.319   0.601  32.953  0.00  0.00     0.030 A 
ATOM     17  F   UNL d   1      54.376  -0.193  33.684  0.00  0.00    -0.204 F 
ATOM     18  C   UNL d   1      56.046   0.681  32.590  0.00  0.00     0.018 A 
ENDBRANCH   8  11
ENDBRANCH   7   8
ENDBRANCH   2   7
BRANCH   1  19
ATOM     19  C   UNL d   1      58.613  -1.410  29.548  0.00  0.00     0.101 A 
ATOM     20  N   UNL d   1      58.220  -2.074  29.263  0.00  0.00    -0.221 NA
ATOM     21  C   UNL d   1      58.788  -2.635  29.033  0.00  0.00     0.179 A 
ATOM     22  S   UNL d   1      58.903  -3.378  28.721  0.00  0.00    -0.048 SA
ATOM     23  N   UNL d   1      59.539  -2.298  29.184  0.00  0.00    -0.282 N 
ATOM     24  C   UNL d   1      59.715  -3.520  28.671  0.00  0.00     0.057 A 
ATOM     25  C   UNL d   1      60.112  -2.852  28.957  0.00  0.00     0.089 A 
ATOM     26  C   UNL d   1      59.417  -1.543  29.502  0.00  0.00     0.101 A 
ENDBRANCH   1  19
TORSDOF 4
ENDMDL
MODEL 2
REMARK VINA RESULT:      -4.7      2.314      4.905
REMARK  4 active torsions:
REMARK  status: ('A' for Active; 'I' for Inactive)
REMARK    1  A    between atoms: C_4  and  S_1 
REMARK    2  A    between atoms: N_8  and  S_1 
REMARK    3  A    between atoms: C_5  and  C_11 
REMARK    4  A    between atoms: C_16  and  N_8 
ROOT
ATOM      1  C   UNL d   1      57.714  -0.087  30.634  0.00  0.00     0.021 A 
ATOM      2  C   UNL d   1      58.510  -0.714  29.614  0.00  0.00     0.094 A 
ATOM      3  C   UNL d   1      58.100  -0.763  30.326  0.00  0.00     0.021 A 
ATOM      4  C   UNL d   1      57.746   0.623  30.224  0.00  0.00     0.002 A 
ATOM      5  C   UNL d   1      58.158   0.682  29.504  0.00  0.00     0.002 A 
ATOM      6  C   UNL d   1      58.544   0.006  29.196  0.00  0.00     0.020 A 
ENDROOT
BRANCH   2   7
ATOM      7  N   UNL d   1      58.887  -1.374  29.313  0.00  0.00    -0.158 NA
BRANCH   7   8
ATOM      8  S   UNL d   1      59.617  -1.298  28.942  0.00  0.00     0.287 S 
ATOM      9  O   UNL d   1      59.560  -0.485  28.987  0.00  0.00    -0.198 OA
ATOM     10  O   UNL d   1      60.352  -1.208  28.569  0.00  0.00    -0.198 OA
BRANCH   8  11
ATOM     11  C   UNL d   1      59.684  -2.117  28.892  0.00  0.00     0.133 A 
ATOM     12  C   UNL d   1      60.331  -2.495  29.233  0.00  0.00     0.155 A 
ATOM     13  C   UNL d   1      60.404  -3.311  29.188  0.00  0.00     0.060 A 
ATOM     14  F   UNL d   1      60.910  -2.054  29.623  0.00  0.00    -0.203 F 
ATOM     15  C   UNL d   1      59.822  -3.759  28.796  0.00  0.00     0.142 A 
ATOM     16  C   UNL d   1      59.175  -3.377  28.455  0.00  0.00     0.030 A 
ATOM     17  F   UNL d   1      59.894  -4.581  28.749  0.00  0.00    -0.204 F 
ATOM     18  C   UNL d   1      59.105  -2.564  28.502  0.00  0.00     0.018 A 
ENDBRANCH   8  11
ENDBRANCH   7   8
ENDBRANCH   2   7
BRANCH   1  19
ATOM     19  C   UNL d   1      57.304  -0.136  31.345  0.00  0.00     0.101 A 
ATOM     20  N   UNL d   1      56.798  -0.744  31.567  0.00  0.00    -0.221 NA
ATOM     21  C   UNL d   1      56.502  -0.575  32.325  0.00  0.00     0.179 A 
ATOM     22  S   UNL d   1      56.017  -0.835  32.925  0.00  0.00    -0.048 SA
ATOM     23  N   UNL d   1      56.841   0.153  32.562  0.00  0.00    -0.282 N 
ATOM     24  C   UNL d   1      56.041  -0.284  33.540  0.00  0.00     0.057 A 
ATOM     25  C   UNL d   1      56.551   0.329  33.318  0.00  0.00     0.089 A 
ATOM     26  C   UNL d   1      57.334   0.413  31.949  0.00  0.00     0.101 A 
ENDBRANCH   1  19
TORSDOF 4
ENDMDL
