MODEL 1
REMARK VINA RESULT:      -3.5      0.000      0.000
REMARK  3 active torsions:
REMARK  status: ('A' for Active; 'I' for Inactive)
REMARK    1  A    between atoms: O_10  and  C_9 
REMARK    2  A    between atoms: C_13  and  O_10 
REMARK    3  A    between atoms: C_12  and  C_13 
ROOT
ATOM      1  C   UNL d   1      32.486  22.076 -21.090  0.00  0.00     0.066 A 
ATOM      2  O   UNL d   1      32.743  22.430 -19.825  0.00  0.00    -0.302 OA
ATOM      3  C   UNL d   1      32.169  22.829 -20.965  0.00  0.00     0.222 A 
ATOM      4  C   UNL d   1      32.839  21.834 -20.384  0.00  0.00     0.103 A 
ATOM      5  C   UNL d   1      32.503  21.580 -21.741  0.00  0.00     0.030 A 
ATOM      6  C   UNL d   1      32.328  23.046 -20.186  0.00  0.00     0.165 A 
ATOM      7  O   UNL d   1      31.764  23.280 -21.530  0.00  0.00    -0.284 OA
ATOM      8  C   UNL d   1      33.204  21.103 -20.336  0.00  0.00     0.027 A 
ATOM      9  C   UNL d   1      32.871  20.844 -21.691  0.00  0.00     0.100 A 
ATOM     10  C   UNL d   1      33.223  20.606 -20.984  0.00  0.00     0.027 A 
ENDROOT
BRANCH   9  11
ATOM     11  O   UNL d   1      32.887  20.343 -22.353  0.00  0.00    -0.305 OA
BRANCH  11  12
ATOM     12  C   UNL d   1      33.053  19.541 -22.262  0.00  0.00     0.122 C 
BRANCH  12  13
ATOM     13  C   UNL d   1      33.027  19.046 -22.926  0.00  0.00     0.025 A 
ATOM     14  C   UNL d   1      32.785  18.260 -22.834  0.00  0.00     0.004 A 
ATOM     15  C   UNL d   1      32.757  17.765 -23.490  0.00  0.00     0.030 A 
ATOM     16  C   UNL d   1      32.973  18.056 -24.240  0.00  0.00     0.140 A 
ATOM     17  C   UNL d   1      33.213  18.840 -24.325  0.00  0.00     0.030 A 
ATOM     18  F   UNL d   1      32.943  17.556 -24.894  0.00  0.00    -0.204 F 
ATOM     19  C   UNL d   1      33.240  19.334 -23.669  0.00  0.00     0.004 A 
ENDBRANCH  12  13
ENDBRANCH  11  12
ENDBRANCH   9  11
TORSDOF 3
ENDMDL
MODEL 2
REMARK VINA RESULT:      -3.2      2.247      4.831
REMARK  3 active torsions:
REMARK  status: ('A' for Active; 'I' for Inactive)
REMARK    1  A    between atoms: O_10  and  C_9 
REMARK    2  A    between atoms: C_13  and  O_10 
REMARK    3  A    between atoms: C_12  and  C_13 
ROOT
ATOM      1  C   UNL d   1      32.033  17.688 -24.076  0.00  0.00     0.066 A 
ATOM      2  O   UNL d   1      32.420  16.520 -24.603  0.00  0.00    -0.302 OA
ATOM      3  C   UNL d   1      31.508  17.495 -24.685  0.00  0.00     0.222 A 
ATOM      4  C   UNL d   1      32.593  17.084 -24.029  0.00  0.00     0.103 A 
ATOM      5  C   UNL d   1      32.079  18.323 -23.562  0.00  0.00     0.030 A 
ATOM      6  C   UNL d   1      31.748  16.775 -25.009  0.00  0.00     0.165 A 
ATOM      7  O   UNL d   1      30.858  17.950 -24.922  0.00  0.00    -0.284 OA
ATOM      8  C   UNL d   1      33.192  17.120 -23.471  0.00  0.00     0.027 A 
ATOM      9  C   UNL d   1      32.682  18.358 -23.000  0.00  0.00     0.100 A 
ATOM     10  C   UNL d   1      33.241  17.752 -22.956  0.00  0.00     0.027 A 
ENDROOT
BRANCH   9  11
ATOM     11  O   UNL d   1      32.727  19.003 -22.480  0.00  0.00    -0.305 OA
BRANCH  11  12
ATOM     12  C   UNL d   1      33.241  19.627 -22.636  0.00  0.00     0.122 C 
BRANCH  12  13
ATOM     13  C   UNL d   1      33.227  20.295 -22.144  0.00  0.00     0.025 A 
ATOM     14  C   UNL d   1      33.241  21.049 -22.486  0.00  0.00     0.004 A 
ATOM     15  C   UNL d   1      33.227  21.713 -22.002  0.00  0.00     0.030 A 
ATOM     16  C   UNL d   1      33.199  21.624 -21.175  0.00  0.00     0.140 A 
ATOM     17  C   UNL d   1      33.185  20.871 -20.841  0.00  0.00     0.030 A 
ATOM     18  F   UNL d   1      33.185  22.294 -20.695  0.00  0.00    -0.204 F 
ATOM     19  C   UNL d   1      33.199  20.207 -21.324  0.00  0.00     0.004 A 
ENDBRANCH  12  13
ENDBRANCH  11  12
ENDBRANCH   9  11
TORSDOF 3
ENDMDL
MODEL 3
REMARK VINA RESULT:      -2.6      3.080      5.433
REMARK  3 active torsions:
REMARK  status: ('A' for Active; 'I' for Inactive)
REMARK    1  A    between atoms: O_10  and  C_9 
REMARK    2  A    between atoms: C_13  and  O_10 
REMARK    3  A    between atoms: C_12  and  C_13 
ROOT
ATOM      1  C   UNL d   1      33.003  21.900 -21.452  0.00  0.00     0.066 A 
ATOM      2  O   UNL d   1      33.005  22.090 -22.776  0.00  0.00    -0.302 OA
ATOM      3  C   UNL d   1      32.889  21.167 -21.816  0.00  0.00     0.222 A 
ATOM      4  C   UNL d   1      33.074  22.466 -22.048  0.00  0.00     0.103 A 
ATOM      5  C   UNL d   1      33.051  22.131 -20.668  0.00  0.00     0.030 A 
ATOM      6  C   UNL d   1      32.891  21.286 -22.632  0.00  0.00     0.165 A 
ATOM      7  O   UNL d   1      32.792  20.445 -21.422  0.00  0.00    -0.284 OA
ATOM      8  C   UNL d   1      33.192  23.254 -21.856  0.00  0.00     0.027 A 
ATOM      9  C   UNL d   1      33.170  22.924 -20.476  0.00  0.00     0.100 A 
ATOM     10  C   UNL d   1      33.241  23.487 -21.075  0.00  0.00     0.027 A 
ENDROOT
BRANCH   9  11
ATOM     11  O   UNL d   1      33.219  23.156 -19.680  0.00  0.00    -0.305 OA
BRANCH  11  12
ATOM     12  C   UNL d   1      32.580  23.037 -19.174  0.00  0.00     0.122 C 
BRANCH  12  13
ATOM     13  C   UNL d   1      32.707  23.047 -18.355  0.00  0.00     0.025 A 
ATOM     14  C   UNL d   1      32.419  23.681 -17.909  0.00  0.00     0.004 A 
ATOM     15  C   UNL d   1      32.542  23.694 -17.096  0.00  0.00     0.030 A 
ATOM     16  C   UNL d   1      32.956  23.072 -16.728  0.00  0.00     0.140 A 
ATOM     17  C   UNL d   1      33.240  22.443 -17.178  0.00  0.00     0.030 A 
ATOM     18  F   UNL d   1      33.077  23.091 -15.913  0.00  0.00    -0.204 F 
ATOM     19  C   UNL d   1      33.117  22.430 -17.990  0.00  0.00     0.004 A 
ENDBRANCH  12  13
ENDBRANCH  11  12
ENDBRANCH   9  11
TORSDOF 3
ENDMDL
MODEL 4
REMARK VINA RESULT:      -1.9      3.560      5.860
REMARK  3 active torsions:
REMARK  status: ('A' for Active; 'I' for Inactive)
REMARK    1  A    between atoms: O_10  and  C_9 
REMARK    2  A    between atoms: C_13  and  O_10 
REMARK    3  A    between atoms: C_12  and  C_13 
ROOT
ATOM      1  C   UNL d   1      29.169  16.222 -23.994  0.00  0.00     0.066 A 
ATOM      2  O   UNL d   1      28.474  15.453 -24.840  0.00  0.00    -0.302 OA
ATOM      3  C   UNL d   1      28.364  16.334 -23.840  0.00  0.00     0.222 A 
ATOM      4  C   UNL d   1      29.232  15.678 -24.611  0.00  0.00     0.103 A 
ATOM      5  C   UNL d   1      29.847  16.537 -23.662  0.00  0.00     0.030 A 
ATOM      6  C   UNL d   1      27.938  15.859 -24.363  0.00  0.00     0.165 A 
ATOM      7  O   UNL d   1      28.050  16.836 -23.262  0.00  0.00    -0.284 OA
ATOM      8  C   UNL d   1      29.969  15.455 -24.889  0.00  0.00     0.027 A 
ATOM      9  C   UNL d   1      30.589  16.311 -23.943  0.00  0.00     0.100 A 
ATOM     10  C   UNL d   1      30.648  15.767 -24.560  0.00  0.00     0.027 A 
ENDROOT
BRANCH   9  11
ATOM     11  O   UNL d   1      31.276  16.631 -23.604  0.00  0.00    -0.305 OA
BRANCH  11  12
ATOM     12  C   UNL d   1      31.845  16.990 -24.080  0.00  0.00     0.122 C 
BRANCH  12  13
ATOM     13  C   UNL d   1      32.197  17.696 -23.826  0.00  0.00     0.025 A 
ATOM     14  C   UNL d   1      32.184  18.356 -24.325  0.00  0.00     0.004 A 
ATOM     15  C   UNL d   1      32.532  19.058 -24.077  0.00  0.00     0.030 A 
ATOM     16  C   UNL d   1      32.894  19.102 -23.328  0.00  0.00     0.140 A 
ATOM     17  C   UNL d   1      32.903  18.441 -22.836  0.00  0.00     0.030 A 
ATOM     18  F   UNL d   1      33.241  19.808 -23.085  0.00  0.00    -0.204 F 
ATOM     19  C   UNL d   1      32.555  17.739 -23.084  0.00  0.00     0.004 A 
ENDBRANCH  12  13
ENDBRANCH  11  12
ENDBRANCH   9  11
TORSDOF 3
ENDMDL
MODEL 5
REMARK VINA RESULT:      -1.1      3.390      5.154
REMARK  3 active torsions:
REMARK  status: ('A' for Active; 'I' for Inactive)
REMARK    1  A    between atoms: O_10  and  C_9 
REMARK    2  A    between atoms: C_13  and  O_10 
REMARK    3  A    between atoms: C_12  and  C_13 
ROOT
ATOM      1  C   UNL d   1      32.180  18.069 -23.669  0.00  0.00     0.066 A 
ATOM      2  O   UNL d   1      33.234  18.708 -24.189  0.00  0.00    -0.302 OA
ATOM      3  C   UNL d   1      32.561  18.474 -23.057  0.00  0.00     0.222 A 
ATOM      4  C   UNL d   1      32.598  18.217 -24.364  0.00  0.00     0.103 A 
ATOM      5  C   UNL d   1      31.516  17.591 -23.690  0.00  0.00     0.030 A 
ATOM      6  C   UNL d   1      33.211  18.867 -23.380  0.00  0.00     0.165 A 
ATOM      7  O   UNL d   1      32.326  18.478 -22.263  0.00  0.00    -0.284 OA
ATOM      8  C   UNL d   1      32.350  17.886 -25.072  0.00  0.00     0.027 A 
ATOM      9  C   UNL d   1      31.267  17.259 -24.403  0.00  0.00     0.100 A 
ATOM     10  C   UNL d   1      31.688  17.409 -25.097  0.00  0.00     0.027 A 
ENDROOT
BRANCH   9  11
ATOM     11  O   UNL d   1      30.593  16.775 -24.422  0.00  0.00    -0.305 OA
BRANCH  11  12
ATOM     12  C   UNL d   1      30.276  16.478 -23.722  0.00  0.00     0.122 C 
BRANCH  12  13
ATOM     13  C   UNL d   1      29.487  16.222 -23.713  0.00  0.00     0.025 A 
ATOM     14  C   UNL d   1      29.052  16.280 -23.012  0.00  0.00     0.004 A 
ATOM     15  C   UNL d   1      28.270  16.028 -22.998  0.00  0.00     0.030 A 
ATOM     16  C   UNL d   1      27.922  15.715 -23.688  0.00  0.00     0.140 A 
ATOM     17  C   UNL d   1      28.361  15.660 -24.382  0.00  0.00     0.030 A 
ATOM     18  F   UNL d   1      27.137  15.464 -23.668  0.00  0.00    -0.204 F 
ATOM     19  C   UNL d   1      29.142  15.912 -24.396  0.00  0.00     0.004 A 
ENDBRANCH  12  13
ENDBRANCH  11  12
ENDBRANCH   9  11
TORSDOF 3
ENDMDL
MODEL 6
REMARK VINA RESULT:      -0.6      1.839      3.169
REMARK  3 active torsions:
REMARK  status: ('A' for Active; 'I' for Inactive)
REMARK    1  A    between atoms: O_10  and  C_9 
REMARK    2  A    between atoms: C_13  and  O_10 
REMARK    3  A    between atoms: C_12  and  C_13 
ROOT
ATOM      1  C   UNL d   1      32.614  22.800 -18.171  0.00  0.00     0.066 A 
ATOM      2  O   UNL d   1      31.879  23.702 -17.511  0.00  0.00    -0.302 OA
ATOM      3  C   UNL d   1      32.716  22.671 -17.361  0.00  0.00     0.222 A 
ATOM      4  C   UNL d   1      32.097  23.437 -18.259  0.00  0.00     0.103 A 
ATOM      5  C   UNL d   1      32.916  22.430 -18.836  0.00  0.00     0.030 A 
ATOM      6  C   UNL d   1      32.263  23.228 -16.956  0.00  0.00     0.165 A 
ATOM      7  O   UNL d   1      33.193  22.083 -17.024  0.00  0.00    -0.284 OA
ATOM      8  C   UNL d   1      31.887  23.697 -19.007  0.00  0.00     0.027 A 
ATOM      9  C   UNL d   1      32.704  22.693 -19.588  0.00  0.00     0.100 A 
ATOM     10  C   UNL d   1      32.187  23.330 -19.672  0.00  0.00     0.027 A 
ENDROOT
BRANCH   9  11
ATOM     11  O   UNL d   1      33.012  22.316 -20.261  0.00  0.00    -0.305 OA
BRANCH  11  12
ATOM     12  C   UNL d   1      32.673  21.619 -20.537  0.00  0.00     0.122 C 
BRANCH  12  13
ATOM     13  C   UNL d   1      32.817  21.381 -21.318  0.00  0.00     0.025 A 
ATOM     14  C   UNL d   1      32.696  20.590 -21.529  0.00  0.00     0.004 A 
ATOM     15  C   UNL d   1      32.838  20.351 -22.302  0.00  0.00     0.030 A 
ATOM     16  C   UNL d   1      33.100  20.903 -22.867  0.00  0.00     0.140 A 
ATOM     17  C   UNL d   1      33.219  21.689 -22.651  0.00  0.00     0.030 A 
ATOM     18  F   UNL d   1      33.241  20.657 -23.641  0.00  0.00    -0.204 F 
ATOM     19  C   UNL d   1      33.077  21.929 -21.878  0.00  0.00     0.004 A 
ENDBRANCH  12  13
ENDBRANCH  11  12
ENDBRANCH   9  11
TORSDOF 3
ENDMDL
