MODEL 1
REMARK VINA RESULT:      -6.6      0.000      0.000
REMARK  5 active torsions:
REMARK  status: ('A' for Active; 'I' for Inactive)
REMARK    1  A    between atoms: C_9  and  S_1 
REMARK    2  A    between atoms: C_14  and  S_1 
REMARK    3  A    between atoms: C_7  and  C_10 
REMARK       I    between atoms: N_11  and  C_7 
REMARK    4  A    between atoms: C_10  and  C_9 
REMARK    5  A    between atoms: C_15  and  N_11 
ROOT
ATOM      1  C   UNL d   1     -41.496-122.810 -51.281  0.00  0.00     0.280 C 
ATOM      2  N   UNL d   1     -42.031-122.461 -50.753  0.00  0.00    -0.208 NA
ATOM      3  O   UNL d   1     -41.123-123.527 -51.070  0.00  0.00    -0.265 OA
ENDROOT
BRANCH   1   4
ATOM      4  C   UNL d   1     -41.332-122.464 -51.998  0.00  0.00     0.075 C 
BRANCH   4   5
ATOM      5  C   UNL d   1     -41.354-122.871 -52.620  0.00  0.00     0.104 C 
BRANCH   5   6
ATOM      6  S   UNL d   1     -41.545-122.633 -53.399  0.00  0.00     0.211 S 
ATOM      7  O   UNL d   1     -41.846-123.390 -53.565  0.00  0.00    -0.217 OA
ATOM      8  O   UNL d   1     -41.239-121.864 -53.226  0.00  0.00    -0.217 OA
BRANCH   6   9
ATOM      9  C   UNL d   1     -41.732-122.390 -54.167  0.00  0.00     0.088 A 
ATOM     10  C   UNL d   1     -41.263-122.629 -54.802  0.00  0.00     0.011 A 
ATOM     11  C   UNL d   1     -41.448-122.386 -55.574  0.00  0.00     0.001 A 
ATOM     12  C   UNL d   1     -42.104-121.905 -55.702  0.00  0.00     0.000 A 
ATOM     13  C   UNL d   1     -42.581-121.660 -55.074  0.00  0.00     0.001 A 
ATOM     14  C   UNL d   1     -42.392-121.904 -54.301  0.00  0.00     0.011 A 
ENDBRANCH   6   9
ENDBRANCH   5   6
ENDBRANCH   4   5
ENDBRANCH   1   4
BRANCH   2  15
ATOM     15  C   UNL d   1     -42.199-122.807 -50.028  0.00  0.00     0.085 A 
ATOM     16  C   UNL d   1     -41.651-122.775 -49.422  0.00  0.00     0.027 A 
ATOM     17  C   UNL d   1     -41.829-123.123 -48.704  0.00  0.00     0.050 A 
ATOM     18  S   UNL d   1     -41.402-123.185 -47.997  0.00  0.00    -0.066 SA
ATOM     19  C   UNL d   1     -42.562-123.507 -48.590  0.00  0.00     0.088 A 
ATOM     20  C   UNL d   1     -41.857-123.600 -47.448  0.00  0.00     0.111 A 
ATOM     21  C   UNL d   1     -41.641-123.784 -46.676  0.00  0.00     0.028 C 
ATOM     22  N   UNL d   1     -42.582-123.798 -47.826  0.00  0.00    -0.239 NA
ATOM     23  C   UNL d   1     -43.102-123.535 -49.198  0.00  0.00     0.021 A 
ATOM     24  C   UNL d   1     -42.925-123.187 -49.916  0.00  0.00     0.021 A 
ENDBRANCH   2  15
TORSDOF 5
ENDMDL
MODEL 2
REMARK VINA RESULT:      -6.4      1.414      5.752
REMARK  5 active torsions:
REMARK  status: ('A' for Active; 'I' for Inactive)
REMARK    1  A    between atoms: C_9  and  S_1 
REMARK    2  A    between atoms: C_14  and  S_1 
REMARK    3  A    between atoms: C_7  and  C_10 
REMARK       I    between atoms: N_11  and  C_7 
REMARK    4  A    between atoms: C_10  and  C_9 
REMARK    5  A    between atoms: C_15  and  N_11 
ROOT
ATOM      1  C   UNL d   1     -41.586-123.344 -51.327  0.00  0.00     0.280 C 
ATOM      2  N   UNL d   1     -41.125-122.942 -51.885  0.00  0.00    -0.208 NA
ATOM      3  O   UNL d   1     -42.230-123.808 -51.587  0.00  0.00    -0.265 OA
ENDROOT
BRANCH   1   4
ATOM      4  C   UNL d   1     -41.419-123.292 -50.533  0.00  0.00     0.075 C 
BRANCH   4   5
ATOM      5  C   UNL d   1     -41.969-123.340 -50.035  0.00  0.00     0.104 C 
BRANCH   5   6
ATOM      6  S   UNL d   1     -41.921-123.375 -49.200  0.00  0.00     0.211 S 
ATOM      7  O   UNL d   1     -41.175-123.741 -49.250  0.00  0.00    -0.217 OA
ATOM      8  O   UNL d   1     -42.678-123.003 -49.153  0.00  0.00    -0.217 OA
BRANCH   6   9
ATOM      9  C   UNL d   1     -41.880-123.405 -48.374  0.00  0.00     0.088 A 
ATOM     10  C   UNL d   1     -42.549-123.242 -47.920  0.00  0.00     0.011 A 
ATOM     11  C   UNL d   1     -42.510-123.272 -47.092  0.00  0.00     0.001 A 
ATOM     12  C   UNL d   1     -41.799-123.466 -46.726  0.00  0.00     0.000 A 
ATOM     13  C   UNL d   1     -41.123-123.631 -47.170  0.00  0.00     0.001 A 
ATOM     14  C   UNL d   1     -41.165-123.600 -48.000  0.00  0.00     0.011 A 
ENDBRANCH   6   9
ENDBRANCH   5   6
ENDBRANCH   4   5
ENDBRANCH   1   4
BRANCH   2  15
ATOM     15  C   UNL d   1     -41.290-122.991 -52.688  0.00  0.00     0.085 A 
ATOM     16  C   UNL d   1     -41.585-122.342 -53.086  0.00  0.00     0.027 A 
ATOM     17  C   UNL d   1     -41.746-122.402 -53.886  0.00  0.00     0.050 A 
ATOM     18  S   UNL d   1     -42.041-121.857 -54.435  0.00  0.00    -0.066 SA
ATOM     19  C   UNL d   1     -41.611-123.120 -54.291  0.00  0.00     0.088 A 
ATOM     20  C   UNL d   1     -42.091-122.224 -55.172  0.00  0.00     0.111 A 
ATOM     21  C   UNL d   1     -42.357-121.880 -55.870  0.00  0.00     0.028 C 
ATOM     22  N   UNL d   1     -41.820-123.014 -55.074  0.00  0.00    -0.239 NA
ATOM     23  C   UNL d   1     -41.317-123.763 -53.887  0.00  0.00     0.021 A 
ATOM     24  C   UNL d   1     -41.156-123.702 -53.088  0.00  0.00     0.021 A 
ENDBRANCH   2  15
TORSDOF 5
ENDMDL
