MODEL 1
REMARK VINA RESULT:       8.7      0.000      0.000
REMARK  8 active torsions:
REMARK  status: ('A' for Active; 'I' for Inactive)
REMARK    1  A    between atoms: C_9  and  C_2 
REMARK    2  A    between atoms: S_7  and  C_4 
REMARK    3  A    between atoms: C_6  and  C_13 
REMARK       I    between atoms: N_10  and  C_6 
REMARK    4  A    between atoms: C_13  and  S_7 
REMARK    5  A    between atoms: C_8  and  C_14 
REMARK    6  A    between atoms: O_15  and  C_8 
REMARK    7  A    between atoms: C_14  and  N_10 
REMARK    8  A    between atoms: C_18  and  O_15 
ROOT
ATOM      1  N   UNL d   1      46.191 -17.904  43.761  0.00  0.00    -0.212 NA
ATOM      2  C   UNL d   1      46.321 -18.702  43.639  0.00  0.00     0.171 A 
ATOM      3  N   UNL d   1      46.327 -19.079  44.375  0.00  0.00    -0.188 NA
ATOM      4  C   UNL d   1      46.114 -17.771  44.571  0.00  0.00     0.160 A 
ATOM      5  S   UNL d   1      46.199 -18.503  44.951  0.00  0.00     0.041 SA
ENDROOT
BRANCH   4   6
ATOM      6  S   UNL d   1      45.977 -17.047  44.943  0.00  0.00    -0.054 SA
BRANCH   6   7
ATOM      7  C   UNL d   1      45.587 -16.449  44.545  0.00  0.00     0.100 C 
BRANCH   7   8
ATOM      8  C   UNL d   1      45.749 -15.652  44.712  0.00  0.00     0.286 C 
ATOM      9  N   UNL d   1      45.154 -15.089  44.636  0.00  0.00    -0.200 NA
ATOM     10  O   UNL d   1      46.505 -15.437  44.953  0.00  0.00    -0.265 OA
BRANCH   9  11
ATOM     11  C   UNL d   1      45.324 -14.300  44.804  0.00  0.00     0.171 C 
BRANCH  11  12
ATOM     12  C   UNL d   1      44.896 -13.702  44.414  0.00  0.00     0.320 C 
ATOM     13  O   UNL d   1      44.238 -13.358  44.777  0.00  0.00    -0.257 OA
BRANCH  12  14
ATOM     14  O   UNL d   1      45.140 -13.458  43.658  0.00  0.00    -0.270 OA
BRANCH  14  15
ATOM     15  C   UNL d   1      45.321 -12.655  43.530  0.00  0.00     0.126 C 
ATOM     16  C   UNL d   1      45.088 -12.295  42.835  0.00  0.00     0.029 C 
ENDBRANCH  14  15
ENDBRANCH  12  14
ENDBRANCH  11  12
ENDBRANCH   9  11
ENDBRANCH   7   8
ENDBRANCH   6   7
ENDBRANCH   4   6
BRANCH   2  17
ATOM     17  C   UNL d   1      46.429 -19.077  42.911  0.00  0.00     0.036 A 
ATOM     18  C   UNL d   1      46.432 -19.907  42.852  0.00  0.00     0.003 A 
ATOM     19  C   UNL d   1      46.539 -20.273  42.132  0.00  0.00     0.000 A 
ATOM     20  C   UNL d   1      46.645 -19.818  41.457  0.00  0.00     0.000 A 
ATOM     21  C   UNL d   1      46.643 -18.990  41.508  0.00  0.00     0.000 A 
ATOM     22  C   UNL d   1      46.535 -18.633  42.236  0.00  0.00     0.003 A 
ENDBRANCH   2  17
TORSDOF 8
ENDMDL
MODEL 2
REMARK VINA RESULT:      11.0      1.837      5.440
REMARK  8 active torsions:
REMARK  status: ('A' for Active; 'I' for Inactive)
REMARK    1  A    between atoms: C_9  and  C_2 
REMARK    2  A    between atoms: S_7  and  C_4 
REMARK    3  A    between atoms: C_6  and  C_13 
REMARK       I    between atoms: N_10  and  C_6 
REMARK    4  A    between atoms: C_13  and  S_7 
REMARK    5  A    between atoms: C_8  and  C_14 
REMARK    6  A    between atoms: O_15  and  C_8 
REMARK    7  A    between atoms: C_14  and  N_10 
REMARK    8  A    between atoms: C_18  and  O_15 
ROOT
ATOM      1  N   UNL d   1      45.795 -14.955  44.118  0.00  0.00    -0.212 NA
ATOM      2  C   UNL d   1      45.183 -14.416  44.179  0.00  0.00     0.171 A 
ATOM      3  N   UNL d   1      44.566 -14.772  44.599  0.00  0.00    -0.188 NA
ATOM      4  C   UNL d   1      45.571 -15.653  44.497  0.00  0.00     0.160 A 
ATOM      5  S   UNL d   1      44.806 -15.537  44.796  0.00  0.00     0.041 SA
ENDROOT
BRANCH   4   6
ATOM      6  S   UNL d   1      46.019 -16.342  44.570  0.00  0.00    -0.054 SA
BRANCH   6   7
ATOM      7  C   UNL d   1      45.663 -17.073  44.486  0.00  0.00     0.100 C 
BRANCH   7   8
ATOM      8  C   UNL d   1      46.113 -17.746  44.305  0.00  0.00     0.286 C 
ATOM      9  N   UNL d   1      46.198 -17.984  43.522  0.00  0.00    -0.200 NA
ATOM     10  O   UNL d   1      46.470 -18.167  44.915  0.00  0.00    -0.265 OA
BRANCH   9  11
ATOM     11  C   UNL d   1      46.647 -18.654  43.352  0.00  0.00     0.171 C 
BRANCH  11  12
ATOM     12  C   UNL d   1      46.561 -19.021  42.610  0.00  0.00     0.320 C 
ATOM     13  O   UNL d   1      46.595 -18.570  41.917  0.00  0.00    -0.257 OA
BRANCH  12  14
ATOM     14  O   UNL d   1      46.441 -19.842  42.575  0.00  0.00    -0.270 OA
BRANCH  14  15
ATOM     15  C   UNL d   1      46.092 -20.173  41.896  0.00  0.00     0.126 C 
ATOM     16  C   UNL d   1      46.551 -20.323  41.238  0.00  0.00     0.029 C 
ENDBRANCH  14  15
ENDBRANCH  12  14
ENDBRANCH  11  12
ENDBRANCH   9  11
ENDBRANCH   7   8
ENDBRANCH   6   7
ENDBRANCH   4   6
BRANCH   2  17
ATOM     17  C   UNL d   1      45.173 -13.648  43.878  0.00  0.00     0.036 A 
ATOM     18  C   UNL d   1      44.648 -13.433  43.268  0.00  0.00     0.003 A 
ATOM     19  C   UNL d   1      44.640 -12.674  42.973  0.00  0.00     0.000 A 
ATOM     20  C   UNL d   1      45.157 -12.114  43.280  0.00  0.00     0.000 A 
ATOM     21  C   UNL d   1      45.683 -12.321  43.887  0.00  0.00     0.000 A 
ATOM     22  C   UNL d   1      45.682 -13.086  44.176  0.00  0.00     0.003 A 
ENDBRANCH   2  17
TORSDOF 8
ENDMDL
