MODEL 1
REMARK VINA RESULT:      66.5      0.000      0.000
REMARK  5 active torsions:
REMARK  status: ('A' for Active; 'I' for Inactive)
REMARK    1  A    between atoms: N_2  and  S_1 
REMARK    2  A    between atoms: C_9  and  S_1 
REMARK    3  A    between atoms: C_4  and  N_11 
REMARK    4  A    between atoms: C_8  and  C_16 
REMARK       I    between atoms: N_10  and  C_8 
REMARK    5  A    between atoms: N_11  and  N_10 
ROOT
ATOM      1  C   UNL d   1      13.723  14.836  -4.944  0.00  0.00     0.104 A 
ATOM      2  C   UNL d   1      13.336  13.265  -4.640  0.00  0.00     0.059 A 
ATOM      3  C   UNL d   1      12.977  14.648  -4.642  0.00  0.00     0.013 A 
ATOM      4  C   UNL d   1      14.272  14.238  -5.094  0.00  0.00     0.013 A 
ATOM      5  C   UNL d   1      14.074  13.452  -4.940  0.00  0.00     0.006 A 
ATOM      6  C   UNL d   1      12.788  13.863  -4.491  0.00  0.00     0.006 A 
ENDROOT
BRANCH   2   7
ATOM      7  C   UNL d   1      13.147  12.481  -4.490  0.00  0.00     0.297 C 
ATOM      8  N   UNL d   1      13.207  12.268  -3.701  0.00  0.00    -0.104 NA
ATOM      9  O   UNL d   1      12.931  12.065  -5.178  0.00  0.00    -0.264 OA
BRANCH   8  10
ATOM     10  N   UNL d   1      13.440  12.825  -3.148  0.00  0.00    -0.118 NA
BRANCH  10  11
ATOM     11  C   UNL d   1      13.837  12.589  -2.456  0.00  0.00     0.215 A 
ATOM     12  N   UNL d   1      13.485  12.379  -1.745  0.00  0.00    -0.219 NA
ATOM     13  C   UNL d   1      14.070  12.183  -1.206  0.00  0.00     0.090 A 
ATOM     14  C   UNL d   1      14.048  11.937  -0.424  0.00  0.00     0.018 A 
ATOM     15  C   UNL d   1      14.801  12.274  -1.593  0.00  0.00     0.050 A 
ATOM     16  C   UNL d   1      14.752  11.779  -0.021  0.00  0.00     0.002 A 
ATOM     17  C   UNL d   1      13.319  11.847  -0.040  0.00  0.00     0.002 C 
ATOM     18  C   UNL d   1      15.472  11.870  -0.406  0.00  0.00     0.001 A 
ATOM     19  C   UNL d   1      15.509  12.119  -1.199  0.00  0.00     0.008 A 
ATOM     20  S   UNL d   1      14.651  12.524  -2.362  0.00  0.00    -0.045 SA
ENDBRANCH  10  11
ENDBRANCH   8  10
ENDBRANCH   2   7
BRANCH   1  21
ATOM     21  S   UNL d   1      13.929  15.620  -5.101  0.00  0.00     0.271 S 
ATOM     22  O   UNL d   1      14.603  15.526  -4.635  0.00  0.00    -0.200 OA
ATOM     23  O   UNL d   1      13.256  15.717  -5.566  0.00  0.00    -0.200 OA
BRANCH  21  24
ATOM     24  N   UNL d   1      14.142  16.403  -5.252  0.00  0.00    -0.229 N 
ATOM     25  C   UNL d   1      14.821  16.701  -4.908  0.00  0.00     0.092 A 
ATOM     26  C   UNL d   1      15.035  17.483  -5.059  0.00  0.00     0.018 A 
ATOM     27  C   UNL d   1      15.724  17.819  -4.723  0.00  0.00     0.002 C 
ATOM     28  C   UNL d   1      14.565  17.953  -5.551  0.00  0.00     0.003 A 
ATOM     29  C   UNL d   1      13.882  17.640  -5.892  0.00  0.00     0.018 A 
ATOM     30  C   UNL d   1      13.669  16.858  -5.741  0.00  0.00     0.092 A 
ATOM     31  C   UNL d   1      13.416  18.125  -6.388  0.00  0.00     0.002 C 
ENDBRANCH  21  24
ENDBRANCH   1  21
TORSDOF 5
ENDMDL
