MODEL 1
REMARK VINA RESULT:      31.8      0.000      0.000
REMARK  5 active torsions:
REMARK  status: ('A' for Active; 'I' for Inactive)
REMARK    1  A    between atoms: N_5  and  C_1 
REMARK       I    between atoms: C_9  and  N_5 
REMARK    2  A    between atoms: C_17  and  C_9 
REMARK    3  A    between atoms: C_12  and  C_10 
REMARK    4  A    between atoms: C_11  and  S_13 
REMARK    5  A    between atoms: S_13  and  C_17 
ROOT
ATOM      1  N   UNL d   1      14.415  11.927  -2.867  0.00  0.00    -0.148 NA
ATOM      2  N   UNL d   1      14.000  11.910  -3.579  0.00  0.00    -0.141 NA
ATOM      3  C   UNL d   1      14.007  11.871  -2.147  0.00  0.00     0.104 A 
ATOM      4  C   UNL d   1      13.184  11.837  -3.585  0.00  0.00     0.133 A 
ATOM      5  C   UNL d   1      13.184  11.798  -2.150  0.00  0.00     0.023 A 
ATOM      6  C   UNL d   1      12.773  11.781  -2.862  0.00  0.00     0.029 A 
ENDROOT
BRANCH   4   7
ATOM      7  S   UNL d   1      12.769  11.820  -4.298  0.00  0.00    -0.061 SA
BRANCH   7   8
ATOM      8  C   UNL d   1      13.128  12.068  -4.993  0.00  0.00     0.099 C 
BRANCH   8   9
ATOM      9  C   UNL d   1      13.145  12.874  -5.179  0.00  0.00     0.288 C 
ATOM     10  N   UNL d   1      13.236  13.430  -4.580  0.00  0.00    -0.181 NA
ATOM     11  O   UNL d   1      13.070  13.119  -5.960  0.00  0.00    -0.265 OA
BRANCH  10  12
ATOM     12  C   UNL d   1      13.253  14.228  -4.760  0.00  0.00     0.219 A 
ATOM     13  S   UNL d   1      13.754  14.594  -5.310  0.00  0.00    -0.026 SA
ATOM     14  C   UNL d   1      13.584  15.391  -5.313  0.00  0.00     0.135 A 
ATOM     15  C   UNL d   1      13.952  15.965  -5.781  0.00  0.00     0.030 C 
ATOM     16  N   UNL d   1      12.981  15.527  -4.769  0.00  0.00    -0.139 NA
ATOM     17  N   UNL d   1      12.775  14.807  -4.425  0.00  0.00    -0.121 NA
ENDBRANCH  10  12
ENDBRANCH   8   9
ENDBRANCH   7   8
ENDBRANCH   4   7
BRANCH   3  18
ATOM     18  C   UNL d   1      14.422  11.888  -1.434  0.00  0.00     0.039 A 
ATOM     19  C   UNL d   1      15.232  11.807  -1.437  0.00  0.00     0.101 A 
ATOM     20  N   UNL d   1      15.648  11.824  -0.733  0.00  0.00    -0.242 NA
ATOM     21  C   UNL d   1      15.240  11.923  -0.014  0.00  0.00     0.099 A 
ATOM     22  C   UNL d   1      14.426  12.004  -0.016  0.00  0.00     0.021 A 
ATOM     23  C   UNL d   1      14.003  11.988  -0.725  0.00  0.00     0.005 A 
ENDBRANCH   3  18
TORSDOF 5
ENDMDL
