MODEL 1
REMARK VINA RESULT:      64.2      0.000      0.000
REMARK  7 active torsions:
REMARK  status: ('A' for Active; 'I' for Inactive)
REMARK    1  A    between atoms: C_8  and  C_1 
REMARK    2  A    between atoms: N_7  and  C_2 
REMARK    3  A    between atoms: C_5  and  N_7 
REMARK    4  A    between atoms: N_9  and  C_5 
REMARK    5  A    between atoms: O_14  and  C_8 
REMARK    6  A    between atoms: C_10  and  N_9 
REMARK    7  A    between atoms: C_20  and  O_14 
ROOT
ATOM      1  C   UNL d   1      60.914  47.735  50.424  0.00  0.00     0.162 A 
ATOM      2  C   UNL d   1      60.313  48.251  50.624  0.00  0.00     0.108 A 
ATOM      3  N   UNL d   1      61.554  47.879  50.924  0.00  0.00    -0.239 NA
ATOM      4  C   UNL d   1      60.571  48.719  51.246  0.00  0.00     0.037 A 
ATOM      5  C   UNL d   1      61.338  48.493  51.436  0.00  0.00     0.083 A 
ATOM      6  C   UNL d   1      60.204  49.325  51.667  0.00  0.00     0.003 A 
ATOM      7  C   UNL d   1      61.744  48.871  52.047  0.00  0.00     0.019 A 
ATOM      8  C   UNL d   1      60.604  49.707  52.278  0.00  0.00     0.000 A 
ATOM      9  C   UNL d   1      61.378  49.474  52.465  0.00  0.00     0.002 A 
ENDROOT
BRANCH   2  10
ATOM     10  N   UNL d   1      59.563  48.298  50.260  0.00  0.00    -0.216 NA
BRANCH  10  11
ATOM     11  C   UNL d   1      59.182  49.029  50.205  0.00  0.00     0.221 C 
ATOM     12  S   UNL d   1      59.515  49.647  49.765  0.00  0.00    -0.037 SA
BRANCH  11  13
ATOM     13  N   UNL d   1      58.462  49.139  50.595  0.00  0.00    -0.217 NA
BRANCH  13  14
ATOM     14  C   UNL d   1      57.789  49.328  50.159  0.00  0.00     0.084 A 
ATOM     15  C   UNL d   1      57.077  49.517  50.540  0.00  0.00     0.018 A 
ATOM     16  C   UNL d   1      57.037  49.517  51.379  0.00  0.00     0.002 C 
ATOM     17  C   UNL d   1      56.403  49.707  50.110  0.00  0.00     0.002 A 
ATOM     18  C   UNL d   1      56.441  49.708  49.284  0.00  0.00     0.000 A 
ATOM     19  C   UNL d   1      57.145  49.521  48.891  0.00  0.00     0.002 A 
ATOM     20  C   UNL d   1      57.819  49.331  49.337  0.00  0.00     0.019 A 
ENDBRANCH  13  14
ENDBRANCH  11  13
ENDBRANCH  10  11
ENDBRANCH   2  10
BRANCH   1  21
ATOM     21  C   UNL d   1      60.888  47.167  49.826  0.00  0.00     0.320 C 
ATOM     22  O   UNL d   1      60.190  47.055  49.399  0.00  0.00    -0.257 OA
BRANCH  21  23
ATOM     23  O   UNL d   1      61.545  46.710  49.649  0.00  0.00    -0.270 OA
BRANCH  23  24
ATOM     24  C   UNL d   1      61.520  45.894  49.777  0.00  0.00     0.126 C 
ATOM     25  C   UNL d   1      61.667  45.381  49.155  0.00  0.00     0.029 C 
ENDBRANCH  23  24
ENDBRANCH  21  23
ENDBRANCH   1  21
TORSDOF 7
ENDMDL
