MODEL 1
REMARK VINA RESULT:      61.0      0.000      0.000
REMARK  7 active torsions:
REMARK  status: ('A' for Active; 'I' for Inactive)
REMARK    1  A    between atoms: S_2  and  C_1 
REMARK    2  A    between atoms: N_7  and  S_2 
REMARK    3  A    between atoms: C_8  and  C_3 
REMARK    4  A    between atoms: C_10  and  C_6 
REMARK    5  A    between atoms: O_21  and  C_8 
REMARK    6  A    between atoms: C_17  and  N_9 
REMARK    7  A    between atoms: O_22  and  C_10 
ROOT
ATOM      1  S   UNL d   1     -54.853-101.639 -39.858  0.00  0.00     0.277 S 
ATOM      2  O   UNL d   1     -54.712-102.353 -40.246  0.00  0.00    -0.199 OA
ATOM      3  O   UNL d   1     -54.789-102.216 -39.304  0.00  0.00    -0.199 OA
ENDROOT
BRANCH   1   4
ATOM      4  C   UNL d   1     -54.953-101.291 -39.107  0.00  0.00     0.139 A 
ATOM      5  C   UNL d   1     -55.344-101.696 -38.528  0.00  0.00     0.082 A 
ATOM      6  C   UNL d   1     -55.356-101.223 -37.862  0.00  0.00     0.018 A 
ATOM      7  C   UNL d   1     -55.705-101.401 -37.099  0.00  0.00     0.001 C 
ATOM      8  C   UNL d   1     -54.971-100.523 -38.034  0.00  0.00     0.093 A 
ATOM      9  S   UNL d   1     -54.711-100.551 -38.815  0.00  0.00    -0.069 SA
BRANCH   5  10
ATOM     10  C   UNL d   1     -55.703-102.488 -38.555  0.00  0.00     0.297 C 
ATOM     11  O   UNL d   1     -55.811-102.875 -39.282  0.00  0.00    -0.259 OA
BRANCH  10  12
ATOM     12  O   UNL d   1     -55.931-102.840 -37.837  0.00  0.00    -0.296 OA
ATOM     13  C   UNL d   1     -55.386-102.872 -37.199  0.00  0.00     0.185 C 
ENDBRANCH  10  12
ENDBRANCH   5  10
BRANCH   8  14
ATOM     14  C   UNL d   1     -54.864 -99.890 -37.497  0.00  0.00     0.302 C 
ATOM     15  O   UNL d   1     -54.894 -99.115 -37.764  0.00  0.00    -0.259 OA
BRANCH  14  16
ATOM     16  O   UNL d   1     -54.727-100.073 -36.688  0.00  0.00    -0.295 OA
ATOM     17  C   UNL d   1     -54.878 -99.529 -36.090  0.00  0.00     0.185 C 
ENDBRANCH  14  16
ENDBRANCH   8  14
ENDBRANCH   1   4
BRANCH   1  18
ATOM     18  N   UNL d   1     -54.832-101.480 -40.685  0.00  0.00    -0.226 N 
ATOM     19  C   UNL d   1     -54.807-102.101 -41.265  0.00  0.00     0.111 A 
ATOM     20  C   UNL d   1     -54.787-101.928 -42.072  0.00  0.00     0.100 A 
ATOM     21  N   UNL d   1     -54.790-101.152 -42.339  0.00  0.00    -0.301 N 
ATOM     22  C   UNL d   1     -54.814-100.551 -41.777  0.00  0.00     0.100 A 
ATOM     23  C   UNL d   1     -54.835-100.705 -40.953  0.00  0.00     0.111 A 
BRANCH  21  24
ATOM     24  C   UNL d   1     -54.771-100.965 -43.115  0.00  0.00     0.064 A 
ATOM     25  C   UNL d   1     -54.781-101.533 -43.707  0.00  0.00     0.018 A 
ATOM     26  C   UNL d   1     -54.761-101.330 -44.506  0.00  0.00     0.002 A 
ATOM     27  C   UNL d   1     -54.730-100.544 -44.714  0.00  0.00     0.000 A 
ATOM     28  C   UNL d   1     -54.718 -99.964 -44.129  0.00  0.00     0.002 A 
ATOM     29  C   UNL d   1     -54.738-100.160 -43.342  0.00  0.00     0.018 A 
ENDBRANCH  21  24
ENDBRANCH   1  18
TORSDOF 7
ENDMDL
