MODEL 1
REMARK VINA RESULT:      -5.8      0.000      0.000
REMARK  4 active torsions:
REMARK  status: ('A' for Active; 'I' for Inactive)
REMARK    1  A    between atoms: C_8  and  N_2 
REMARK    2  A    between atoms: C_7  and  O_14 
REMARK    3  A    between atoms: C_15  and  C_8 
REMARK    4  A    between atoms: O_14  and  C_15 
ROOT
ATOM      1  C   UNL d   1     -41.342-122.380 -52.455  0.00  0.00     0.108 C 
ENDROOT
BRANCH   1   2
ATOM      2  N   UNL d   1     -41.380-122.785 -53.180  0.00  0.00    -0.285 N 
ATOM      3  C   UNL d   1     -41.123-123.607 -53.351  0.00  0.00     0.183 A 
ATOM      4  N   UNL d   1     -41.298-123.727 -54.206  0.00  0.00    -0.224 NA
ATOM      5  C   UNL d   1     -41.634-123.042 -54.539  0.00  0.00     0.099 A 
ATOM      6  C   UNL d   1     -41.698-122.439 -53.929  0.00  0.00     0.083 A 
ATOM      7  C   UNL d   1     -41.877-122.885 -55.265  0.00  0.00     0.021 A 
ATOM      8  C   UNL d   1     -42.001-121.727 -54.094  0.00  0.00     0.019 A 
ATOM      9  C   UNL d   1     -42.266-121.568 -54.901  0.00  0.00     0.002 A 
ATOM     10  C   UNL d   1     -42.205-122.145 -55.486  0.00  0.00     0.002 A 
ENDBRANCH   1   2
BRANCH   1  11
ATOM     11  C   UNL d   1     -41.427-122.770 -51.748  0.00  0.00     0.142 C 
BRANCH  11  12
ATOM     12  O   UNL d   1     -41.321-122.359 -51.039  0.00  0.00    -0.304 OA
BRANCH  12  13
ATOM     13  C   UNL d   1     -41.620-122.662 -50.325  0.00  0.00     0.100 A 
ATOM     14  C   UNL d   1     -41.124-123.099 -49.832  0.00  0.00     0.026 A 
ATOM     15  C   UNL d   1     -41.386-123.411 -49.125  0.00  0.00     0.013 A 
ATOM     16  C   UNL d   1     -42.185-123.291 -48.877  0.00  0.00     0.058 A 
ATOM     17  C   UNL d   1     -42.682-122.844 -49.385  0.00  0.00     0.013 A 
ATOM     18 CL   UNL d   1     -42.448-123.617 -48.142  0.00  0.00    -0.082 Cl
ATOM     19  C   UNL d   1     -42.402-122.539 -50.092  0.00  0.00     0.026 A 
ENDBRANCH  12  13
ENDBRANCH  11  12
ENDBRANCH   1  11
TORSDOF 4
ENDMDL
MODEL 2
REMARK VINA RESULT:      -4.6      2.220      5.078
REMARK  4 active torsions:
REMARK  status: ('A' for Active; 'I' for Inactive)
REMARK    1  A    between atoms: C_8  and  N_2 
REMARK    2  A    between atoms: C_7  and  O_14 
REMARK    3  A    between atoms: C_15  and  C_8 
REMARK    4  A    between atoms: O_14  and  C_15 
ROOT
ATOM      1  C   UNL d   1     -41.570-123.386 -50.375  0.00  0.00     0.108 C 
ENDROOT
BRANCH   1   2
ATOM      2  N   UNL d   1     -42.176-123.530 -49.825  0.00  0.00    -0.285 N 
ATOM      3  C   UNL d   1     -43.016-123.723 -49.989  0.00  0.00     0.183 A 
ATOM      4  N   UNL d   1     -43.388-123.816 -49.196  0.00  0.00    -0.224 NA
ATOM      5  C   UNL d   1     -42.830-123.692 -48.592  0.00  0.00     0.099 A 
ATOM      6  C   UNL d   1     -42.068-123.513 -48.948  0.00  0.00     0.083 A 
ATOM      7  C   UNL d   1     -42.897-123.714 -47.812  0.00  0.00     0.021 A 
ATOM      8  C   UNL d   1     -41.434-123.370 -48.497  0.00  0.00     0.019 A 
ATOM      9  C   UNL d   1     -41.523-123.398 -47.637  0.00  0.00     0.002 A 
ATOM     10  C   UNL d   1     -42.253-123.569 -47.296  0.00  0.00     0.002 A 
ENDBRANCH   1   2
BRANCH   1  11
ATOM     11  C   UNL d   1     -41.732-123.262 -51.161  0.00  0.00     0.142 C 
BRANCH  11  12
ATOM     12  O   UNL d   1     -41.123-123.044 -51.676  0.00  0.00    -0.304 OA
BRANCH  12  13
ATOM     13  C   UNL d   1     -41.263-122.973 -52.492  0.00  0.00     0.100 A 
ATOM     14  C   UNL d   1     -41.507-122.249 -52.799  0.00  0.00     0.026 A 
ATOM     15  C   UNL d   1     -41.653-122.146 -53.596  0.00  0.00     0.013 A 
ATOM     16  C   UNL d   1     -41.556-122.791 -54.133  0.00  0.00     0.058 A 
ATOM     17  C   UNL d   1     -41.307-123.525 -53.810  0.00  0.00     0.013 A 
ATOM     18 CL   UNL d   1     -41.709-122.676 -54.956  0.00  0.00    -0.082 Cl
ATOM     19  C   UNL d   1     -41.165-123.610 -53.007  0.00  0.00     0.026 A 
ENDBRANCH  12  13
ENDBRANCH  11  12
ENDBRANCH   1  11
TORSDOF 4
ENDMDL
