MODEL 1
REMARK VINA RESULT:      33.1      0.000      0.000
REMARK  6 active torsions:
REMARK  status: ('A' for Active; 'I' for Inactive)
REMARK    1  A    between atoms: C_9  and  C_1 
REMARK    2  A    between atoms: N_4  and  C_2 
REMARK       I    between atoms: C_5  and  N_4 
REMARK    3  A    between atoms: C_7  and  C_5 
REMARK    4  A    between atoms: O_13  and  C_9 
REMARK    5  A    between atoms: O_16  and  C_11 
REMARK    6  A    between atoms: C_19  and  O_13 
ROOT
ATOM      1  C   UNL d   1      13.764  14.095  -3.746  0.00  0.00     0.181 A 
ATOM      2  C   UNL d   1      13.527  13.360  -3.438  0.00  0.00     0.115 A 
ATOM      3  O   UNL d   1      13.651  14.061  -4.566  0.00  0.00    -0.300 OA
ATOM      4  C   UNL d   1      13.276  12.892  -4.060  0.00  0.00     0.043 A 
ATOM      5  C   UNL d   1      13.352  13.323  -4.761  0.00  0.00     0.102 A 
ATOM      6  C   UNL d   1      12.985  12.120  -4.082  0.00  0.00     0.004 A 
ATOM      7  C   UNL d   1      13.138  12.985  -5.475  0.00  0.00     0.025 A 
ATOM      8  C   UNL d   1      12.770  11.780  -4.806  0.00  0.00     0.000 A 
ATOM      9  C   UNL d   1      12.849  12.219  -5.503  0.00  0.00     0.002 A 
ENDROOT
BRANCH   2  10
ATOM     10  N   UNL d   1      13.544  13.144  -2.635  0.00  0.00    -0.206 NA
ATOM     11  C   UNL d   1      13.870  12.420  -2.413  0.00  0.00     0.281 C 
ATOM     12  O   UNL d   1      14.178  11.911  -2.982  0.00  0.00    -0.265 OA
BRANCH  11  13
ATOM     13  C   UNL d   1      13.886  12.208  -1.619  0.00  0.00     0.080 A 
ATOM     14  C   UNL d   1      14.610  12.206  -1.201  0.00  0.00     0.099 A 
ATOM     15  C   UNL d   1      14.614  11.993  -0.411  0.00  0.00     0.024 A 
ATOM     16  C   UNL d   1      13.905  11.781  -0.032  0.00  0.00     0.002 A 
ATOM     17  C   UNL d   1      13.202  11.785  -0.450  0.00  0.00     0.000 A 
ATOM     18  C   UNL d   1      13.189  11.998  -1.241  0.00  0.00     0.007 A 
BRANCH  14  19
ATOM     19  O   UNL d   1      15.300  12.418  -1.589  0.00  0.00    -0.328 OA
ATOM     20  C   UNL d   1      16.010  12.387  -1.170  0.00  0.00     0.181 C 
ENDBRANCH  14  19
ENDBRANCH  11  13
ENDBRANCH   2  10
BRANCH   1  21
ATOM     21  C   UNL d   1      14.056  14.736  -3.315  0.00  0.00     0.325 C 
ATOM     22  O   UNL d   1      14.015  14.730  -2.488  0.00  0.00    -0.257 OA
BRANCH  21  23
ATOM     23  O   UNL d   1      14.384  15.374  -3.708  0.00  0.00    -0.269 OA
BRANCH  23  24
ATOM     24  C   UNL d   1      14.839  15.930  -3.290  0.00  0.00     0.126 C 
ATOM     25  C   UNL d   1      14.647  16.737  -3.339  0.00  0.00     0.029 C 
ENDBRANCH  23  24
ENDBRANCH  21  23
ENDBRANCH   1  21
TORSDOF 6
ENDMDL
