MODEL 1
REMARK VINA RESULT:      45.6      0.000      0.000
REMARK  2 active torsions:
REMARK  status: ('A' for Active; 'I' for Inactive)
REMARK    1  A    between atoms: C_10  and  N_1 
REMARK    2  A    between atoms: N_11  and  C_10 
ROOT
ATOM      1  N   UNL d   1      14.011  13.170  -1.934  0.00  0.00    -0.175 N 
ATOM      2  N   UNL d   1      14.018  14.105  -2.570  0.00  0.00    -0.161 NA
ATOM      3  C   UNL d   1      13.716  13.933  -3.315  0.00  0.00     0.102 A 
ATOM      4  C   UNL d   1      13.466  13.171  -3.496  0.00  0.00     0.024 A 
ATOM      5  C   UNL d   1      13.723  12.482  -2.276  0.00  0.00     0.282 A 
ATOM      6  C   UNL d   1      13.452  12.482  -3.054  0.00  0.00     0.059 A 
ATOM      7  C   UNL d   1      13.192  13.172  -4.283  0.00  0.00     0.002 A 
ATOM      8  C   UNL d   1      13.598  14.401  -3.982  0.00  0.00     0.019 A 
ATOM      9  C   UNL d   1      13.276  13.934  -4.579  0.00  0.00     0.002 A 
ATOM     10  O   UNL d   1      13.709  11.780  -1.822  0.00  0.00    -0.265 OA
ATOM     11  C   UNL d   1      13.162  11.781  -3.391  0.00  0.00     0.005 A 
ATOM     12  C   UNL d   1      12.907  12.483  -4.616  0.00  0.00     0.000 A 
ATOM     13  C   UNL d   1      13.744  15.201  -4.127  0.00  0.00     0.002 A 
ATOM     14  C   UNL d   1      13.102  14.266  -5.311  0.00  0.00     0.000 A 
ATOM     15  C   UNL d   1      12.888  11.781  -4.178  0.00  0.00     0.000 A 
ATOM     16  C   UNL d   1      13.567  15.533  -4.867  0.00  0.00     0.000 A 
ATOM     17  C   UNL d   1      13.247  15.066  -5.456  0.00  0.00     0.000 A 
ENDROOT
BRANCH   1  18
ATOM     18  C   UNL d   1      14.236  12.985  -1.157  0.00  0.00     0.188 C 
BRANCH  18  19
ATOM     19  N   UNL d   1      14.817  13.439  -0.779  0.00  0.00    -0.283 N 
ATOM     20  C   UNL d   1      15.600  13.192  -0.791  0.00  0.00     0.108 A 
ATOM     21  C   UNL d   1      16.182  13.644  -0.413  0.00  0.00     0.142 A 
ATOM     22  O   UNL d   1      15.968  14.345  -0.025  0.00  0.00    -0.300 OA
ATOM     23  C   UNL d   1      15.180  14.591  -0.015  0.00  0.00     0.142 A 
ATOM     24  C   UNL d   1      14.595  14.130  -0.398  0.00  0.00     0.108 A 
ENDBRANCH  18  19
ENDBRANCH   1  18
TORSDOF 2
ENDMDL
