MODEL 1
REMARK VINA RESULT:      50.5      0.000      0.000
REMARK  5 active torsions:
REMARK  status: ('A' for Active; 'I' for Inactive)
REMARK    1  A    between atoms: N_2  and  S_1 
REMARK    2  A    between atoms: C_8  and  S_1 
REMARK    3  A    between atoms: S_7  and  C_3 
REMARK    4  A    between atoms: C_11  and  S_7 
REMARK    5  A    between atoms: C_12  and  C_11 
ROOT
ATOM      1  N   UNL d   1     -55.122-100.547 -44.102  0.00  0.00    -0.208 N 
ATOM      2  C   UNL d   1     -55.634-100.197 -44.658  0.00  0.00     0.189 A 
ATOM      3  N   UNL d   1     -55.679-100.697 -45.319  0.00  0.00    -0.219 NA
ATOM      4  C   UNL d   1     -54.851-101.268 -44.422  0.00  0.00     0.114 A 
ATOM      5  C   UNL d   1     -55.195-101.356 -45.168  0.00  0.00     0.121 A 
ENDROOT
BRANCH   1   6
ATOM      6  S   UNL d   1     -54.922-100.230 -43.361  0.00  0.00     0.273 S 
ATOM      7  O   UNL d   1     -54.952 -99.488 -43.709  0.00  0.00    -0.200 OA
ATOM      8  O   UNL d   1     -54.737 -99.697 -42.752  0.00  0.00    -0.200 OA
BRANCH   6   9
ATOM      9  C   UNL d   1     -54.887-100.971 -42.991  0.00  0.00     0.104 A 
ATOM     10  C   UNL d   1     -54.752-101.012 -42.183  0.00  0.00     0.013 A 
ATOM     11  C   UNL d   1     -54.717-101.749 -41.817  0.00  0.00     0.001 A 
ATOM     12  C   UNL d   1     -54.817-102.437 -42.260  0.00  0.00     0.000 A 
ATOM     13  C   UNL d   1     -54.952-102.389 -43.069  0.00  0.00     0.001 A 
ATOM     14  C   UNL d   1     -54.986-101.647 -43.435  0.00  0.00     0.013 A 
ENDBRANCH   6   9
ENDBRANCH   1   6
BRANCH   2  15
ATOM     15  S   UNL d   1     -56.032 -99.469 -44.567  0.00  0.00    -0.049 SA
BRANCH  15  16
ATOM     16  C   UNL d   1     -56.729 -99.326 -44.989  0.00  0.00     0.038 C 
BRANCH  16  17
ATOM     17  C   UNL d   1     -57.441 -99.197 -44.578  0.00  0.00     0.007 A 
ATOM     18  C   UNL d   1     -58.173 -99.356 -44.941  0.00  0.00     0.001 A 
ATOM     19  C   UNL d   1     -58.878 -99.230 -44.540  0.00  0.00     0.000 A 
ATOM     20  C   UNL d   1     -58.861 -98.942 -43.766  0.00  0.00     0.000 A 
ATOM     21  C   UNL d   1     -58.132 -98.783 -43.399  0.00  0.00     0.000 A 
ATOM     22  C   UNL d   1     -59.564 -98.813 -43.356  0.00  0.00     0.000 C 
ATOM     23  C   UNL d   1     -57.426 -98.911 -43.806  0.00  0.00     0.001 A 
ENDBRANCH  16  17
ENDBRANCH  15  16
ENDBRANCH   2  15
TORSDOF 5
ENDMDL
