MODEL 1
REMARK VINA RESULT:      71.7      0.000      0.000
REMARK  5 active torsions:
REMARK  status: ('A' for Active; 'I' for Inactive)
REMARK    1  A    between atoms: C_12  and  C_3 
REMARK    2  A    between atoms: C_13  and  N_5 
REMARK    3  A    between atoms: C_11  and  C_6 
REMARK    4  A    between atoms: O_24  and  C_12 
REMARK    5  A    between atoms: C_14  and  C_13 
ROOT
ATOM      1  C   UNL d   1     -57.299 -98.904 -44.726  0.00  0.00     0.080 A 
ATOM      2  C   UNL d   1     -56.777 -98.953 -44.077  0.00  0.00     0.267 A 
ATOM      3  C   UNL d   1     -58.627 -98.838 -45.237  0.00  0.00     0.106 A 
ATOM      4  C   UNL d   1     -56.996 -98.873 -45.489  0.00  0.00     0.108 A 
ATOM      5  N   UNL d   1     -55.955 -98.970 -44.203  0.00  0.00    -0.271 N 
ATOM      6  C   UNL d   1     -58.115 -98.886 -44.601  0.00  0.00     0.015 A 
ATOM      7  C   UNL d   1     -58.325 -98.807 -46.009  0.00  0.00     0.208 A 
ATOM      8  O   UNL d   1     -57.510 -98.824 -46.135  0.00  0.00    -0.288 OA
ATOM      9  C   UNL d   1     -56.182 -98.889 -45.624  0.00  0.00     0.043 A 
ATOM     10  C   UNL d   1     -55.659 -98.938 -44.987  0.00  0.00     0.069 A 
ATOM     11  O   UNL d   1     -57.078 -98.984 -43.300  0.00  0.00    -0.267 OA
ATOM     12  N   UNL d   1     -58.842 -98.758 -46.652  0.00  0.00    -0.121 N 
ATOM     13  C   UNL d   1     -54.834 -98.955 -45.119  0.00  0.00     0.019 C 
ENDROOT
BRANCH   6  14
ATOM     14  C   UNL d   1     -58.411 -98.918 -43.832  0.00  0.00     0.001 A 
ATOM     15  C   UNL d   1     -57.899 -98.824 -43.191  0.00  0.00     0.011 A 
ATOM     16  C   UNL d   1     -58.191 -98.855 -42.422  0.00  0.00     0.058 A 
ATOM     17 CL   UNL d   1     -57.673 -98.760 -41.783  0.00  0.00    -0.082 Cl
ATOM     18  C   UNL d   1     -59.002 -98.980 -42.293  0.00  0.00     0.011 A 
ATOM     19  C   UNL d   1     -59.514 -99.073 -42.933  0.00  0.00     0.001 A 
ATOM     20  C   UNL d   1     -59.218 -99.042 -43.704  0.00  0.00     0.000 A 
ENDBRANCH   6  14
BRANCH   3  21
ATOM     21  C   UNL d   1     -59.441 -98.821 -45.112  0.00  0.00     0.299 C 
ATOM     22  O   UNL d   1     -59.743 -98.788 -44.348  0.00  0.00    -0.259 OA
BRANCH  21  23
ATOM     23  O   UNL d   1     -59.960 -98.836 -45.755  0.00  0.00    -0.296 OA
ATOM     24  C   UNL d   1     -59.831 -99.357 -46.389  0.00  0.00     0.185 C 
ENDBRANCH  21  23
ENDBRANCH   3  21
BRANCH   5  25
ATOM     25  C   UNL d   1     -55.438 -99.019 -43.560  0.00  0.00     0.108 C 
BRANCH  25  26
ATOM     26  C   UNL d   1     -55.188 -99.756 -43.286  0.00  0.00     0.118 A 
ATOM     27  O   UNL d   1     -55.057 -99.964 -42.495  0.00  0.00    -0.304 OA
ATOM     28  C   UNL d   1     -54.813-100.751 -42.471  0.00  0.00     0.123 A 
ATOM     29  C   UNL d   1     -54.792-101.033 -43.246  0.00  0.00     0.029 A 
ATOM     30  C   UNL d   1     -55.024-100.418 -43.755  0.00  0.00     0.028 A 
ENDBRANCH  25  26
ENDBRANCH   5  25
TORSDOF 5
ENDMDL
