MODEL 1
REMARK VINA RESULT:      -8.2      0.000      0.000
REMARK  3 active torsions:
REMARK  status: ('A' for Active; 'I' for Inactive)
REMARK    1  A    between atoms: N_2  and  S_1 
REMARK    2  A    between atoms: C_3  and  S_1 
REMARK    3  A    between atoms: C_4  and  N_2 
ROOT
ATOM      1  S   UNL d   1     -48.321  13.231  22.089  0.00  0.00     0.287 S 
ATOM      2  O   UNL d   1     -47.651  12.920  21.713  0.00  0.00    -0.198 OA
ATOM      3  O   UNL d   1     -48.757  13.121  21.398  0.00  0.00    -0.198 OA
ENDROOT
BRANCH   1   4
ATOM      4  N   UNL d   1     -47.880  13.338  22.777  0.00  0.00    -0.139 NA
BRANCH   4   5
ATOM      5  C   UNL d   1     -47.130  13.006  22.853  0.00  0.00     0.175 A 
ATOM      6  N   UNL d   1     -47.026  12.293  23.246  0.00  0.00    -0.226 NA
ATOM      7  C   UNL d   1     -46.309  12.001  23.304  0.00  0.00     0.083 A 
ATOM      8  C   UNL d   1     -46.170  11.280  23.696  0.00  0.00     0.021 C 
ATOM      9  C   UNL d   1     -45.656  12.389  22.981  0.00  0.00     0.019 A 
ATOM     10  C   UNL d   1     -45.766  13.042  22.623  0.00  0.00     0.005 A 
ATOM     11  C   UNL d   1     -46.478  13.395  22.530  0.00  0.00     0.040 A 
ENDBRANCH   4   5
ENDBRANCH   1   4
BRANCH   1  12
ATOM     12  C   UNL d   1     -48.983  13.536  22.456  0.00  0.00     0.105 A 
ATOM     13  C   UNL d   1     -49.049  14.349  22.582  0.00  0.00     0.013 A 
ATOM     14  C   UNL d   1     -49.719  14.654  22.953  0.00  0.00     0.001 A 
ATOM     15  C   UNL d   1     -49.785  15.462  23.078  0.00  0.00     0.000 A 
ATOM     16  C   UNL d   1     -50.323  14.149  23.198  0.00  0.00     0.000 A 
ATOM     17  C   UNL d   1     -50.456  15.774  23.450  0.00  0.00     0.000 A 
ATOM     18  C   UNL d   1     -51.063  15.262  23.697  0.00  0.00     0.000 A 
ATOM     19  C   UNL d   1     -50.997  14.454  23.571  0.00  0.00     0.000 A 
ATOM     20  C   UNL d   1     -50.256  13.336  23.072  0.00  0.00     0.001 A 
ATOM     21  C   UNL d   1     -49.586  13.032  22.701  0.00  0.00     0.013 A 
ENDBRANCH   1  12
TORSDOF 3
ENDMDL
MODEL 2
REMARK VINA RESULT:      -7.8      0.883      4.170
REMARK  3 active torsions:
REMARK  status: ('A' for Active; 'I' for Inactive)
REMARK    1  A    between atoms: N_2  and  S_1 
REMARK    2  A    between atoms: C_3  and  S_1 
REMARK    3  A    between atoms: C_4  and  N_2 
ROOT
ATOM      1  S   UNL d   1     -48.857  13.187  22.328  0.00  0.00     0.287 S 
ATOM      2  O   UNL d   1     -49.598  13.463  22.079  0.00  0.00    -0.198 OA
ATOM      3  O   UNL d   1     -48.704  12.915  21.565  0.00  0.00    -0.198 OA
ENDROOT
BRANCH   1   4
ATOM      4  N   UNL d   1     -49.016  13.460  23.089  0.00  0.00    -0.139 NA
BRANCH   4   5
ATOM      5  C   UNL d   1     -49.694  13.901  23.245  0.00  0.00     0.175 A 
ATOM      6  N   UNL d   1     -49.645  14.709  23.385  0.00  0.00    -0.226 NA
ATOM      7  C   UNL d   1     -50.298  15.103  23.530  0.00  0.00     0.083 A 
ATOM      8  C   UNL d   1     -50.282  15.922  23.675  0.00  0.00     0.021 C 
ATOM      9  C   UNL d   1     -51.033  14.729  23.546  0.00  0.00     0.019 A 
ATOM     10  C   UNL d   1     -51.064  13.987  23.417  0.00  0.00     0.005 A 
ATOM     11  C   UNL d   1     -50.429  13.527  23.262  0.00  0.00     0.040 A 
ENDBRANCH   4   5
ENDBRANCH   1   4
BRANCH   1  12
ATOM     12  C   UNL d   1     -48.128  12.913  22.570  0.00  0.00     0.105 A 
ATOM     13  C   UNL d   1     -48.052  12.152  22.879  0.00  0.00     0.013 A 
ATOM     14  C   UNL d   1     -47.314  11.878  23.123  0.00  0.00     0.001 A 
ATOM     15  C   UNL d   1     -47.239  11.122  23.431  0.00  0.00     0.000 A 
ATOM     16  C   UNL d   1     -46.650  12.364  23.057  0.00  0.00     0.000 A 
ATOM     17  C   UNL d   1     -46.499  10.842  23.676  0.00  0.00     0.000 A 
ATOM     18  C   UNL d   1     -45.832  11.334  23.609  0.00  0.00     0.000 A 
ATOM     19  C   UNL d   1     -45.907  12.090  23.301  0.00  0.00     0.000 A 
ATOM     20  C   UNL d   1     -46.726  13.125  22.747  0.00  0.00     0.001 A 
ATOM     21  C   UNL d   1     -47.465  13.397  22.504  0.00  0.00     0.013 A 
ENDBRANCH   1  12
TORSDOF 3
ENDMDL
MODEL 3
REMARK VINA RESULT:      -7.4      8.601     10.372
REMARK  3 active torsions:
REMARK  status: ('A' for Active; 'I' for Inactive)
REMARK    1  A    between atoms: N_2  and  S_1 
REMARK    2  A    between atoms: C_3  and  S_1 
REMARK    3  A    between atoms: C_4  and  N_2 
ROOT
ATOM      1  S   UNL d   1     -40.552  14.386  18.724  0.00  0.00     0.287 S 
ATOM      2  O   UNL d   1     -41.032  14.401  19.400  0.00  0.00    -0.198 OA
ATOM      3  O   UNL d   1     -41.045  13.816  18.390  0.00  0.00    -0.198 OA
ENDROOT
BRANCH   1   4
ATOM      4  N   UNL d   1     -40.063  14.956  19.064  0.00  0.00    -0.139 NA
BRANCH   4   5
ATOM      5  C   UNL d   1     -40.157  15.176  19.852  0.00  0.00     0.175 A 
ATOM      6  N   UNL d   1     -39.685  14.846  20.438  0.00  0.00    -0.226 NA
ATOM      7  C   UNL d   1     -39.793  15.069  21.173  0.00  0.00     0.083 A 
ATOM      8  C   UNL d   1     -39.331  14.754  21.790  0.00  0.00     0.021 C 
ATOM      9  C   UNL d   1     -40.367  15.627  21.376  0.00  0.00     0.019 A 
ATOM     10  C   UNL d   1     -40.793  15.922  20.829  0.00  0.00     0.005 A 
ATOM     11  C   UNL d   1     -40.730  15.733  20.054  0.00  0.00     0.040 A 
ENDBRANCH   4   5
ENDBRANCH   1   4
BRANCH   1  12
ATOM     12  C   UNL d   1     -40.082  14.368  18.058  0.00  0.00     0.105 A 
ATOM     13  C   UNL d   1     -39.503  13.786  17.974  0.00  0.00     0.013 A 
ATOM     14  C   UNL d   1     -39.029  13.770  17.300  0.00  0.00     0.001 A 
ATOM     15  C   UNL d   1     -38.454  13.192  17.216  0.00  0.00     0.000 A 
ATOM     16  C   UNL d   1     -39.133  14.336  16.708  0.00  0.00     0.000 A 
ATOM     17  C   UNL d   1     -37.976  13.172  16.540  0.00  0.00     0.000 A 
ATOM     18  C   UNL d   1     -38.083  13.744  15.946  0.00  0.00     0.000 A 
ATOM     19  C   UNL d   1     -38.659  14.322  16.029  0.00  0.00     0.000 A 
ATOM     20  C   UNL d   1     -39.712  14.918  16.792  0.00  0.00     0.001 A 
ATOM     21  C   UNL d   1     -40.185  14.932  17.467  0.00  0.00     0.013 A 
ENDBRANCH   1  12
TORSDOF 3
ENDMDL
MODEL 4
REMARK VINA RESULT:      -7.1      1.522      1.742
REMARK  3 active torsions:
REMARK  status: ('A' for Active; 'I' for Inactive)
REMARK    1  A    between atoms: N_2  and  S_1 
REMARK    2  A    between atoms: C_3  and  S_1 
REMARK    3  A    between atoms: C_4  and  N_2 
ROOT
ATOM      1  S   UNL d   1     -47.574  13.873  22.785  0.00  0.00     0.287 S 
ATOM      2  O   UNL d   1     -46.803  14.123  22.959  0.00  0.00    -0.198 OA
ATOM      3  O   UNL d   1     -47.875  14.481  23.254  0.00  0.00    -0.198 OA
ENDROOT
BRANCH   1   4
ATOM      4  N   UNL d   1     -47.267  13.267  22.318  0.00  0.00    -0.139 NA
BRANCH   4   5
ATOM      5  C   UNL d   1     -46.493  13.008  22.420  0.00  0.00     0.175 A 
ATOM      6  N   UNL d   1     -46.332  12.325  22.848  0.00  0.00    -0.226 NA
ATOM      7  C   UNL d   1     -45.593  12.101  22.929  0.00  0.00     0.083 A 
ATOM      8  C   UNL d   1     -45.398  11.414  23.357  0.00  0.00     0.021 C 
ATOM      9  C   UNL d   1     -44.972  12.532  22.599  0.00  0.00     0.019 A 
ATOM     10  C   UNL d   1     -45.133  13.156  22.209  0.00  0.00     0.005 A 
ATOM     11  C   UNL d   1     -45.872  13.438  22.089  0.00  0.00     0.040 A 
ENDBRANCH   4   5
ENDBRANCH   1   4
BRANCH   1  12
ATOM     12  C   UNL d   1     -48.334  13.629  22.617  0.00  0.00     0.105 A 
ATOM     13  C   UNL d   1     -48.755  13.177  23.163  0.00  0.00     0.013 A 
ATOM     14  C   UNL d   1     -49.523  12.933  22.990  0.00  0.00     0.001 A 
ATOM     15  C   UNL d   1     -49.942  12.483  23.533  0.00  0.00     0.000 A 
ATOM     16  C   UNL d   1     -49.871  13.139  22.271  0.00  0.00     0.000 A 
ATOM     17  C   UNL d   1     -50.714  12.235  23.364  0.00  0.00     0.000 A 
ATOM     18  C   UNL d   1     -51.062  12.445  22.638  0.00  0.00     0.000 A 
ATOM     19  C   UNL d   1     -50.643  12.895  22.095  0.00  0.00     0.000 A 
ATOM     20  C   UNL d   1     -49.450  13.592  21.725  0.00  0.00     0.001 A 
ATOM     21  C   UNL d   1     -48.682  13.835  21.900  0.00  0.00     0.013 A 
ENDBRANCH   1  12
TORSDOF 3
ENDMDL
MODEL 5
REMARK VINA RESULT:      -6.6      8.542      9.615
REMARK  3 active torsions:
REMARK  status: ('A' for Active; 'I' for Inactive)
REMARK    1  A    between atoms: N_2  and  S_1 
REMARK    2  A    between atoms: C_3  and  S_1 
REMARK    3  A    between atoms: C_4  and  N_2 
ROOT
ATOM      1  S   UNL d   1     -40.592  14.435  19.383  0.00  0.00     0.287 S 
ATOM      2  O   UNL d   1     -40.815  14.060  18.679  0.00  0.00    -0.198 OA
ATOM      3  O   UNL d   1     -40.942  13.826  19.816  0.00  0.00    -0.198 OA
ENDROOT
BRANCH   1   4
ATOM      4  N   UNL d   1     -40.243  15.040  18.946  0.00  0.00    -0.139 NA
BRANCH   4   5
ATOM      5  C   UNL d   1     -40.300  15.053  18.125  0.00  0.00     0.175 A 
ATOM      6  N   UNL d   1     -40.886  15.492  17.752  0.00  0.00    -0.226 NA
ATOM      7  C   UNL d   1     -40.919  15.487  16.976  0.00  0.00     0.083 A 
ATOM      8  C   UNL d   1     -41.501  15.921  16.569  0.00  0.00     0.021 C 
ATOM      9  C   UNL d   1     -40.382  15.054  16.523  0.00  0.00     0.019 A 
ATOM     10  C   UNL d   1     -39.849  14.656  16.877  0.00  0.00     0.005 A 
ATOM     11  C   UNL d   1     -39.763  14.620  17.672  0.00  0.00     0.040 A 
ENDBRANCH   4   5
ENDBRANCH   1   4
BRANCH   1  12
ATOM     12  C   UNL d   1     -40.373  14.801  20.079  0.00  0.00     0.105 A 
ATOM     13  C   UNL d   1     -39.665  14.598  20.450  0.00  0.00     0.013 A 
ATOM     14  C   UNL d   1     -39.447  14.969  21.153  0.00  0.00     0.001 A 
ATOM     15  C   UNL d   1     -38.743  14.767  21.522  0.00  0.00     0.000 A 
ATOM     16  C   UNL d   1     -39.937  15.544  21.486  0.00  0.00     0.000 A 
ATOM     17  C   UNL d   1     -38.520  15.138  22.228  0.00  0.00     0.000 A 
ATOM     18  C   UNL d   1     -39.015  15.717  22.561  0.00  0.00     0.000 A 
ATOM     19  C   UNL d   1     -39.719  15.918  22.192  0.00  0.00     0.000 A 
ATOM     20  C   UNL d   1     -40.645  15.747  21.115  0.00  0.00     0.001 A 
ATOM     21  C   UNL d   1     -40.861  15.374  20.412  0.00  0.00     0.013 A 
ENDBRANCH   1  12
TORSDOF 3
ENDMDL
MODEL 6
REMARK VINA RESULT:      -6.4      8.661      9.374
REMARK  3 active torsions:
REMARK  status: ('A' for Active; 'I' for Inactive)
REMARK    1  A    between atoms: N_2  and  S_1 
REMARK    2  A    between atoms: C_3  and  S_1 
REMARK    3  A    between atoms: C_4  and  N_2 
ROOT
ATOM      1  S   UNL d   1     -40.521  14.430  20.721  0.00  0.00     0.287 S 
ATOM      2  O   UNL d   1     -40.508  14.077  21.471  0.00  0.00    -0.198 OA
ATOM      3  O   UNL d   1     -41.318  14.231  20.644  0.00  0.00    -0.198 OA
ENDROOT
BRANCH   1   4
ATOM      4  N   UNL d   1     -39.725  14.626  20.804  0.00  0.00    -0.139 NA
BRANCH   4   5
ATOM      5  C   UNL d   1     -39.330  14.492  21.513  0.00  0.00     0.175 A 
ATOM      6  N   UNL d   1     -39.203  15.106  22.045  0.00  0.00    -0.226 NA
ATOM      7  C   UNL d   1     -38.828  14.954  22.707  0.00  0.00     0.083 A 
ATOM      8  C   UNL d   1     -38.684  15.554  23.266  0.00  0.00     0.021 C 
ATOM      9  C   UNL d   1     -38.557  14.196  22.887  0.00  0.00     0.019 A 
ATOM     10  C   UNL d   1     -38.680  13.642  22.391  0.00  0.00     0.005 A 
ATOM     11  C   UNL d   1     -39.059  13.734  21.693  0.00  0.00     0.040 A 
ENDBRANCH   4   5
ENDBRANCH   1   4
BRANCH   1  12
ATOM     12  C   UNL d   1     -40.538  14.776  19.983  0.00  0.00     0.105 A 
ATOM     13  C   UNL d   1     -40.344  14.335  19.313  0.00  0.00     0.013 A 
ATOM     14  C   UNL d   1     -40.362  14.687  18.568  0.00  0.00     0.001 A 
ATOM     15  C   UNL d   1     -40.170  14.248  17.903  0.00  0.00     0.000 A 
ATOM     16  C   UNL d   1     -40.574  15.481  18.491  0.00  0.00     0.000 A 
ATOM     17  C   UNL d   1     -40.186  14.598  17.152  0.00  0.00     0.000 A 
ATOM     18  C   UNL d   1     -40.400  15.398  17.078  0.00  0.00     0.000 A 
ATOM     19  C   UNL d   1     -40.593  15.837  17.743  0.00  0.00     0.000 A 
ATOM     20  C   UNL d   1     -40.768  15.922  19.161  0.00  0.00     0.001 A 
ATOM     21  C   UNL d   1     -40.750  15.568  19.905  0.00  0.00     0.013 A 
ENDBRANCH   1  12
TORSDOF 3
ENDMDL
