MODEL 1
REMARK VINA RESULT:      -3.1      0.000      0.000
REMARK  7 active torsions:
REMARK  status: ('A' for Active; 'I' for Inactive)
REMARK    1  A    between atoms: C_2  and  S_1 
REMARK    2  A    between atoms: N_3  and  S_1 
REMARK    3  A    between atoms: C_11  and  N_3 
REMARK    4  A    between atoms: C_4  and  C_7 
REMARK       I    between atoms: N_12  and  C_4 
REMARK    5  A    between atoms: C_22  and  N_12 
REMARK    6  A    between atoms: O_20  and  C_24 
REMARK    7  A    between atoms: C_24  and  C_22 
ROOT
ATOM      1  C   UNL d   1      33.148  19.960 -22.686  0.00  0.00     0.058 A 
ATOM      2  C   UNL d   1      33.208  18.436 -23.307  0.00  0.00     0.094 A 
ATOM      3  C   UNL d   1      33.118  19.307 -22.181  0.00  0.00     0.006 A 
ATOM      4  C   UNL d   1      33.207  19.850 -23.502  0.00  0.00     0.006 A 
ATOM      5  C   UNL d   1      33.148  18.547 -22.491  0.00  0.00     0.020 A 
ATOM      6  C   UNL d   1      33.238  19.088 -23.812  0.00  0.00     0.020 A 
ENDROOT
BRANCH   2   7
ATOM      7  N   UNL d   1      33.238  17.676 -23.617  0.00  0.00    -0.158 NA
BRANCH   7   8
ATOM      8  S   UNL d   1      32.542  17.300 -23.854  0.00  0.00     0.285 S 
ATOM      9  O   UNL d   1      32.380  17.107 -23.069  0.00  0.00    -0.198 OA
ATOM     10  O   UNL d   1      32.709  17.496 -24.637  0.00  0.00    -0.198 OA
BRANCH   8  11
ATOM     11  C   UNL d   1      31.851  16.928 -24.098  0.00  0.00     0.105 A 
ATOM     12  C   UNL d   1      31.834  16.114 -24.216  0.00  0.00     0.012 A 
ATOM     13  C   UNL d   1      31.136  15.749 -24.461  0.00  0.00     0.001 A 
ATOM     14  C   UNL d   1      32.527  15.672 -24.084  0.00  0.00     0.001 C 
ATOM     15  C   UNL d   1      30.458  16.194 -24.588  0.00  0.00     0.000 A 
ATOM     16  C   UNL d   1      30.472  17.011 -24.471  0.00  0.00     0.001 A 
ATOM     17  C   UNL d   1      31.164  17.382 -24.227  0.00  0.00     0.013 A 
ATOM     18  C   UNL d   1      29.780  17.459 -24.602  0.00  0.00     0.000 C 
ENDBRANCH   8  11
ENDBRANCH   7   8
ENDBRANCH   2   7
BRANCH   1  19
ATOM     19  C   UNL d   1      33.117  20.733 -22.377  0.00  0.00     0.279 C 
ATOM     20  O   UNL d   1      33.223  21.384 -22.873  0.00  0.00    -0.265 OA
ATOM     21  N   UNL d   1      32.981  20.842 -21.574  0.00  0.00    -0.204 NA
BRANCH  21  22
ATOM     22  C   UNL d   1      32.951  21.607 -21.266  0.00  0.00     0.128 C 
BRANCH  22  23
ATOM     23  C   UNL d   1      32.851  21.724 -20.456  0.00  0.00     0.137 C 
BRANCH  23  24
ATOM     24  O   UNL d   1      32.499  22.434 -20.174  0.00  0.00    -0.325 OA
ATOM     25  C   UNL d   1      32.836  22.834 -19.542  0.00  0.00     0.182 C 
ENDBRANCH  23  24
ENDBRANCH  22  23
ENDBRANCH  21  22
ENDBRANCH   1  19
TORSDOF 7
ENDMDL
MODEL 2
REMARK VINA RESULT:      -0.9      1.263      1.781
REMARK  7 active torsions:
REMARK  status: ('A' for Active; 'I' for Inactive)
REMARK    1  A    between atoms: C_2  and  S_1 
REMARK    2  A    between atoms: N_3  and  S_1 
REMARK    3  A    between atoms: C_11  and  N_3 
REMARK    4  A    between atoms: C_4  and  C_7 
REMARK       I    between atoms: N_12  and  C_4 
REMARK    5  A    between atoms: C_22  and  N_12 
REMARK    6  A    between atoms: O_20  and  C_24 
REMARK    7  A    between atoms: C_24  and  C_22 
ROOT
ATOM      1  C   UNL d   1      32.657  21.019 -21.577  0.00  0.00     0.058 A 
ATOM      2  C   UNL d   1      33.046  19.591 -22.297  0.00  0.00     0.094 A 
ATOM      3  C   UNL d   1      32.849  21.001 -22.379  0.00  0.00     0.006 A 
ATOM      4  C   UNL d   1      32.659  20.322 -21.134  0.00  0.00     0.006 A 
ATOM      5  C   UNL d   1      33.044  20.288 -22.739  0.00  0.00     0.020 A 
ATOM      6  C   UNL d   1      32.854  19.608 -21.495  0.00  0.00     0.020 A 
ENDROOT
BRANCH   2   7
ATOM      7  N   UNL d   1      33.241  18.878 -22.657  0.00  0.00    -0.158 NA
BRANCH   7   8
ATOM      8  S   UNL d   1      32.731  18.546 -23.215  0.00  0.00     0.285 S 
ATOM      9  O   UNL d   1      32.588  19.295 -23.529  0.00  0.00    -0.198 OA
ATOM     10  O   UNL d   1      32.878  17.800 -22.898  0.00  0.00    -0.198 OA
BRANCH   8  11
ATOM     11  C   UNL d   1      32.225  18.208 -23.768  0.00  0.00     0.105 A 
ATOM     12  C   UNL d   1      32.464  18.111 -24.549  0.00  0.00     0.012 A 
ATOM     13  C   UNL d   1      31.950  17.771 -25.097  0.00  0.00     0.001 A 
ATOM     14  C   UNL d   1      33.227  18.359 -24.772  0.00  0.00     0.001 C 
ATOM     15  C   UNL d   1      31.201  17.529 -24.867  0.00  0.00     0.000 A 
ATOM     16  C   UNL d   1      30.958  17.625 -24.084  0.00  0.00     0.001 A 
ATOM     17  C   UNL d   1      31.465  17.964 -23.531  0.00  0.00     0.013 A 
ATOM     18  C   UNL d   1      30.193  17.377 -23.854  0.00  0.00     0.000 C 
ENDBRANCH   8  11
ENDBRANCH   7   8
ENDBRANCH   2   7
BRANCH   1  19
ATOM     19  C   UNL d   1      32.459  21.739 -21.206  0.00  0.00     0.279 C 
ATOM     20  O   UNL d   1      31.901  22.242 -21.546  0.00  0.00    -0.265 OA
ATOM     21  N   UNL d   1      32.824  21.943 -20.499  0.00  0.00    -0.204 NA
BRANCH  21  22
ATOM     22  C   UNL d   1      32.630  22.655 -20.130  0.00  0.00     0.128 C 
BRANCH  22  23
ATOM     23  C   UNL d   1      33.024  22.886 -19.444  0.00  0.00     0.137 C 
BRANCH  23  24
ATOM     24  O   UNL d   1      32.591  23.217 -18.804  0.00  0.00    -0.325 OA
ATOM     25  C   UNL d   1      32.967  23.365 -18.089  0.00  0.00     0.182 C 
ENDBRANCH  23  24
ENDBRANCH  22  23
ENDBRANCH  21  22
ENDBRANCH   1  19
TORSDOF 7
ENDMDL
MODEL 3
REMARK VINA RESULT:      -0.7      1.979      5.208
REMARK  7 active torsions:
REMARK  status: ('A' for Active; 'I' for Inactive)
REMARK    1  A    between atoms: C_2  and  S_1 
REMARK    2  A    between atoms: N_3  and  S_1 
REMARK    3  A    between atoms: C_11  and  N_3 
REMARK    4  A    between atoms: C_4  and  C_7 
REMARK       I    between atoms: N_12  and  C_4 
REMARK    5  A    between atoms: C_22  and  N_12 
REMARK    6  A    between atoms: O_20  and  C_24 
REMARK    7  A    between atoms: C_24  and  C_22 
ROOT
ATOM      1  C   UNL d   1      30.599  16.356 -23.733  0.00  0.00     0.058 A 
ATOM      2  C   UNL d   1      31.895  17.238 -24.233  0.00  0.00     0.094 A 
ATOM      3  C   UNL d   1      31.363  16.102 -23.554  0.00  0.00     0.006 A 
ATOM      4  C   UNL d   1      30.482  17.051 -24.163  0.00  0.00     0.006 A 
ATOM      5  C   UNL d   1      32.010  16.543 -23.804  0.00  0.00     0.020 A 
ATOM      6  C   UNL d   1      31.131  17.492 -24.413  0.00  0.00     0.020 A 
ENDROOT
BRANCH   2   7
ATOM      7  N   UNL d   1      32.543  17.678 -24.483  0.00  0.00    -0.158 NA
BRANCH   7   8
ATOM      8  S   UNL d   1      32.720  18.394 -24.113  0.00  0.00     0.285 S 
ATOM      9  O   UNL d   1      33.162  17.991 -23.545  0.00  0.00    -0.198 OA
ATOM     10  O   UNL d   1      32.278  18.793 -24.683  0.00  0.00    -0.198 OA
BRANCH   8  11
ATOM     11  C   UNL d   1      32.893  19.112 -23.751  0.00  0.00     0.105 A 
ATOM     12  C   UNL d   1      33.067  19.777 -24.202  0.00  0.00     0.012 A 
ATOM     13  C   UNL d   1      33.239  20.493 -23.831  0.00  0.00     0.001 A 
ATOM     14  C   UNL d   1      33.067  19.714 -25.032  0.00  0.00     0.001 C 
ATOM     15  C   UNL d   1      33.237  20.545 -23.012  0.00  0.00     0.000 A 
ATOM     16  C   UNL d   1      33.062  19.880 -22.556  0.00  0.00     0.001 A 
ATOM     17  C   UNL d   1      32.890  19.162 -22.919  0.00  0.00     0.013 A 
ATOM     18  C   UNL d   1      33.061  19.938 -21.722  0.00  0.00     0.000 C 
ENDBRANCH   8  11
ENDBRANCH   7   8
ENDBRANCH   2   7
BRANCH   1  19
ATOM     19  C   UNL d   1      29.938  15.913 -23.483  0.00  0.00     0.279 C 
ATOM     20  O   UNL d   1      29.960  15.499 -22.770  0.00  0.00    -0.265 OA
ATOM     21  N   UNL d   1      29.264  15.894 -23.953  0.00  0.00    -0.204 NA
BRANCH  21  22
ATOM     22  C   UNL d   1      28.609  15.456 -23.707  0.00  0.00     0.128 C 
BRANCH  22  23
ATOM     23  C   UNL d   1      27.866  15.607 -24.031  0.00  0.00     0.137 C 
BRANCH  23  24
ATOM     24  O   UNL d   1      27.221  15.805 -23.529  0.00  0.00    -0.325 OA
ATOM     25  C   UNL d   1      26.461  15.571 -23.728  0.00  0.00     0.182 C 
ENDBRANCH  23  24
ENDBRANCH  22  23
ENDBRANCH  21  22
ENDBRANCH   1  19
TORSDOF 7
ENDMDL
