MODEL 1
REMARK VINA RESULT:      -4.1      0.000      0.000
REMARK  3 active torsions:
REMARK  status: ('A' for Active; 'I' for Inactive)
REMARK    1  A    between atoms: N_5  and  C_1 
REMARK       I    between atoms: C_2  and  N_3 
REMARK    2  A    between atoms: C_4  and  C_2 
REMARK    3  A    between atoms: N_3  and  N_5 
ROOT
ATOM      1  C   UNL d   1     -41.578-122.387 -51.102  0.00  0.00     0.060 A 
ATOM      2  C   UNL d   1     -42.263-122.275 -50.664  0.00  0.00     0.012 A 
ATOM      3  C   UNL d   1     -42.509-122.839 -50.113  0.00  0.00     0.035 A 
ATOM      4 BR   UNL d   1     -43.202-122.714 -49.677  0.00  0.00    -0.049 Br
ATOM      5  C   UNL d   1     -41.124-123.078 -50.990  0.00  0.00     0.005 A 
ATOM      6  C   UNL d   1     -41.368-123.637 -50.444  0.00  0.00     0.001 A 
ATOM      7  C   UNL d   1     -42.065-123.513 -50.004  0.00  0.00     0.007 A 
ENDROOT
BRANCH   1   8
ATOM      8  C   UNL d   1     -41.345-121.811 -51.652  0.00  0.00     0.297 C 
ATOM      9  N   UNL d   1     -41.335-121.994 -52.440  0.00  0.00    -0.103 NA
ATOM     10  O   UNL d   1     -41.123-121.053 -51.385  0.00  0.00    -0.264 OA
BRANCH   9  11
ATOM     11  N   UNL d   1     -41.554-122.734 -52.685  0.00  0.00    -0.112 NA
BRANCH  11  12
ATOM     12  C   UNL d   1     -41.521-122.929 -53.485  0.00  0.00     0.260 C 
ATOM     13  S   UNL d   1     -41.888-122.439 -54.046  0.00  0.00    -0.034 SA
ATOM     14  N   UNL d   1     -41.125-123.608 -53.729  0.00  0.00    -0.113 N 
ENDBRANCH  11  12
ENDBRANCH   9  11
ENDBRANCH   1   8
TORSDOF 3
ENDMDL
MODEL 2
REMARK VINA RESULT:      -3.8      3.075      3.701
REMARK  3 active torsions:
REMARK  status: ('A' for Active; 'I' for Inactive)
REMARK    1  A    between atoms: N_5  and  C_1 
REMARK       I    between atoms: C_2  and  N_3 
REMARK    2  A    between atoms: C_4  and  C_2 
REMARK    3  A    between atoms: N_3  and  N_5 
ROOT
ATOM      1  C   UNL d   1     -42.356-123.047 -50.197  0.00  0.00     0.060 A 
ATOM      2  C   UNL d   1     -42.045-122.353 -50.506  0.00  0.00     0.012 A 
ATOM      3  C   UNL d   1     -41.428-122.375 -51.053  0.00  0.00     0.035 A 
ATOM      4 BR   UNL d   1     -41.123-121.667 -51.358  0.00  0.00    -0.049 Br
ATOM      5  C   UNL d   1     -42.045-123.784 -50.437  0.00  0.00     0.005 A 
ATOM      6  C   UNL d   1     -41.432-123.804 -50.980  0.00  0.00     0.001 A 
ATOM      7  C   UNL d   1     -41.124-123.093 -51.288  0.00  0.00     0.007 A 
ENDROOT
BRANCH   1   8
ATOM      8  C   UNL d   1     -42.977-123.009 -49.648  0.00  0.00     0.297 C 
ATOM      9  N   UNL d   1     -42.813-123.060 -48.858  0.00  0.00    -0.103 NA
ATOM     10  O   UNL d   1     -43.761-122.920 -49.919  0.00  0.00    -0.264 OA
BRANCH   9  11
ATOM     11  N   UNL d   1     -42.047-123.147 -48.609  0.00  0.00    -0.112 NA
BRANCH  11  12
ATOM     12  C   UNL d   1     -41.879-123.186 -47.804  0.00  0.00     0.260 C 
ATOM     13  S   UNL d   1     -41.277-123.690 -47.530  0.00  0.00    -0.034 SA
ATOM     14  N   UNL d   1     -42.304-122.727 -47.270  0.00  0.00    -0.113 N 
ENDBRANCH  11  12
ENDBRANCH   9  11
ENDBRANCH   1   8
TORSDOF 3
ENDMDL
MODEL 3
REMARK VINA RESULT:      -3.5      2.144      2.951
REMARK  3 active torsions:
REMARK  status: ('A' for Active; 'I' for Inactive)
REMARK    1  A    between atoms: N_5  and  C_1 
REMARK       I    between atoms: C_2  and  N_3 
REMARK    2  A    between atoms: C_4  and  C_2 
REMARK    3  A    between atoms: N_3  and  N_5 
ROOT
ATOM      1  C   UNL d   1     -41.491-122.248 -52.308  0.00  0.00     0.060 A 
ATOM      2  C   UNL d   1     -41.859-122.016 -53.005  0.00  0.00     0.012 A 
ATOM      3  C   UNL d   1     -41.869-122.515 -53.662  0.00  0.00     0.035 A 
ATOM      4 BR   UNL d   1     -42.244-122.269 -54.360  0.00  0.00    -0.049 Br
ATOM      5  C   UNL d   1     -41.123-122.996 -52.263  0.00  0.00     0.005 A 
ATOM      6  C   UNL d   1     -41.133-123.490 -52.916  0.00  0.00     0.001 A 
ATOM      7  C   UNL d   1     -41.510-123.244 -53.619  0.00  0.00     0.007 A 
ENDROOT
BRANCH   1   8
ATOM      8  C   UNL d   1     -41.489-121.736 -51.655  0.00  0.00     0.297 C 
ATOM      9  N   UNL d   1     -41.843-121.968 -50.966  0.00  0.00    -0.103 NA
ATOM     10  O   UNL d   1     -41.123-120.989 -51.719  0.00  0.00    -0.264 OA
BRANCH   9  11
ATOM     11  N   UNL d   1     -42.195-122.696 -50.919  0.00  0.00    -0.112 NA
BRANCH  11  12
ATOM     12  C   UNL d   1     -42.550-122.937 -50.215  0.00  0.00     0.260 C 
ATOM     13  S   UNL d   1     -42.221-123.562 -49.778  0.00  0.00    -0.034 SA
ATOM     14  N   UNL d   1     -43.228-122.558 -49.944  0.00  0.00    -0.113 N 
ENDBRANCH  11  12
ENDBRANCH   9  11
ENDBRANCH   1   8
TORSDOF 3
ENDMDL
MODEL 4
REMARK VINA RESULT:      -3.2      1.326      1.770
REMARK  3 active torsions:
REMARK  status: ('A' for Active; 'I' for Inactive)
REMARK    1  A    between atoms: N_5  and  C_1 
REMARK       I    between atoms: C_2  and  N_3 
REMARK    2  A    between atoms: C_4  and  C_2 
REMARK    3  A    between atoms: N_3  and  N_5 
ROOT
ATOM      1  C   UNL d   1     -41.566-122.533 -52.064  0.00  0.00     0.060 A 
ATOM      2  C   UNL d   1     -42.045-122.737 -51.429  0.00  0.00     0.012 A 
ATOM      3  C   UNL d   1     -42.161-122.213 -50.802  0.00  0.00     0.035 A 
ATOM      4 BR   UNL d   1     -42.647-122.432 -50.167  0.00  0.00    -0.049 Br
ATOM      5  C   UNL d   1     -41.192-121.787 -52.076  0.00  0.00     0.005 A 
ATOM      6  C   UNL d   1     -41.307-121.267 -51.453  0.00  0.00     0.001 A 
ATOM      7  C   UNL d   1     -41.796-121.486 -50.814  0.00  0.00     0.007 A 
ENDROOT
BRANCH   1   8
ATOM      8  C   UNL d   1     -41.460-123.070 -52.687  0.00  0.00     0.297 C 
ATOM      9  N   UNL d   1     -41.684-122.861 -53.435  0.00  0.00    -0.103 NA
ATOM     10  O   UNL d   1     -41.123-123.817 -52.533  0.00  0.00    -0.264 OA
BRANCH   9  11
ATOM     11  N   UNL d   1     -42.010-122.132 -53.570  0.00  0.00    -0.112 NA
BRANCH  11  12
ATOM     12  C   UNL d   1     -42.253-121.924 -54.330  0.00  0.00     0.260 C 
ATOM     13  S   UNL d   1     -41.726-121.997 -54.968  0.00  0.00    -0.034 SA
ATOM     14  N   UNL d   1     -43.017-121.646 -54.457  0.00  0.00    -0.113 N 
ENDBRANCH  11  12
ENDBRANCH   9  11
ENDBRANCH   1   8
TORSDOF 3
ENDMDL
MODEL 5
REMARK VINA RESULT:      -3.2      2.000      2.440
REMARK  3 active torsions:
REMARK  status: ('A' for Active; 'I' for Inactive)
REMARK    1  A    between atoms: N_5  and  C_1 
REMARK       I    between atoms: C_2  and  N_3 
REMARK    2  A    between atoms: C_4  and  C_2 
REMARK    3  A    between atoms: N_3  and  N_5 
ROOT
ATOM      1  C   UNL d   1     -42.307-123.336 -49.319  0.00  0.00     0.060 A 
ATOM      2  C   UNL d   1     -42.585-123.021 -48.614  0.00  0.00     0.012 A 
ATOM      3  C   UNL d   1     -42.149-123.095 -47.918  0.00  0.00     0.035 A 
ATOM      4 BR   UNL d   1     -42.442-122.771 -47.212  0.00  0.00    -0.049 Br
ATOM      5  C   UNL d   1     -41.574-123.737 -49.333  0.00  0.00     0.005 A 
ATOM      6  C   UNL d   1     -41.142-123.810 -48.641  0.00  0.00     0.001 A 
ATOM      7  C   UNL d   1     -41.435-123.485 -47.931  0.00  0.00     0.007 A 
ENDROOT
BRANCH   1   8
ATOM      8  C   UNL d   1     -42.756-123.254 -50.012  0.00  0.00     0.297 C 
ATOM      9  N   UNL d   1     -42.455-122.835 -50.635  0.00  0.00    -0.103 NA
ATOM     10  O   UNL d   1     -43.513-123.603 -50.055  0.00  0.00    -0.264 OA
BRANCH   9  11
ATOM     11  N   UNL d   1     -41.719-122.501 -50.578  0.00  0.00    -0.112 NA
BRANCH  11  12
ATOM     12  C   UNL d   1     -41.401-122.096 -51.221  0.00  0.00     0.260 C 
ATOM     13  S   UNL d   1     -41.301-121.272 -51.183  0.00  0.00    -0.034 SA
ATOM     14  N   UNL d   1     -41.181-122.506 -51.900  0.00  0.00    -0.113 N 
ENDBRANCH  11  12
ENDBRANCH   9  11
ENDBRANCH   1   8
TORSDOF 3
ENDMDL
MODEL 6
REMARK VINA RESULT:      -1.2      2.431      3.192
REMARK  3 active torsions:
REMARK  status: ('A' for Active; 'I' for Inactive)
REMARK    1  A    between atoms: N_5  and  C_1 
REMARK       I    between atoms: C_2  and  N_3 
REMARK    2  A    between atoms: C_4  and  C_2 
REMARK    3  A    between atoms: N_3  and  N_5 
ROOT
ATOM      1  C   UNL d   1     -41.478-122.425 -51.621  0.00  0.00     0.060 A 
ATOM      2  C   UNL d   1     -41.729-122.346 -52.399  0.00  0.00     0.012 A 
ATOM      3  C   UNL d   1     -41.680-121.618 -52.785  0.00  0.00     0.035 A 
ATOM      4 BR   UNL d   1     -41.937-121.552 -53.571  0.00  0.00    -0.049 Br
ATOM      5  C   UNL d   1     -41.170-121.763 -51.216  0.00  0.00     0.005 A 
ATOM      6  C   UNL d   1     -41.123-121.041 -51.600  0.00  0.00     0.001 A 
ATOM      7  C   UNL d   1     -41.381-120.973 -52.390  0.00  0.00     0.007 A 
ENDROOT
BRANCH   1   8
ATOM      8  C   UNL d   1     -41.532-123.163 -51.245  0.00  0.00     0.297 C 
ATOM      9  N   UNL d   1     -41.982-123.237 -50.577  0.00  0.00    -0.103 NA
ATOM     10  O   UNL d   1     -41.124-123.817 -51.562  0.00  0.00    -0.264 OA
BRANCH   9  11
ATOM     11  N   UNL d   1     -42.373-122.593 -50.281  0.00  0.00    -0.112 NA
BRANCH  11  12
ATOM     12  C   UNL d   1     -42.880-122.680 -49.637  0.00  0.00     0.260 C 
ATOM     13  S   UNL d   1     -42.570-122.841 -48.883  0.00  0.00    -0.034 SA
ATOM     14  N   UNL d   1     -43.694-122.609 -49.740  0.00  0.00    -0.113 N 
ENDBRANCH  11  12
ENDBRANCH   9  11
ENDBRANCH   1   8
TORSDOF 3
ENDMDL
