MODEL 1
REMARK VINA RESULT:      -7.4      0.000      0.000
REMARK  4 active torsions:
REMARK  status: ('A' for Active; 'I' for Inactive)
REMARK    1  A    between atoms: C_10  and  C_3 
REMARK    2  A    between atoms: C_11  and  N_5 
REMARK    3  A    between atoms: O_17  and  C_10 
REMARK    4  A    between atoms: C_21  and  O_17 
ROOT
ATOM      1  C   UNL d   1     -48.076  12.163  23.360  0.00  0.00     0.086 A 
ATOM      2  C   UNL d   1     -47.289  12.389  23.295  0.00  0.00     0.038 A 
ATOM      3  C   UNL d   1     -47.098  13.165  23.091  0.00  0.00     0.165 A 
ATOM      4  C   UNL d   1     -48.678  12.714  23.222  0.00  0.00     0.282 A 
ATOM      5  N   UNL d   1     -48.490  13.487  23.019  0.00  0.00    -0.194 N 
ATOM      6  N   UNL d   1     -47.700  13.716  22.953  0.00  0.00    -0.157 NA
ATOM      7  C   UNL d   1     -48.089  11.363  23.568  0.00  0.00     0.137 A 
ATOM      8  C   UNL d   1     -46.822  11.729  23.462  0.00  0.00     0.039 A 
ATOM      9  S   UNL d   1     -47.314  11.102  23.630  0.00  0.00    -0.066 SA
ATOM     10  O   UNL d   1     -49.476  12.487  23.288  0.00  0.00    -0.265 OA
ATOM     11  N   UNL d   1     -48.760  10.887  23.698  0.00  0.00    -0.141 N 
ENDROOT
BRANCH   5  12
ATOM     12  C   UNL d   1     -49.089  14.034  22.882  0.00  0.00     0.086 A 
ATOM     13  C   UNL d   1     -49.310  14.561  23.477  0.00  0.00     0.019 A 
ATOM     14  C   UNL d   1     -49.915  15.114  23.339  0.00  0.00     0.002 A 
ATOM     15  C   UNL d   1     -50.293  15.135  22.606  0.00  0.00     0.000 A 
ATOM     16  C   UNL d   1     -50.072  14.610  22.014  0.00  0.00     0.002 A 
ATOM     17  C   UNL d   1     -50.892  15.682  22.468  0.00  0.00     0.000 C 
ATOM     18  C   UNL d   1     -49.467  14.057  22.153  0.00  0.00     0.019 A 
ENDBRANCH   5  12
BRANCH   3  19
ATOM     19  C   UNL d   1     -46.300  13.392  23.026  0.00  0.00     0.320 C 
ATOM     20  O   UNL d   1     -45.907  13.695  23.680  0.00  0.00    -0.257 OA
BRANCH  19  21
ATOM     21  O   UNL d   1     -45.902  13.313  22.304  0.00  0.00    -0.270 OA
BRANCH  21  22
ATOM     22  C   UNL d   1     -45.166  13.662  22.200  0.00  0.00     0.126 C 
ATOM     23  C   UNL d   1     -44.595  13.294  21.719  0.00  0.00     0.029 C 
ENDBRANCH  21  22
ENDBRANCH  19  21
ENDBRANCH   3  19
TORSDOF 4
ENDMDL
MODEL 2
REMARK VINA RESULT:      -6.4      1.316      3.682
REMARK  4 active torsions:
REMARK  status: ('A' for Active; 'I' for Inactive)
REMARK    1  A    between atoms: C_10  and  C_3 
REMARK    2  A    between atoms: C_11  and  N_5 
REMARK    3  A    between atoms: O_17  and  C_10 
REMARK    4  A    between atoms: C_21  and  O_17 
ROOT
ATOM      1  C   UNL d   1     -49.066  12.435  23.215  0.00  0.00     0.086 A 
ATOM      2  C   UNL d   1     -49.542  13.096  23.115  0.00  0.00     0.038 A 
ATOM      3  C   UNL d   1     -49.217  13.801  22.836  0.00  0.00     0.165 A 
ATOM      4  C   UNL d   1     -48.259  12.474  23.035  0.00  0.00     0.282 A 
ATOM      5  N   UNL d   1     -47.933  13.175  22.757  0.00  0.00    -0.194 N 
ATOM      6  N   UNL d   1     -48.410  13.840  22.656  0.00  0.00    -0.157 NA
ATOM      7  C   UNL d   1     -49.545  11.823  23.498  0.00  0.00     0.137 A 
ATOM      8  C   UNL d   1     -50.310  12.890  23.337  0.00  0.00     0.039 A 
ATOM      9  S   UNL d   1     -50.309  12.110  23.571  0.00  0.00    -0.066 SA
ATOM     10  O   UNL d   1     -47.774  11.805  23.135  0.00  0.00    -0.265 OA
ATOM     11  N   UNL d   1     -49.312  11.045  23.683  0.00  0.00    -0.141 N 
ENDROOT
BRANCH   5  12
ATOM     12  C   UNL d   1     -47.131  13.214  22.579  0.00  0.00     0.086 A 
ATOM     13  C   UNL d   1     -46.836  12.816  21.919  0.00  0.00     0.019 A 
ATOM     14  C   UNL d   1     -46.025  12.855  21.738  0.00  0.00     0.002 A 
ATOM     15  C   UNL d   1     -45.517  13.292  22.219  0.00  0.00     0.000 A 
ATOM     16  C   UNL d   1     -45.813  13.688  22.876  0.00  0.00     0.002 A 
ATOM     17  C   UNL d   1     -44.715  13.331  22.041  0.00  0.00     0.000 C 
ATOM     18  C   UNL d   1     -46.623  13.649  23.056  0.00  0.00     0.019 A 
ENDBRANCH   5  12
BRANCH   3  19
ATOM     19  C   UNL d   1     -49.701  14.470  22.736  0.00  0.00     0.320 C 
ATOM     20  O   UNL d   1     -50.251  14.488  22.126  0.00  0.00    -0.257 OA
BRANCH  19  21
ATOM     21  O   UNL d   1     -49.631  15.116  23.249  0.00  0.00    -0.270 OA
BRANCH  21  22
ATOM     22  C   UNL d   1     -50.120  15.770  23.156  0.00  0.00     0.126 C 
ATOM     23  C   UNL d   1     -50.738  15.908  23.696  0.00  0.00     0.029 C 
ENDBRANCH  21  22
ENDBRANCH  19  21
ENDBRANCH   3  19
TORSDOF 4
ENDMDL
MODEL 3
REMARK VINA RESULT:      -6.2      8.931      9.969
REMARK  4 active torsions:
REMARK  status: ('A' for Active; 'I' for Inactive)
REMARK    1  A    between atoms: C_10  and  C_3 
REMARK    2  A    between atoms: C_11  and  N_5 
REMARK    3  A    between atoms: O_17  and  C_10 
REMARK    4  A    between atoms: C_21  and  O_17 
ROOT
ATOM      1  C   UNL d   1     -40.349  15.201  18.192  0.00  0.00     0.086 A 
ATOM      2  C   UNL d   1     -39.812  14.746  17.769  0.00  0.00     0.038 A 
ATOM      3  C   UNL d   1     -39.158  14.417  18.150  0.00  0.00     0.165 A 
ATOM      4  C   UNL d   1     -40.235  15.331  19.001  0.00  0.00     0.282 A 
ATOM      5  N   UNL d   1     -39.585  15.005  19.382  0.00  0.00    -0.194 N 
ATOM      6  N   UNL d   1     -39.044  14.548  18.959  0.00  0.00    -0.157 NA
ATOM      7  C   UNL d   1     -40.936  15.449  17.665  0.00  0.00     0.137 A 
ATOM      8  C   UNL d   1     -40.069  14.715  16.985  0.00  0.00     0.039 A 
ATOM      9  S   UNL d   1     -40.757  15.146  16.923  0.00  0.00    -0.066 SA
ATOM     10  O   UNL d   1     -40.778  15.791  19.432  0.00  0.00    -0.265 OA
ATOM     11  N   UNL d   1     -41.599  15.922  17.835  0.00  0.00    -0.141 N 
ENDROOT
BRANCH   5  12
ATOM     12  C   UNL d   1     -39.471  15.134  20.187  0.00  0.00     0.086 A 
ATOM     13  C   UNL d   1     -39.781  14.603  20.737  0.00  0.00     0.019 A 
ATOM     14  C   UNL d   1     -39.667  14.733  21.550  0.00  0.00     0.002 A 
ATOM     15  C   UNL d   1     -39.244  15.394  21.806  0.00  0.00     0.000 A 
ATOM     16  C   UNL d   1     -38.936  15.922  21.256  0.00  0.00     0.002 A 
ATOM     17  C   UNL d   1     -39.130  15.523  22.611  0.00  0.00     0.000 C 
ATOM     18  C   UNL d   1     -39.050  15.791  20.444  0.00  0.00     0.019 A 
ENDBRANCH   5  12
BRANCH   3  19
ATOM     19  C   UNL d   1     -38.615  13.957  17.719  0.00  0.00     0.320 C 
ATOM     20  O   UNL d   1     -38.060  14.325  17.238  0.00  0.00    -0.257 OA
BRANCH  19  21
ATOM     21  O   UNL d   1     -38.633  13.131  17.774  0.00  0.00    -0.270 OA
BRANCH  21  22
ATOM     22  C   UNL d   1     -37.970  12.691  17.570  0.00  0.00     0.126 C 
ATOM     23  C   UNL d   1     -37.997  11.860  17.600  0.00  0.00     0.029 C 
ENDBRANCH  21  22
ENDBRANCH  19  21
ENDBRANCH   3  19
TORSDOF 4
ENDMDL
MODEL 4
REMARK VINA RESULT:      -5.4      1.850      2.706
REMARK  4 active torsions:
REMARK  status: ('A' for Active; 'I' for Inactive)
REMARK    1  A    between atoms: C_10  and  C_3 
REMARK    2  A    between atoms: C_11  and  N_5 
REMARK    3  A    between atoms: O_17  and  C_10 
REMARK    4  A    between atoms: C_21  and  O_17 
ROOT
ATOM      1  C   UNL d   1     -47.232  14.015  22.682  0.00  0.00     0.086 A 
ATOM      2  C   UNL d   1     -46.565  13.536  22.673  0.00  0.00     0.038 A 
ATOM      3  C   UNL d   1     -46.642  12.718  22.743  0.00  0.00     0.165 A 
ATOM      4  C   UNL d   1     -47.984  13.677  22.761  0.00  0.00     0.282 A 
ATOM      5  N   UNL d   1     -48.063  12.863  22.831  0.00  0.00    -0.194 N 
ATOM      6  N   UNL d   1     -47.394  12.380  22.822  0.00  0.00    -0.157 NA
ATOM      7  C   UNL d   1     -46.979  14.798  22.602  0.00  0.00     0.137 A 
ATOM      8  C   UNL d   1     -45.904  14.025  22.588  0.00  0.00     0.039 A 
ATOM      9  S   UNL d   1     -46.160  14.797  22.545  0.00  0.00    -0.066 SA
ATOM     10  O   UNL d   1     -48.661  14.160  22.771  0.00  0.00    -0.265 OA
ATOM     11  N   UNL d   1     -47.453  15.482  22.582  0.00  0.00    -0.141 N 
ENDROOT
BRANCH   5  12
ATOM     12  C   UNL d   1     -48.810  12.527  22.910  0.00  0.00     0.086 A 
ATOM     13  C   UNL d   1     -49.340  12.549  22.278  0.00  0.00     0.019 A 
ATOM     14  C   UNL d   1     -50.095  12.210  22.358  0.00  0.00     0.002 A 
ATOM     15  C   UNL d   1     -50.313  11.851  23.069  0.00  0.00     0.000 A 
ATOM     16  C   UNL d   1     -49.783  11.830  23.697  0.00  0.00     0.002 A 
ATOM     17  C   UNL d   1     -51.060  11.515  23.148  0.00  0.00     0.000 C 
ATOM     18  C   UNL d   1     -49.029  12.170  23.617  0.00  0.00     0.019 A 
ENDBRANCH   5  12
BRANCH   3  19
ATOM     19  C   UNL d   1     -45.965  12.235  22.733  0.00  0.00     0.320 C 
ATOM     20  O   UNL d   1     -45.386  12.356  22.163  0.00  0.00    -0.257 OA
BRANCH  19  21
ATOM     21  O   UNL d   1     -45.873  11.635  23.296  0.00  0.00    -0.270 OA
BRANCH  21  22
ATOM     22  C   UNL d   1     -45.197  11.168  23.293  0.00  0.00     0.126 C 
ATOM     23  C   UNL d   1     -45.191  10.441  23.698  0.00  0.00     0.029 C 
ENDBRANCH  21  22
ENDBRANCH  19  21
ENDBRANCH   3  19
TORSDOF 4
ENDMDL
MODEL 5
REMARK VINA RESULT:      -5.3      1.779      3.618
REMARK  4 active torsions:
REMARK  status: ('A' for Active; 'I' for Inactive)
REMARK    1  A    between atoms: C_10  and  C_3 
REMARK    2  A    between atoms: C_11  and  N_5 
REMARK    3  A    between atoms: O_17  and  C_10 
REMARK    4  A    between atoms: C_21  and  O_17 
ROOT
ATOM      1  C   UNL d   1     -49.793  12.458  23.366  0.00  0.00     0.086 A 
ATOM      2  C   UNL d   1     -49.799  13.271  23.249  0.00  0.00     0.038 A 
ATOM      3  C   UNL d   1     -49.088  13.687  23.205  0.00  0.00     0.165 A 
ATOM      4  C   UNL d   1     -49.074  12.055  23.440  0.00  0.00     0.282 A 
ATOM      5  N   UNL d   1     -48.365  12.467  23.397  0.00  0.00    -0.194 N 
ATOM      6  N   UNL d   1     -48.368  13.284  23.279  0.00  0.00    -0.157 NA
ATOM      7  C   UNL d   1     -50.579  12.202  23.385  0.00  0.00     0.137 A 
ATOM      8  C   UNL d   1     -50.586  13.513  23.197  0.00  0.00     0.039 A 
ATOM      9  S   UNL d   1     -51.062  12.857  23.280  0.00  0.00    -0.066 SA
ATOM     10  O   UNL d   1     -49.065  11.231  23.558  0.00  0.00    -0.265 OA
ATOM     11  N   UNL d   1     -50.854  11.424  23.490  0.00  0.00    -0.141 N 
ENDROOT
BRANCH   5  12
ATOM     12  C   UNL d   1     -47.650  12.067  23.470  0.00  0.00     0.086 A 
ATOM     13  C   UNL d   1     -47.646  11.256  23.623  0.00  0.00     0.019 A 
ATOM     14  C   UNL d   1     -46.924  10.851  23.697  0.00  0.00     0.002 A 
ATOM     15  C   UNL d   1     -46.212  11.261  23.618  0.00  0.00     0.000 A 
ATOM     16  C   UNL d   1     -46.218  12.068  23.466  0.00  0.00     0.002 A 
ATOM     17  C   UNL d   1     -45.497  10.860  23.692  0.00  0.00     0.000 C 
ATOM     18  C   UNL d   1     -46.940  12.473  23.392  0.00  0.00     0.019 A 
ENDBRANCH   5  12
BRANCH   3  19
ATOM     19  C   UNL d   1     -49.096  14.511  23.087  0.00  0.00     0.320 C 
ATOM     20  O   UNL d   1     -49.393  15.003  23.673  0.00  0.00    -0.257 OA
BRANCH  19  21
ATOM     21  O   UNL d   1     -48.807  14.833  22.382  0.00  0.00    -0.270 OA
BRANCH  21  22
ATOM     22  C   UNL d   1     -48.606  15.629  22.346  0.00  0.00     0.126 C 
ATOM     23  C   UNL d   1     -48.084  15.901  21.757  0.00  0.00     0.029 C 
ENDBRANCH  21  22
ENDBRANCH  19  21
ENDBRANCH   3  19
TORSDOF 4
ENDMDL
MODEL 6
REMARK VINA RESULT:      -5.3      6.898      9.606
REMARK  4 active torsions:
REMARK  status: ('A' for Active; 'I' for Inactive)
REMARK    1  A    between atoms: C_10  and  C_3 
REMARK    2  A    between atoms: C_11  and  N_5 
REMARK    3  A    between atoms: O_17  and  C_10 
REMARK    4  A    between atoms: C_21  and  O_17 
ROOT
ATOM      1  C   UNL d   1     -39.199  15.324  20.617  0.00  0.00     0.086 A 
ATOM      2  C   UNL d   1     -39.936  15.172  20.946  0.00  0.00     0.038 A 
ATOM      3  C   UNL d   1     -40.529  14.825  20.489  0.00  0.00     0.165 A 
ATOM      4  C   UNL d   1     -39.050  15.129  19.827  0.00  0.00     0.282 A 
ATOM      5  N   UNL d   1     -39.638  14.784  19.370  0.00  0.00    -0.194 N 
ATOM      6  N   UNL d   1     -40.379  14.630  19.699  0.00  0.00    -0.157 NA
ATOM      7  C   UNL d   1     -38.730  15.670  21.204  0.00  0.00     0.137 A 
ATOM      8  C   UNL d   1     -39.919  15.423  21.732  0.00  0.00     0.039 A 
ATOM      9  S   UNL d   1     -39.179  15.728  21.888  0.00  0.00    -0.066 SA
ATOM     10  O   UNL d   1     -38.304  15.283  19.491  0.00  0.00    -0.265 OA
ATOM     11  N   UNL d   1     -37.940  15.921  21.135  0.00  0.00    -0.141 N 
ENDROOT
BRANCH   5  12
ATOM     12  C   UNL d   1     -39.490  14.590  18.584  0.00  0.00     0.086 A 
ATOM     13  C   UNL d   1     -39.651  15.137  17.988  0.00  0.00     0.019 A 
ATOM     14  C   UNL d   1     -39.501  14.941  17.194  0.00  0.00     0.002 A 
ATOM     15  C   UNL d   1     -39.191  14.200  17.004  0.00  0.00     0.000 A 
ATOM     16  C   UNL d   1     -39.031  13.657  17.599  0.00  0.00     0.002 A 
ATOM     17  C   UNL d   1     -39.042  14.006  16.218  0.00  0.00     0.000 C 
ATOM     18  C   UNL d   1     -39.181  13.852  18.393  0.00  0.00     0.019 A 
ENDBRANCH   5  12
BRANCH   3  19
ATOM     19  C   UNL d   1     -41.275  14.671  20.825  0.00  0.00     0.320 C 
ATOM     20  O   UNL d   1     -41.774  15.296  21.010  0.00  0.00    -0.257 OA
BRANCH  19  21
ATOM     21  O   UNL d   1     -41.514  13.892  20.971  0.00  0.00    -0.270 OA
BRANCH  21  22
ATOM     22  C   UNL d   1     -42.307  13.723  21.099  0.00  0.00     0.126 C 
ATOM     23  C   UNL d   1     -42.553  12.935  21.206  0.00  0.00     0.029 C 
ENDBRANCH  21  22
ENDBRANCH  19  21
ENDBRANCH   3  19
TORSDOF 4
ENDMDL
MODEL 7
REMARK VINA RESULT:      -5.2      1.555      4.293
REMARK  4 active torsions:
REMARK  status: ('A' for Active; 'I' for Inactive)
REMARK    1  A    between atoms: C_10  and  C_3 
REMARK    2  A    between atoms: C_11  and  N_5 
REMARK    3  A    between atoms: O_17  and  C_10 
REMARK    4  A    between atoms: C_21  and  O_17 
ROOT
ATOM      1  C   UNL d   1     -47.566  14.110  22.770  0.00  0.00     0.086 A 
ATOM      2  C   UNL d   1     -48.363  13.910  22.757  0.00  0.00     0.038 A 
ATOM      3  C   UNL d   1     -48.595  13.129  22.884  0.00  0.00     0.165 A 
ATOM      4  C   UNL d   1     -46.995  13.527  22.911  0.00  0.00     0.282 A 
ATOM      5  N   UNL d   1     -47.224  12.749  23.038  0.00  0.00    -0.194 N 
ATOM      6  N   UNL d   1     -48.024  12.546  23.025  0.00  0.00    -0.157 NA
ATOM      7  C   UNL d   1     -47.510  14.922  22.627  0.00  0.00     0.137 A 
ATOM      8  C   UNL d   1     -48.793  14.598  22.605  0.00  0.00     0.039 A 
ATOM      9  S   UNL d   1     -48.269  15.216  22.526  0.00  0.00    -0.066 SA
ATOM     10  O   UNL d   1     -46.187  13.727  22.926  0.00  0.00    -0.265 OA
ATOM     11  N   UNL d   1     -46.816  15.380  22.587  0.00  0.00    -0.141 N 
ENDROOT
BRANCH   5  12
ATOM     12  C   UNL d   1     -46.657  12.170  23.178  0.00  0.00     0.086 A 
ATOM     13  C   UNL d   1     -46.869  11.467  23.555  0.00  0.00     0.019 A 
ATOM     14  C   UNL d   1     -46.296  10.882  23.696  0.00  0.00     0.002 A 
ATOM     15  C   UNL d   1     -45.515  11.005  23.460  0.00  0.00     0.000 A 
ATOM     16  C   UNL d   1     -45.305  11.706  23.086  0.00  0.00     0.002 A 
ATOM     17  C   UNL d   1     -44.947  10.426  23.601  0.00  0.00     0.000 C 
ATOM     18  C   UNL d   1     -45.878  12.291  22.944  0.00  0.00     0.019 A 
ENDBRANCH   5  12
BRANCH   3  19
ATOM     19  C   UNL d   1     -49.403  12.929  22.869  0.00  0.00     0.320 C 
ATOM     20  O   UNL d   1     -49.853  13.006  23.552  0.00  0.00    -0.257 OA
BRANCH  19  21
ATOM     21  O   UNL d   1     -49.752  12.653  22.171  0.00  0.00    -0.270 OA
BRANCH  21  22
ATOM     22  C   UNL d   1     -50.562  12.526  22.139  0.00  0.00     0.126 C 
ATOM     23  C   UNL d   1     -50.957  12.537  21.407  0.00  0.00     0.029 C 
ENDBRANCH  21  22
ENDBRANCH  19  21
ENDBRANCH   3  19
TORSDOF 4
ENDMDL
MODEL 8
REMARK VINA RESULT:      -4.7      1.777      4.169
REMARK  4 active torsions:
REMARK  status: ('A' for Active; 'I' for Inactive)
REMARK    1  A    between atoms: C_10  and  C_3 
REMARK    2  A    between atoms: C_11  and  N_5 
REMARK    3  A    between atoms: O_17  and  C_10 
REMARK    4  A    between atoms: C_21  and  O_17 
ROOT
ATOM      1  C   UNL d   1     -49.520  14.452  22.909  0.00  0.00     0.086 A 
ATOM      2  C   UNL d   1     -50.022  13.804  22.947  0.00  0.00     0.038 A 
ATOM      3  C   UNL d   1     -49.720  13.041  22.865  0.00  0.00     0.165 A 
ATOM      4  C   UNL d   1     -48.708  14.340  22.788  0.00  0.00     0.282 A 
ATOM      5  N   UNL d   1     -48.405  13.581  22.707  0.00  0.00    -0.194 N 
ATOM      6  N   UNL d   1     -48.909  12.929  22.745  0.00  0.00    -0.157 NA
ATOM      7  C   UNL d   1     -49.979  15.132  23.009  0.00  0.00     0.137 A 
ATOM      8  C   UNL d   1     -50.789  14.086  23.070  0.00  0.00     0.039 A 
ATOM      9  S   UNL d   1     -50.760  14.899  23.108  0.00  0.00    -0.066 SA
ATOM     10  O   UNL d   1     -48.196  14.995  22.749  0.00  0.00    -0.265 OA
ATOM     11  N   UNL d   1     -49.717  15.922  23.012  0.00  0.00    -0.141 N 
ENDROOT
BRANCH   5  12
ATOM     12  C   UNL d   1     -47.599  13.470  22.587  0.00  0.00     0.086 A 
ATOM     13  C   UNL d   1     -47.317  13.271  21.837  0.00  0.00     0.019 A 
ATOM     14  C   UNL d   1     -46.503  13.159  21.716  0.00  0.00     0.002 A 
ATOM     15  C   UNL d   1     -45.977  13.247  22.345  0.00  0.00     0.000 A 
ATOM     16  C   UNL d   1     -46.259  13.445  23.091  0.00  0.00     0.002 A 
ATOM     17  C   UNL d   1     -45.170  13.136  22.225  0.00  0.00     0.000 C 
ATOM     18  C   UNL d   1     -47.073  13.557  23.213  0.00  0.00     0.019 A 
ENDBRANCH   5  12
BRANCH   3  19
ATOM     19  C   UNL d   1     -50.232  12.386  22.905  0.00  0.00     0.320 C 
ATOM     20  O   UNL d   1     -50.722  12.213  22.268  0.00  0.00    -0.257 OA
BRANCH  19  21
ATOM     21  O   UNL d   1     -50.249  11.910  23.582  0.00  0.00    -0.270 OA
BRANCH  21  22
ATOM     22  C   UNL d   1     -50.856  11.367  23.688  0.00  0.00     0.126 C 
ATOM     23  C   UNL d   1     -50.689  10.552  23.698  0.00  0.00     0.029 C 
ENDBRANCH  21  22
ENDBRANCH  19  21
ENDBRANCH   3  19
TORSDOF 4
ENDMDL
