MODEL 1
REMARK VINA RESULT:      -5.2      0.000      0.000
REMARK  10 active torsions:
REMARK  status: ('A' for Active; 'I' for Inactive)
REMARK       I    between atoms: C_6  and  N_1 
REMARK    1  A    between atoms: C_7  and  C_3 
REMARK    2  A    between atoms: C_9  and  C_4 
REMARK    3  A    between atoms: C_19  and  C_6 
REMARK    4  A    between atoms: C_10  and  C_25 
REMARK    5  A    between atoms: O_23  and  C_10 
REMARK    6  A    between atoms: S_18  and  C_19 
REMARK    7  A    between atoms: C_25  and  S_18 
REMARK    8  A    between atoms: C_26  and  O_23 
REMARK    9  A    between atoms: C_27  and  C_26 
REMARK   10  A    between atoms: C_28  and  C_27 
ROOT
ATOM      1  N   UNL d   1     -40.500  14.390  20.556  0.00  0.00    -0.195 N 
ATOM      2  N   UNL d   1     -40.134  14.512  21.284  0.00  0.00    -0.162 NA
ATOM      3  C   UNL d   1     -39.446  14.899  21.161  0.00  0.00     0.109 A 
ATOM      4  C   UNL d   1     -40.010  14.716  19.982  0.00  0.00     0.088 A 
ATOM      5  C   UNL d   1     -39.358  15.032  20.351  0.00  0.00     0.041 A 
ATOM      6  C   UNL d   1     -41.227  14.008  20.427  0.00  0.00     0.275 C 
ATOM      7  O   UNL d   1     -41.524  13.926  19.665  0.00  0.00    -0.266 OA
ENDROOT
BRANCH   4   8
ATOM      8  C   UNL d   1     -40.130  14.736  19.171  0.00  0.00     0.018 A 
ATOM      9  C   UNL d   1     -40.481  15.396  18.828  0.00  0.00     0.004 A 
ATOM     10  C   UNL d   1     -40.600  15.416  18.017  0.00  0.00     0.030 A 
ATOM     11  C   UNL d   1     -40.375  14.785  17.540  0.00  0.00     0.140 A 
ATOM     12  C   UNL d   1     -40.020  14.119  17.897  0.00  0.00     0.030 A 
ATOM     13  F   UNL d   1     -40.499  14.814  16.727  0.00  0.00    -0.204 F 
ATOM     14  C   UNL d   1     -39.900  14.096  18.704  0.00  0.00     0.004 A 
ENDBRANCH   4   8
BRANCH   6  15
ATOM     15  C   UNL d   1     -41.651  13.709  21.068  0.00  0.00     0.127 C 
BRANCH  15  16
ATOM     16  S   UNL d   1     -42.354  13.302  20.948  0.00  0.00    -0.089 SA
BRANCH  16  17
ATOM     17  C   UNL d   1     -42.991  13.431  21.449  0.00  0.00     0.103 C 
BRANCH  17  18
ATOM     18  C   UNL d   1     -43.545  12.838  21.586  0.00  0.00     0.307 C 
ATOM     19  O   UNL d   1     -43.287  12.080  21.795  0.00  0.00    -0.258 OA
BRANCH  18  20
ATOM     20  O   UNL d   1     -44.357  12.993  21.518  0.00  0.00    -0.271 OA
BRANCH  20  21
ATOM     21  C   UNL d   1     -44.846  12.926  22.173  0.00  0.00     0.126 C 
BRANCH  21  22
ATOM     22  C   UNL d   1     -45.586  13.309  22.178  0.00  0.00     0.027 C 
BRANCH  22  23
ATOM     23  C   UNL d   1     -46.144  13.120  22.756  0.00  0.00     0.002 C 
ATOM     24  C   UNL d   1     -46.737  13.664  22.933  0.00  0.00     0.000 C 
ENDBRANCH  22  23
ENDBRANCH  21  22
ENDBRANCH  20  21
ENDBRANCH  18  20
ENDBRANCH  17  18
ENDBRANCH  16  17
ENDBRANCH  15  16
ENDBRANCH   6  15
BRANCH   3  25
ATOM     25  C   UNL d   1     -38.936  15.112  21.775  0.00  0.00     0.049 A 
ATOM     26  S   UNL d   1     -38.262  14.792  22.109  0.00  0.00    -0.085 SA
ATOM     27  C   UNL d   1     -38.014  15.286  22.717  0.00  0.00     0.035 A 
ATOM     28  C   UNL d   1     -38.538  15.922  22.765  0.00  0.00     0.007 A 
ATOM     29  C   UNL d   1     -39.112  15.817  22.181  0.00  0.00     0.009 A 
ENDBRANCH   3  25
TORSDOF 10
ENDMDL
