MODEL 1
REMARK VINA RESULT:      -3.8      0.000      0.000
REMARK  6 active torsions:
REMARK  status: ('A' for Active; 'I' for Inactive)
REMARK    1  A    between atoms: N_2  and  S_1 
REMARK    2  A    between atoms: C_5  and  S_1 
REMARK    3  A    between atoms: S_8  and  C_3 
REMARK    4  A    between atoms: C_13  and  S_8 
REMARK    5  A    between atoms: C_17  and  C_13 
REMARK    6  A    between atoms: O_21  and  C_15 
ROOT
ATOM      1  N   UNL d   1     -41.412-122.514 -51.837  0.00  0.00    -0.208 N 
ATOM      2  C   UNL d   1     -41.420-122.821 -52.609  0.00  0.00     0.189 A 
ATOM      3  N   UNL d   1     -41.241-123.628 -52.568  0.00  0.00    -0.219 NA
ATOM      4  C   UNL d   1     -41.227-123.136 -51.317  0.00  0.00     0.114 A 
ATOM      5  C   UNL d   1     -41.123-123.817 -51.769  0.00  0.00     0.121 A 
ENDROOT
BRANCH   1   6
ATOM      6  S   UNL d   1     -41.563-121.727 -51.628  0.00  0.00     0.273 S 
ATOM      7  O   UNL d   1     -41.582-120.899 -51.631  0.00  0.00    -0.200 OA
ATOM      8  O   UNL d   1     -41.150-121.506 -52.298  0.00  0.00    -0.200 OA
BRANCH   6   9
ATOM      9  C   UNL d   1     -41.984-121.930 -50.946  0.00  0.00     0.104 A 
ATOM     10  C   UNL d   1     -41.584-122.272 -50.314  0.00  0.00     0.015 A 
ATOM     11  C   UNL d   1     -42.012-122.472 -49.635  0.00  0.00     0.025 A 
ATOM     12  C   UNL d   1     -42.828-122.328 -49.600  0.00  0.00     0.094 A 
ATOM     13  C   UNL d   1     -43.219-121.987 -50.235  0.00  0.00     0.025 A 
ATOM     14  C   UNL d   1     -42.791-121.786 -50.914  0.00  0.00     0.015 A 
BRANCH  12  15
ATOM     15  O   UNL d   1     -43.245-122.532 -48.919  0.00  0.00    -0.328 OA
ATOM     16  C   UNL d   1     -43.000-123.188 -48.474  0.00  0.00     0.181 C 
ENDBRANCH  12  15
ENDBRANCH   6   9
ENDBRANCH   1   6
BRANCH   2  17
ATOM     17  S   UNL d   1     -41.580-122.391 -53.303  0.00  0.00    -0.049 SA
BRANCH  17  18
ATOM     18  C   UNL d   1     -41.553-122.770 -54.035  0.00  0.00     0.038 C 
BRANCH  18  19
ATOM     19  C   UNL d   1     -41.952-122.446 -54.678  0.00  0.00     0.009 A 
ATOM     20  C   UNL d   1     -41.545-121.940 -55.211  0.00  0.00     0.030 A 
ATOM     21  C   UNL d   1     -41.937-121.615 -55.852  0.00  0.00     0.140 A 
ATOM     22  F   UNL d   1     -41.533-121.116 -56.375  0.00  0.00    -0.204 F 
ATOM     23  C   UNL d   1     -42.741-121.786 -55.980  0.00  0.00     0.030 A 
ATOM     24  C   UNL d   1     -43.142-122.283 -55.458  0.00  0.00     0.002 A 
ATOM     25  C   UNL d   1     -42.746-122.614 -54.806  0.00  0.00     0.001 A 
ENDBRANCH  18  19
ENDBRANCH  17  18
ENDBRANCH   2  17
TORSDOF 6
ENDMDL
MODEL 2
REMARK VINA RESULT:      -2.5      1.996      4.675
REMARK  6 active torsions:
REMARK  status: ('A' for Active; 'I' for Inactive)
REMARK    1  A    between atoms: N_2  and  S_1 
REMARK    2  A    between atoms: C_5  and  S_1 
REMARK    3  A    between atoms: S_8  and  C_3 
REMARK    4  A    between atoms: C_13  and  S_8 
REMARK    5  A    between atoms: C_17  and  C_13 
REMARK    6  A    between atoms: O_21  and  C_15 
ROOT
ATOM      1  N   UNL d   1     -41.356-122.553 -52.778  0.00  0.00    -0.208 N 
ATOM      2  C   UNL d   1     -41.388-123.037 -52.103  0.00  0.00     0.189 A 
ATOM      3  N   UNL d   1     -41.243-123.817 -52.337  0.00  0.00    -0.219 NA
ATOM      4  C   UNL d   1     -41.191-123.040 -53.432  0.00  0.00     0.114 A 
ATOM      5  C   UNL d   1     -41.123-123.814 -53.157  0.00  0.00     0.121 A 
ENDROOT
BRANCH   1   6
ATOM      6  S   UNL d   1     -41.469-121.733 -52.792  0.00  0.00     0.273 S 
ATOM      7  O   UNL d   1     -41.472-120.933 -52.579  0.00  0.00    -0.200 OA
ATOM      8  O   UNL d   1     -41.123-121.708 -52.052  0.00  0.00    -0.200 OA
BRANCH   6   9
ATOM      9  C   UNL d   1     -41.822-121.738 -53.540  0.00  0.00     0.104 A 
ATOM     10  C   UNL d   1     -42.636-121.640 -53.600  0.00  0.00     0.015 A 
ATOM     11  C   UNL d   1     -42.981-121.646 -54.352  0.00  0.00     0.025 A 
ATOM     12  C   UNL d   1     -42.508-121.750 -55.026  0.00  0.00     0.094 A 
ATOM     13  C   UNL d   1     -41.698-121.847 -54.956  0.00  0.00     0.025 A 
ATOM     14  C   UNL d   1     -41.352-121.841 -54.205  0.00  0.00     0.015 A 
BRANCH  12  15
ATOM     15  O   UNL d   1     -42.863-121.754 -55.771  0.00  0.00    -0.328 OA
ATOM     16  C   UNL d   1     -42.595-122.290 -56.345  0.00  0.00     0.181 C 
ENDBRANCH  12  15
ENDBRANCH   6   9
ENDBRANCH   1   6
BRANCH   2  17
ATOM     17  S   UNL d   1     -41.539-122.779 -51.326  0.00  0.00    -0.049 SA
BRANCH  17  18
ATOM     18  C   UNL d   1     -41.408-123.291 -50.693  0.00  0.00     0.038 C 
BRANCH  18  19
ATOM     19  C   UNL d   1     -41.845-123.205 -50.001  0.00  0.00     0.009 A 
ATOM     20  C   UNL d   1     -42.624-123.517 -49.956  0.00  0.00     0.030 A 
ATOM     21  C   UNL d   1     -43.063-123.434 -49.270  0.00  0.00     0.140 A 
ATOM     22  F   UNL d   1     -43.830-123.743 -49.230  0.00  0.00    -0.204 F 
ATOM     23  C   UNL d   1     -42.739-123.040 -48.613  0.00  0.00     0.030 A 
ATOM     24  C   UNL d   1     -41.975-122.734 -48.654  0.00  0.00     0.002 A 
ATOM     25  C   UNL d   1     -41.527-122.816 -49.350  0.00  0.00     0.001 A 
ENDBRANCH  18  19
ENDBRANCH  17  18
ENDBRANCH   2  17
TORSDOF 6
ENDMDL
