MODEL 1
REMARK VINA RESULT:      48.5      0.000      0.000
REMARK  5 active torsions:
REMARK  status: ('A' for Active; 'I' for Inactive)
REMARK    1  A    between atoms: C_2  and  C_1 
REMARK    2  A    between atoms: C_7  and  C_2 
REMARK    3  A    between atoms: O_17  and  C_6 
REMARK    4  A    between atoms: C_10  and  C_7 
REMARK    5  A    between atoms: O_18  and  C_8 
ROOT
ATOM      1  C   UNL d   1     -50.899  26.434  33.658  0.00  0.00     0.042 C 
ENDROOT
BRANCH   1   2
ATOM      2  C   UNL d   1     -50.772  25.643  33.483  0.00  0.00     0.199 C 
ATOM      3  O   UNL d   1     -49.993  25.373  33.338  0.00  0.00    -0.286 OA
BRANCH   2   4
ATOM      4  C   UNL d   1     -51.399  25.103  33.447  0.00  0.00     0.078 A 
ATOM      5  C   UNL d   1     -51.230  24.288  33.357  0.00  0.00     0.202 A 
ATOM      6  C   UNL d   1     -51.845  23.741  33.319  0.00  0.00     0.084 A 
ATOM      7  O   UNL d   1     -50.437  24.031  33.306  0.00  0.00    -0.286 OA
ATOM      8  C   UNL d   1     -52.618  23.997  33.370  0.00  0.00     0.199 A 
ATOM      9  C   UNL d   1     -52.788  24.812  33.459  0.00  0.00     0.042 A 
ATOM     10  O   UNL d   1     -53.242  23.449  33.332  0.00  0.00    -0.286 OA
ATOM     11  C   UNL d   1     -52.180  25.349  33.496  0.00  0.00     0.010 A 
ENDBRANCH   2   4
ENDBRANCH   1   2
BRANCH   1  12
ATOM     12  C   UNL d   1     -50.288  26.915  33.933  0.00  0.00     0.005 A 
ATOM     13  C   UNL d   1     -50.167  26.997  34.734  0.00  0.00     0.026 A 
ATOM     14  C   UNL d   1     -49.548  27.485  35.003  0.00  0.00     0.116 A 
ATOM     15  C   UNL d   1     -49.064  27.879  34.477  0.00  0.00     0.116 A 
ATOM     16  C   UNL d   1     -49.193  27.790  33.654  0.00  0.00     0.026 A 
ATOM     17  C   UNL d   1     -49.812  27.303  33.376  0.00  0.00     0.002 A 
BRANCH  14  18
ATOM     18  O   UNL d   1     -49.420  27.573  35.820  0.00  0.00    -0.326 OA
ATOM     19  C   UNL d   1     -49.665  26.981  36.343  0.00  0.00     0.181 C 
ENDBRANCH  14  18
BRANCH  15  20
ATOM     20  O   UNL d   1     -48.447  28.365  34.729  0.00  0.00    -0.326 OA
ATOM     21  C   UNL d   1     -48.491  29.178  34.646  0.00  0.00     0.181 C 
ENDBRANCH  15  20
ENDBRANCH   1  12
TORSDOF 5
ENDMDL
