MODEL 1
REMARK VINA RESULT:      -2.2      0.000      0.000
REMARK  6 active torsions:
REMARK  status: ('A' for Active; 'I' for Inactive)
REMARK    1  A    between atoms: C_2  and  S_1 
REMARK    2  A    between atoms: N_4  and  S_1 
REMARK    3  A    between atoms: C_9  and  C_17 
REMARK       I    between atoms: N_20  and  C_9 
REMARK    4  A    between atoms: C_18  and  C_25 
REMARK    5  A    between atoms: C_24  and  N_20 
REMARK    6  A    between atoms: C_25  and  C_24 
ROOT
ATOM      1  N   UNL d   1     -41.832-121.888 -53.054  0.00  0.00    -0.229 N 
ATOM      2  C   UNL d   1     -41.126-122.207 -52.758  0.00  0.00     0.092 A 
ATOM      3  C   UNL d   1     -42.528-121.969 -52.621  0.00  0.00     0.092 A 
ATOM      4  C   UNL d   1     -41.824-122.681 -51.600  0.00  0.00     0.061 A 
ATOM      5  C   UNL d   1     -42.524-122.364 -51.897  0.00  0.00     0.025 A 
ATOM      6  C   UNL d   1     -41.123-122.602 -52.034  0.00  0.00     0.025 A 
ENDROOT
BRANCH   1   7
ATOM      7  S   UNL d   1     -41.836-121.491 -53.782  0.00  0.00     0.273 S 
ATOM      8  O   UNL d   1     -41.840-121.098 -54.504  0.00  0.00    -0.200 OA
ATOM      9  O   UNL d   1     -41.874-120.768 -53.387  0.00  0.00    -0.200 OA
BRANCH   7  10
ATOM     10  C   UNL d   1     -41.797-122.218 -54.179  0.00  0.00     0.125 A 
ATOM     11  C   UNL d   1     -42.324-122.387 -54.791  0.00  0.00     0.142 A 
ATOM     12  C   UNL d   1     -42.286-123.109 -55.185  0.00  0.00     0.131 A 
ATOM     13  N   UNL d   1     -42.939-121.942 -55.122  0.00  0.00    -0.101 NA
ATOM     14  N   UNL d   1     -42.877-123.117 -55.763  0.00  0.00    -0.102 NA
ATOM     15  C   UNL d   1     -41.721-123.670 -54.971  0.00  0.00     0.023 A 
ATOM     16  O   UNL d   1     -43.279-122.402 -55.726  0.00  0.00    -0.106 OA
ATOM     17  C   UNL d   1     -41.187-123.504 -54.354  0.00  0.00     0.002 A 
ATOM     18  C   UNL d   1     -41.225-122.782 -53.960  0.00  0.00     0.015 A 
ENDBRANCH   7  10
ENDBRANCH   1   7
BRANCH   4  19
ATOM     19  C   UNL d   1     -41.827-123.073 -50.879  0.00  0.00     0.279 C 
ATOM     20  O   UNL d   1     -42.182-123.805 -50.808  0.00  0.00    -0.265 OA
ATOM     21  N   UNL d   1     -41.465-122.726 -50.215  0.00  0.00    -0.206 NA
BRANCH  21  22
ATOM     22  C   UNL d   1     -41.466-123.123 -49.480  0.00  0.00     0.102 C 
BRANCH  22  23
ATOM     23  C   UNL d   1     -41.507-122.692 -48.771  0.00  0.00     0.021 C 
BRANCH  23  24
ATOM     24  C   UNL d   1     -41.773-123.064 -48.080  0.00  0.00     0.002 A 
ATOM     25  C   UNL d   1     -42.539-123.348 -48.033  0.00  0.00     0.000 A 
ATOM     26  C   UNL d   1     -42.805-123.720 -47.341  0.00  0.00     0.000 A 
ATOM     27  C   UNL d   1     -42.303-123.806 -46.698  0.00  0.00     0.000 A 
ATOM     28  C   UNL d   1     -41.524-123.518 -46.741  0.00  0.00     0.000 A 
ATOM     29  C   UNL d   1     -41.258-123.147 -47.433  0.00  0.00     0.000 A 
ENDBRANCH  23  24
ENDBRANCH  22  23
ENDBRANCH  21  22
ENDBRANCH   4  19
TORSDOF 6
ENDMDL
MODEL 2
REMARK VINA RESULT:      -2.0      1.942      6.015
REMARK  6 active torsions:
REMARK  status: ('A' for Active; 'I' for Inactive)
REMARK    1  A    between atoms: C_2  and  S_1 
REMARK    2  A    between atoms: N_4  and  S_1 
REMARK    3  A    between atoms: C_9  and  C_17 
REMARK       I    between atoms: N_20  and  C_9 
REMARK    4  A    between atoms: C_18  and  C_25 
REMARK    5  A    between atoms: C_24  and  N_20 
REMARK    6  A    between atoms: C_25  and  C_24 
ROOT
ATOM      1  N   UNL d   1     -42.817-123.140 -49.757  0.00  0.00    -0.229 N 
ATOM      2  C   UNL d   1     -42.461-122.393 -49.709  0.00  0.00     0.092 A 
ATOM      3  C   UNL d   1     -42.758-123.574 -50.455  0.00  0.00     0.092 A 
ATOM      4  C   UNL d   1     -41.995-122.525 -51.058  0.00  0.00     0.061 A 
ATOM      5  C   UNL d   1     -42.349-123.267 -51.103  0.00  0.00     0.025 A 
ATOM      6  C   UNL d   1     -42.052-122.087 -50.357  0.00  0.00     0.025 A 
ENDROOT
BRANCH   1   7
ATOM      7  S   UNL d   1     -43.228-123.448 -49.106  0.00  0.00     0.273 S 
ATOM      8  O   UNL d   1     -43.635-123.753 -48.461  0.00  0.00    -0.200 OA
ATOM      9  O   UNL d   1     -43.927-123.441 -49.545  0.00  0.00    -0.200 OA
BRANCH   7  10
ATOM     10  C   UNL d   1     -42.525-123.454 -48.666  0.00  0.00     0.125 A 
ATOM     11  C   UNL d   1     -42.501-123.110 -47.917  0.00  0.00     0.142 A 
ATOM     12  C   UNL d   1     -41.803-123.116 -47.479  0.00  0.00     0.131 A 
ATOM     13  N   UNL d   1     -43.083-122.723 -47.473  0.00  0.00    -0.101 NA
ATOM     14  N   UNL d   1     -41.947-122.734 -46.761  0.00  0.00    -0.102 NA
ATOM     15  C   UNL d   1     -41.123-123.468 -47.786  0.00  0.00     0.023 A 
ATOM     16  O   UNL d   1     -42.732-122.492 -46.754  0.00  0.00    -0.106 OA
ATOM     17  C   UNL d   1     -41.143-123.817 -48.541  0.00  0.00     0.002 A 
ATOM     18  C   UNL d   1     -41.841-123.810 -48.979  0.00  0.00     0.015 A 
ENDBRANCH   7  10
ENDBRANCH   1   7
BRANCH   4  19
ATOM     19  C   UNL d   1     -41.589-122.226 -51.705  0.00  0.00     0.279 C 
ATOM     20  O   UNL d   1     -41.136-121.550 -51.631  0.00  0.00    -0.265 OA
ATOM     21  N   UNL d   1     -41.637-122.609 -52.442  0.00  0.00    -0.206 NA
BRANCH  21  22
ATOM     22  C   UNL d   1     -41.226-122.307 -53.102  0.00  0.00     0.102 C 
BRANCH  22  23
ATOM     23  C   UNL d   1     -41.573-121.726 -53.582  0.00  0.00     0.021 C 
BRANCH  23  24
ATOM     24  C   UNL d   1     -41.773-121.907 -54.366  0.00  0.00     0.002 A 
ATOM     25  C   UNL d   1     -41.237-122.294 -54.849  0.00  0.00     0.000 A 
ATOM     26  C   UNL d   1     -41.437-122.475 -55.633  0.00  0.00     0.000 A 
ATOM     27  C   UNL d   1     -42.173-122.269 -55.932  0.00  0.00     0.000 A 
ATOM     28  C   UNL d   1     -42.721-121.877 -55.444  0.00  0.00     0.000 A 
ATOM     29  C   UNL d   1     -42.521-121.696 -54.660  0.00  0.00     0.000 A 
ENDBRANCH  23  24
ENDBRANCH  22  23
ENDBRANCH  21  22
ENDBRANCH   4  19
TORSDOF 6
ENDMDL
