MODEL 1
REMARK VINA RESULT:      -5.5      0.000      0.000
REMARK  4 active torsions:
REMARK  status: ('A' for Active; 'I' for Inactive)
REMARK    1  A    between atoms: N_5  and  C_1 
REMARK    2  A    between atoms: C_4  and  N_6 
REMARK    3  A    between atoms: N_11  and  C_4 
REMARK    4  A    between atoms: N_6  and  N_5 
ROOT
ATOM      1  C   UNL d   1     -48.473  14.238  22.667  0.00  0.00     0.768 A 
ATOM      2  N   UNL d   1     -48.952  13.847  22.126  0.00  0.00    -0.058 NA
ATOM      3  N   UNL d   1     -48.794  14.830  23.150  0.00  0.00    -0.058 NA
ATOM      4  C   UNL d   1     -49.753  14.042  22.060  0.00  0.00     0.102 A 
ATOM      5  C   UNL d   1     -49.595  15.025  23.084  0.00  0.00     0.102 A 
ATOM      6  C   UNL d   1     -50.074  14.634  22.543  0.00  0.00     0.040 A 
ATOM      7  C   UNL d   1     -49.916  15.615  23.564  0.00  0.00     0.021 C 
ATOM      8  C   UNL d   1     -50.232  13.648  21.516  0.00  0.00     0.021 C 
ENDROOT
BRANCH   1   9
ATOM      9  N   UNL d   1     -47.677  14.043  22.731  0.00  0.00     0.049 NA
BRANCH   9  10
ATOM     10  N   UNL d   1     -47.458  13.268  22.900  0.00  0.00    -0.101 NA
BRANCH  10  11
ATOM     11  C   UNL d   1     -46.672  13.089  23.042  0.00  0.00     0.241 C 
ATOM     12  S   UNL d   1     -46.093  13.358  22.530  0.00  0.00    -0.035 SA
BRANCH  11  13
ATOM     13  N   UNL d   1     -46.467  12.641  23.697  0.00  0.00    -0.213 NA
ATOM     14  C   UNL d   1     -46.118  11.903  23.598  0.00  0.00     0.122 C 
ENDBRANCH  11  13
ENDBRANCH  10  11
ENDBRANCH   9  10
ENDBRANCH   1   9
TORSDOF 4
ENDMDL
MODEL 2
REMARK VINA RESULT:      -5.5      1.473      3.558
REMARK  4 active torsions:
REMARK  status: ('A' for Active; 'I' for Inactive)
REMARK    1  A    between atoms: N_5  and  C_1 
REMARK    2  A    between atoms: C_4  and  N_6 
REMARK    3  A    between atoms: N_11  and  C_4 
REMARK    4  A    between atoms: N_6  and  N_5 
ROOT
ATOM      1  C   UNL d   1     -47.948  13.367  23.053  0.00  0.00     0.768 A 
ATOM      2  N   UNL d   1     -47.906  12.606  23.359  0.00  0.00    -0.058 NA
ATOM      3  N   UNL d   1     -47.262  13.737  22.772  0.00  0.00    -0.058 NA
ATOM      4  C   UNL d   1     -47.183  12.207  23.389  0.00  0.00     0.102 A 
ATOM      5  C   UNL d   1     -46.538  13.339  22.801  0.00  0.00     0.102 A 
ATOM      6  C   UNL d   1     -46.496  12.577  23.108  0.00  0.00     0.040 A 
ATOM      7  C   UNL d   1     -45.854  13.706  22.522  0.00  0.00     0.021 C 
ATOM      8  C   UNL d   1     -47.143  11.443  23.697  0.00  0.00     0.021 C 
ENDROOT
BRANCH   1   9
ATOM      9  N   UNL d   1     -48.669  13.763  23.024  0.00  0.00     0.049 NA
BRANCH   9  10
ATOM     10  N   UNL d   1     -49.091  13.790  22.318  0.00  0.00    -0.101 NA
BRANCH  10  11
ATOM     11  C   UNL d   1     -49.855  14.084  22.313  0.00  0.00     0.241 C 
ATOM     12  S   UNL d   1     -50.011  14.825  22.624  0.00  0.00    -0.035 SA
BRANCH  11  13
ATOM     13  N   UNL d   1     -50.464  13.635  21.997  0.00  0.00    -0.213 NA
ATOM     14  C   UNL d   1     -51.061  13.998  21.564  0.00  0.00     0.122 C 
ENDBRANCH  11  13
ENDBRANCH  10  11
ENDBRANCH   9  10
ENDBRANCH   1   9
TORSDOF 4
ENDMDL
MODEL 3
REMARK VINA RESULT:      -5.3      1.509      1.886
REMARK  4 active torsions:
REMARK  status: ('A' for Active; 'I' for Inactive)
REMARK    1  A    between atoms: N_5  and  C_1 
REMARK    2  A    between atoms: C_4  and  N_6 
REMARK    3  A    between atoms: N_11  and  C_4 
REMARK    4  A    between atoms: N_6  and  N_5 
ROOT
ATOM      1  C   UNL d   1     -48.688  13.007  22.793  0.00  0.00     0.768 A 
ATOM      2  N   UNL d   1     -49.109  13.179  22.108  0.00  0.00    -0.058 NA
ATOM      3  N   UNL d   1     -48.980  12.445  23.326  0.00  0.00    -0.058 NA
ATOM      4  C   UNL d   1     -49.823  12.794  21.949  0.00  0.00     0.102 A 
ATOM      5  C   UNL d   1     -49.693  12.059  23.168  0.00  0.00     0.102 A 
ATOM      6  C   UNL d   1     -50.115  12.231  22.483  0.00  0.00     0.040 A 
ATOM      7  C   UNL d   1     -49.986  11.498  23.698  0.00  0.00     0.021 C 
ATOM      8  C   UNL d   1     -50.244  12.968  21.261  0.00  0.00     0.021 C 
ENDROOT
BRANCH   1   9
ATOM      9  N   UNL d   1     -47.978  13.392  22.949  0.00  0.00     0.049 NA
BRANCH   9  10
ATOM     10  N   UNL d   1     -47.289  13.145  22.574  0.00  0.00    -0.101 NA
BRANCH  10  11
ATOM     11  C   UNL d   1     -46.578  13.512  22.748  0.00  0.00     0.241 C 
ATOM     12  S   UNL d   1     -46.565  14.307  22.945  0.00  0.00    -0.035 SA
BRANCH  11  13
ATOM     13  N   UNL d   1     -45.880  13.083  22.726  0.00  0.00    -0.213 NA
ATOM     14  C   UNL d   1     -45.283  13.295  22.201  0.00  0.00     0.122 C 
ENDBRANCH  11  13
ENDBRANCH  10  11
ENDBRANCH   9  10
ENDBRANCH   1   9
TORSDOF 4
ENDMDL
MODEL 4
REMARK VINA RESULT:      -4.3      8.532      9.329
REMARK  4 active torsions:
REMARK  status: ('A' for Active; 'I' for Inactive)
REMARK    1  A    between atoms: N_5  and  C_1 
REMARK    2  A    between atoms: C_4  and  N_6 
REMARK    3  A    between atoms: N_11  and  C_4 
REMARK    4  A    between atoms: N_6  and  N_5 
ROOT
ATOM      1  C   UNL d   1     -40.540  14.969  18.561  0.00  0.00     0.768 A 
ATOM      2  N   UNL d   1     -39.965  14.434  18.316  0.00  0.00    -0.058 NA
ATOM      3  N   UNL d   1     -40.939  15.430  18.000  0.00  0.00    -0.058 NA
ATOM      4  C   UNL d   1     -39.784  14.354  17.514  0.00  0.00     0.102 A 
ATOM      5  C   UNL d   1     -40.757  15.351  17.198  0.00  0.00     0.102 A 
ATOM      6  C   UNL d   1     -40.183  14.816  16.953  0.00  0.00     0.040 A 
ATOM      7  C   UNL d   1     -41.154  15.810  16.638  0.00  0.00     0.021 C 
ATOM      8  C   UNL d   1     -39.207  13.817  17.270  0.00  0.00     0.021 C 
ENDROOT
BRANCH   1   9
ATOM      9  N   UNL d   1     -40.719  15.047  19.359  0.00  0.00     0.049 NA
BRANCH   9  10
ATOM     10  N   UNL d   1     -40.342  15.624  19.808  0.00  0.00    -0.101 NA
BRANCH  10  11
ATOM     11  C   UNL d   1     -40.487  15.672  20.612  0.00  0.00     0.241 C 
ATOM     12  S   UNL d   1     -41.218  15.922  20.882  0.00  0.00    -0.035 SA
BRANCH  11  13
ATOM     13  N   UNL d   1     -39.899  15.471  21.147  0.00  0.00    -0.213 NA
ATOM     14  C   UNL d   1     -39.795  15.915  21.832  0.00  0.00     0.122 C 
ENDBRANCH  11  13
ENDBRANCH  10  11
ENDBRANCH   9  10
ENDBRANCH   1   9
TORSDOF 4
ENDMDL
MODEL 5
REMARK VINA RESULT:      -4.1      1.780      2.535
REMARK  4 active torsions:
REMARK  status: ('A' for Active; 'I' for Inactive)
REMARK    1  A    between atoms: N_5  and  C_1 
REMARK    2  A    between atoms: C_4  and  N_6 
REMARK    3  A    between atoms: N_11  and  C_4 
REMARK    4  A    between atoms: N_6  and  N_5 
ROOT
ATOM      1  C   UNL d   1     -46.622  13.519  22.858  0.00  0.00     0.768 A 
ATOM      2  N   UNL d   1     -46.879  14.281  22.686  0.00  0.00    -0.058 NA
ATOM      3  N   UNL d   1     -47.173  12.934  23.059  0.00  0.00    -0.058 NA
ATOM      4  C   UNL d   1     -47.684  14.466  22.711  0.00  0.00     0.102 A 
ATOM      5  C   UNL d   1     -47.979  13.119  23.085  0.00  0.00     0.102 A 
ATOM      6  C   UNL d   1     -48.235  13.881  22.912  0.00  0.00     0.040 A 
ATOM      7  C   UNL d   1     -48.529  12.537  23.285  0.00  0.00     0.021 C 
ATOM      8  C   UNL d   1     -47.939  15.231  22.537  0.00  0.00     0.021 C 
ENDROOT
BRANCH   1   9
ATOM      9  N   UNL d   1     -45.821  13.337  22.833  0.00  0.00     0.049 NA
BRANCH   9  10
ATOM     10  N   UNL d   1     -45.509  12.962  22.170  0.00  0.00    -0.101 NA
BRANCH  10  11
ATOM     11  C   UNL d   1     -44.714  12.766  22.150  0.00  0.00     0.241 C 
ATOM     12  S   UNL d   1     -44.451  12.088  22.527  0.00  0.00    -0.035 SA
BRANCH  11  13
ATOM     13  N   UNL d   1     -44.183  13.248  21.754  0.00  0.00    -0.213 NA
ATOM     14  C   UNL d   1     -43.526  12.920  21.384  0.00  0.00     0.122 C 
ENDBRANCH  11  13
ENDBRANCH  10  11
ENDBRANCH   9  10
ENDBRANCH   1   9
TORSDOF 4
ENDMDL
