MODEL 1
REMARK VINA RESULT:      -7.3      0.000      0.000
REMARK  4 active torsions:
REMARK  status: ('A' for Active; 'I' for Inactive)
REMARK    1  A    between atoms: C_4  and  S_1 
REMARK    2  A    between atoms: N_8  and  S_1 
REMARK    3  A    between atoms: C_5  and  C_11 
REMARK    4  A    between atoms: C_16  and  N_8 
ROOT
ATOM      1  C   UNL d   1     -39.892  14.881  21.047  0.00  0.00     0.021 A 
ATOM      2  C   UNL d   1     -40.117  14.949  19.629  0.00  0.00     0.094 A 
ATOM      3  C   UNL d   1     -39.676  14.672  20.266  0.00  0.00     0.021 A 
ATOM      4  C   UNL d   1     -40.544  15.362  21.176  0.00  0.00     0.002 A 
ATOM      5  C   UNL d   1     -40.996  15.646  20.538  0.00  0.00     0.002 A 
ATOM      6  C   UNL d   1     -40.780  15.438  19.757  0.00  0.00     0.020 A 
ENDROOT
BRANCH   2   7
ATOM      7  N   UNL d   1     -39.907  14.745  18.866  0.00  0.00    -0.158 NA
BRANCH   7   8
ATOM      8  S   UNL d   1     -40.376  14.226  18.434  0.00  0.00     0.287 S 
ATOM      9  O   UNL d   1     -40.862  14.121  19.080  0.00  0.00    -0.198 OA
ATOM     10  O   UNL d   1     -40.858  13.702  18.008  0.00  0.00    -0.198 OA
BRANCH   8  11
ATOM     11  C   UNL d   1     -39.891  14.327  17.775  0.00  0.00     0.133 A 
ATOM     12  C   UNL d   1     -39.355  13.737  17.571  0.00  0.00     0.155 A 
ATOM     13  C   UNL d   1     -38.868  13.829  16.917  0.00  0.00     0.060 A 
ATOM     14  F   UNL d   1     -39.304  13.048  18.023  0.00  0.00    -0.203 F 
ATOM     15  C   UNL d   1     -38.916  14.523  16.458  0.00  0.00     0.142 A 
ATOM     16  C   UNL d   1     -39.455  15.112  16.667  0.00  0.00     0.030 A 
ATOM     17  F   UNL d   1     -38.426  14.618  15.799  0.00  0.00    -0.204 F 
ATOM     18  C   UNL d   1     -39.938  15.017  17.318  0.00  0.00     0.018 A 
ENDBRANCH   8  11
ENDBRANCH   7   8
ENDBRANCH   2   7
BRANCH   1  19
ATOM     19  C   UNL d   1     -39.450  14.604  21.684  0.00  0.00     0.101 A 
ATOM     20  N   UNL d   1     -39.429  13.827  21.952  0.00  0.00    -0.221 NA
ATOM     21  C   UNL d   1     -38.916  13.789  22.605  0.00  0.00     0.179 A 
ATOM     22  S   UNL d   1     -38.588  13.301  23.167  0.00  0.00    -0.048 SA
ATOM     23  N   UNL d   1     -38.623  14.563  22.729  0.00  0.00    -0.282 N 
ATOM     24  C   UNL d   1     -38.090  13.752  23.648  0.00  0.00     0.057 A 
ATOM     25  C   UNL d   1     -38.110  14.534  23.379  0.00  0.00     0.089 A 
ATOM     26  C   UNL d   1     -38.961  15.056  22.155  0.00  0.00     0.101 A 
ENDBRANCH   1  19
TORSDOF 4
ENDMDL
MODEL 2
REMARK VINA RESULT:      -6.9      8.113      9.211
REMARK  4 active torsions:
REMARK  status: ('A' for Active; 'I' for Inactive)
REMARK    1  A    between atoms: C_4  and  S_1 
REMARK    2  A    between atoms: N_8  and  S_1 
REMARK    3  A    between atoms: C_5  and  C_11 
REMARK    4  A    between atoms: C_16  and  N_8 
ROOT
ATOM      1  C   UNL d   1     -45.972  12.819  22.877  0.00  0.00     0.021 A 
ATOM      2  C   UNL d   1     -47.306  13.350  22.806  0.00  0.00     0.094 A 
ATOM      3  C   UNL d   1     -46.801  12.714  22.932  0.00  0.00     0.021 A 
ATOM      4  C   UNL d   1     -45.666  13.558  22.697  0.00  0.00     0.002 A 
ATOM      5  C   UNL d   1     -46.169  14.208  22.567  0.00  0.00     0.002 A 
ATOM      6  C   UNL d   1     -46.998  14.103  22.622  0.00  0.00     0.020 A 
ENDROOT
BRANCH   2   7
ATOM      7  N   UNL d   1     -48.115  13.248  22.859  0.00  0.00    -0.158 NA
BRANCH   7   8
ATOM      8  S   UNL d   1     -48.587  13.337  22.191  0.00  0.00     0.287 S 
ATOM      9  O   UNL d   1     -47.982  13.731  21.812  0.00  0.00    -0.198 OA
ATOM     10  O   UNL d   1     -49.053  13.434  21.512  0.00  0.00    -0.198 OA
BRANCH   8  11
ATOM     11  C   UNL d   1     -49.204  12.941  22.567  0.00  0.00     0.133 A 
ATOM     12  C   UNL d   1     -49.884  13.353  22.778  0.00  0.00     0.155 A 
ATOM     13  C   UNL d   1     -50.503  12.965  23.153  0.00  0.00     0.060 A 
ATOM     14  F   UNL d   1     -49.948  14.159  22.614  0.00  0.00    -0.203 F 
ATOM     15  C   UNL d   1     -50.443  12.152  23.320  0.00  0.00     0.142 A 
ATOM     16  C   UNL d   1     -49.759  11.742  23.107  0.00  0.00     0.030 A 
ATOM     17  F   UNL d   1     -51.064  11.759  23.698  0.00  0.00    -0.204 F 
ATOM     18  C   UNL d   1     -49.145  12.131  22.734  0.00  0.00     0.018 A 
ENDBRANCH   8  11
ENDBRANCH   7   8
ENDBRANCH   2   7
BRANCH   1  19
ATOM     19  C   UNL d   1     -45.467  12.182  23.004  0.00  0.00     0.101 A 
ATOM     20  N   UNL d   1     -45.638  11.516  23.455  0.00  0.00    -0.221 NA
ATOM     21  C   UNL d   1     -44.977  11.012  23.437  0.00  0.00     0.179 A 
ATOM     22  S   UNL d   1     -44.673  10.303  23.696  0.00  0.00    -0.048 SA
ATOM     23  N   UNL d   1     -44.398  11.386  22.963  0.00  0.00    -0.282 N 
ATOM     24  C   UNL d   1     -43.908  10.220  23.394  0.00  0.00     0.057 A 
ATOM     25  C   UNL d   1     -43.735  10.889  22.941  0.00  0.00     0.089 A 
ATOM     26  C   UNL d   1     -44.713  12.107  22.703  0.00  0.00     0.101 A 
ENDBRANCH   1  19
TORSDOF 4
ENDMDL
MODEL 3
REMARK VINA RESULT:      -6.4      8.110      9.172
REMARK  4 active torsions:
REMARK  status: ('A' for Active; 'I' for Inactive)
REMARK    1  A    between atoms: C_4  and  S_1 
REMARK    2  A    between atoms: N_8  and  S_1 
REMARK    3  A    between atoms: C_5  and  C_11 
REMARK    4  A    between atoms: C_16  and  N_8 
ROOT
ATOM      1  C   UNL d   1     -46.760  11.360  23.397  0.00  0.00     0.021 A 
ATOM      2  C   UNL d   1     -47.813  12.308  23.154  0.00  0.00     0.094 A 
ATOM      3  C   UNL d   1     -47.014  12.113  23.134  0.00  0.00     0.021 A 
ATOM      4  C   UNL d   1     -47.310  10.818  23.674  0.00  0.00     0.002 A 
ATOM      5  C   UNL d   1     -48.120  11.006  23.698  0.00  0.00     0.002 A 
ATOM      6  C   UNL d   1     -48.374  11.760  23.435  0.00  0.00     0.020 A 
ENDROOT
BRANCH   2   7
ATOM      7  N   UNL d   1     -48.060  13.043  22.897  0.00  0.00    -0.158 NA
BRANCH   7   8
ATOM      8  S   UNL d   1     -48.449  13.119  22.176  0.00  0.00     0.287 S 
ATOM      9  O   UNL d   1     -48.103  12.428  21.913  0.00  0.00    -0.198 OA
ATOM     10  O   UNL d   1     -48.835  13.184  21.445  0.00  0.00    -0.198 OA
BRANCH   8  11
ATOM     11  C   UNL d   1     -48.803  13.817  22.433  0.00  0.00     0.133 A 
ATOM     12  C   UNL d   1     -48.382  14.523  22.400  0.00  0.00     0.155 A 
ATOM     13  C   UNL d   1     -48.727  15.223  22.654  0.00  0.00     0.060 A 
ATOM     14  F   UNL d   1     -47.609  14.532  22.110  0.00  0.00    -0.203 F 
ATOM     15  C   UNL d   1     -49.507  15.219  22.948  0.00  0.00     0.142 A 
ATOM     16  C   UNL d   1     -49.925  14.508  22.980  0.00  0.00     0.030 A 
ATOM     17  F   UNL d   1     -49.857  15.922  23.205  0.00  0.00    -0.204 F 
ATOM     18  C   UNL d   1     -49.579  13.814  22.726  0.00  0.00     0.018 A 
ENDBRANCH   8  11
ENDBRANCH   7   8
ENDBRANCH   2   7
BRANCH   1  19
ATOM     19  C   UNL d   1     -45.961  11.164  23.377  0.00  0.00     0.101 A 
ATOM     20  N   UNL d   1     -45.365  11.612  23.031  0.00  0.00    -0.221 NA
ATOM     21  C   UNL d   1     -44.644  11.214  23.136  0.00  0.00     0.179 A 
ATOM     22  S   UNL d   1     -43.842  11.238  22.994  0.00  0.00    -0.048 SA
ATOM     23  N   UNL d   1     -44.813  10.510  23.556  0.00  0.00    -0.282 N 
ATOM     24  C   UNL d   1     -43.499  10.560  23.316  0.00  0.00     0.057 A 
ATOM     25  C   UNL d   1     -44.097  10.107  23.665  0.00  0.00     0.089 A 
ATOM     26  C   UNL d   1     -45.629  10.492  23.698  0.00  0.00     0.101 A 
ENDBRANCH   1  19
TORSDOF 4
ENDMDL
MODEL 4
REMARK VINA RESULT:      -6.3      7.905      9.179
REMARK  4 active torsions:
REMARK  status: ('A' for Active; 'I' for Inactive)
REMARK    1  A    between atoms: C_4  and  S_1 
REMARK    2  A    between atoms: N_8  and  S_1 
REMARK    3  A    between atoms: C_5  and  C_11 
REMARK    4  A    between atoms: C_16  and  N_8 
ROOT
ATOM      1  C   UNL d   1     -48.479  12.378  22.819  0.00  0.00     0.021 A 
ATOM      2  C   UNL d   1     -47.061  12.177  22.946  0.00  0.00     0.094 A 
ATOM      3  C   UNL d   1     -47.694  12.583  22.613  0.00  0.00     0.021 A 
ATOM      4  C   UNL d   1     -48.615  11.771  23.355  0.00  0.00     0.002 A 
ATOM      5  C   UNL d   1     -47.981  11.355  23.697  0.00  0.00     0.002 A 
ATOM      6  C   UNL d   1     -47.196  11.560  23.491  0.00  0.00     0.020 A 
ENDROOT
BRANCH   2   7
ATOM      7  N   UNL d   1     -46.295  12.377  22.745  0.00  0.00    -0.158 NA
BRANCH   7   8
ATOM      8  S   UNL d   1     -45.911  12.988  23.140  0.00  0.00     0.287 S 
ATOM      9  O   UNL d   1     -46.572  13.108  23.603  0.00  0.00    -0.198 OA
ATOM     10  O   UNL d   1     -45.535  13.605  23.546  0.00  0.00    -0.198 OA
BRANCH   8  11
ATOM     11  C   UNL d   1     -45.239  12.873  22.677  0.00  0.00     0.133 A 
ATOM     12  C   UNL d   1     -45.037  13.432  22.107  0.00  0.00     0.155 A 
ATOM     13  C   UNL d   1     -44.370  13.325  21.642  0.00  0.00     0.060 A 
ATOM     14  F   UNL d   1     -45.505  14.103  22.001  0.00  0.00    -0.203 F 
ATOM     15  C   UNL d   1     -43.895  12.648  21.746  0.00  0.00     0.142 A 
ATOM     16  C   UNL d   1     -44.101  12.091  22.318  0.00  0.00     0.030 A 
ATOM     17  F   UNL d   1     -43.222  12.538  21.279  0.00  0.00    -0.204 F 
ATOM     18  C   UNL d   1     -44.766  12.200  22.780  0.00  0.00     0.018 A 
ENDBRANCH   8  11
ENDBRANCH   7   8
ENDBRANCH   2   7
BRANCH   1  19
ATOM     19  C   UNL d   1     -49.112  12.783  22.486  0.00  0.00     0.101 A 
ATOM     20  N   UNL d   1     -49.611  13.304  22.881  0.00  0.00    -0.221 NA
ATOM     21  C   UNL d   1     -50.173  13.590  22.340  0.00  0.00     0.179 A 
ATOM     22  S   UNL d   1     -50.818  14.077  22.244  0.00  0.00    -0.048 SA
ATOM     23  N   UNL d   1     -50.006  13.231  21.603  0.00  0.00    -0.282 N 
ATOM     24  C   UNL d   1     -51.064  14.034  21.457  0.00  0.00     0.057 A 
ATOM     25  C   UNL d   1     -50.563  13.511  21.057  0.00  0.00     0.089 A 
ATOM     26  C   UNL d   1     -49.349  12.736  21.707  0.00  0.00     0.101 A 
ENDBRANCH   1  19
TORSDOF 4
ENDMDL
MODEL 5
REMARK VINA RESULT:      -6.1      1.919      4.774
REMARK  4 active torsions:
REMARK  status: ('A' for Active; 'I' for Inactive)
REMARK    1  A    between atoms: C_4  and  S_1 
REMARK    2  A    between atoms: N_8  and  S_1 
REMARK    3  A    between atoms: C_5  and  C_11 
REMARK    4  A    between atoms: C_16  and  N_8 
ROOT
ATOM      1  C   UNL d   1     -39.876  15.233  17.880  0.00  0.00     0.021 A 
ATOM      2  C   UNL d   1     -40.129  15.357  19.290  0.00  0.00     0.094 A 
ATOM      3  C   UNL d   1     -39.654  15.088  18.674  0.00  0.00     0.021 A 
ATOM      4  C   UNL d   1     -40.566  15.645  17.718  0.00  0.00     0.002 A 
ATOM      5  C   UNL d   1     -41.052  15.922  18.334  0.00  0.00     0.002 A 
ATOM      6  C   UNL d   1     -40.831  15.777  19.128  0.00  0.00     0.020 A 
ENDROOT
BRANCH   2   7
ATOM      7  N   UNL d   1     -39.913  15.215  20.065  0.00  0.00    -0.158 NA
BRANCH   7   8
ATOM      8  S   UNL d   1     -40.427  14.820  20.570  0.00  0.00     0.287 S 
ATOM      9  O   UNL d   1     -40.929  14.665  19.945  0.00  0.00    -0.198 OA
ATOM     10  O   UNL d   1     -40.954  14.418  21.069  0.00  0.00    -0.198 OA
BRANCH   8  11
ATOM     11  C   UNL d   1     -39.927  14.971  21.207  0.00  0.00     0.133 A 
ATOM     12  C   UNL d   1     -39.465  14.363  21.516  0.00  0.00     0.155 A 
ATOM     13  C   UNL d   1     -38.965  14.506  22.150  0.00  0.00     0.060 A 
ATOM     14  F   UNL d   1     -39.504  13.607  21.188  0.00  0.00    -0.203 F 
ATOM     15  C   UNL d   1     -38.923  15.268  22.483  0.00  0.00     0.142 A 
ATOM     16  C   UNL d   1     -39.388  15.874  22.171  0.00  0.00     0.030 A 
ATOM     17  F   UNL d   1     -38.420  15.414  23.122  0.00  0.00    -0.204 F 
ATOM     18  C   UNL d   1     -39.885  15.729  21.540  0.00  0.00     0.018 A 
ENDBRANCH   8  11
ENDBRANCH   7   8
ENDBRANCH   2   7
BRANCH   1  19
ATOM     19  C   UNL d   1     -39.401  14.963  17.264  0.00  0.00     0.101 A 
ATOM     20  N   UNL d   1     -39.180  14.182  17.136  0.00  0.00    -0.221 NA
ATOM     21  C   UNL d   1     -38.702  14.154  16.456  0.00  0.00     0.179 A 
ATOM     22  S   UNL d   1     -38.275  13.669  15.961  0.00  0.00    -0.048 SA
ATOM     23  N   UNL d   1     -38.637  14.938  16.172  0.00  0.00    -0.282 N 
ATOM     24  C   UNL d   1     -37.940  14.132  15.366  0.00  0.00     0.057 A 
ATOM     25  C   UNL d   1     -38.162  14.919  15.494  0.00  0.00     0.089 A 
ATOM     26  C   UNL d   1     -39.073  15.427  16.679  0.00  0.00     0.101 A 
ENDBRANCH   1  19
TORSDOF 4
ENDMDL
MODEL 6
REMARK VINA RESULT:      -6.0      8.235      9.442
REMARK  4 active torsions:
REMARK  status: ('A' for Active; 'I' for Inactive)
REMARK    1  A    between atoms: C_4  and  S_1 
REMARK    2  A    between atoms: N_8  and  S_1 
REMARK    3  A    between atoms: C_5  and  C_11 
REMARK    4  A    between atoms: C_16  and  N_8 
ROOT
ATOM      1  C   UNL d   1     -49.066  12.984  22.503  0.00  0.00     0.021 A 
ATOM      2  C   UNL d   1     -47.746  12.437  22.345  0.00  0.00     0.094 A 
ATOM      3  C   UNL d   1     -48.235  13.083  22.486  0.00  0.00     0.021 A 
ATOM      4  C   UNL d   1     -49.391  12.241  22.379  0.00  0.00     0.002 A 
ATOM      5  C   UNL d   1     -48.904  11.582  22.236  0.00  0.00     0.002 A 
ATOM      6  C   UNL d   1     -48.073  11.681  22.219  0.00  0.00     0.020 A 
ENDROOT
BRANCH   2   7
ATOM      7  N   UNL d   1     -46.935  12.534  22.329  0.00  0.00    -0.158 NA
BRANCH   7   8
ATOM      8  S   UNL d   1     -46.534  12.771  23.007  0.00  0.00     0.287 S 
ATOM      9  O   UNL d   1     -47.229  12.741  23.433  0.00  0.00    -0.198 OA
ATOM     10  O   UNL d   1     -46.142  13.010  23.697  0.00  0.00    -0.198 OA
BRANCH   8  11
ATOM     11  C   UNL d   1     -45.827  12.804  22.584  0.00  0.00     0.133 A 
ATOM     12  C   UNL d   1     -45.269  12.207  22.678  0.00  0.00     0.155 A 
ATOM     13  C   UNL d   1     -44.562  12.233  22.261  0.00  0.00     0.060 A 
ATOM     14  F   UNL d   1     -45.416  11.579  23.193  0.00  0.00    -0.203 F 
ATOM     15  C   UNL d   1     -44.410  12.865  21.741  0.00  0.00     0.142 A 
ATOM     16  C   UNL d   1     -44.973  13.462  21.649  0.00  0.00     0.030 A 
ATOM     17  F   UNL d   1     -43.700  12.893  21.319  0.00  0.00    -0.204 F 
ATOM     18  C   UNL d   1     -45.675  13.433  22.066  0.00  0.00     0.018 A 
ENDBRANCH   8  11
ENDBRANCH   7   8
ENDBRANCH   2   7
BRANCH   1  19
ATOM     19  C   UNL d   1     -49.555  13.631  22.643  0.00  0.00     0.101 A 
ATOM     20  N   UNL d   1     -49.572  14.079  23.332  0.00  0.00    -0.221 NA
ATOM     21  C   UNL d   1     -50.144  14.676  23.242  0.00  0.00     0.179 A 
ATOM     22  S   UNL d   1     -50.506  15.311  23.599  0.00  0.00    -0.048 SA
ATOM     23  N   UNL d   1     -50.476  14.581  22.480  0.00  0.00    -0.282 N 
ATOM     24  C   UNL d   1     -51.064  15.623  23.076  0.00  0.00     0.057 A 
ATOM     25  C   UNL d   1     -51.048  15.173  22.382  0.00  0.00     0.089 A 
ATOM     26  C   UNL d   1     -50.104  13.933  22.121  0.00  0.00     0.101 A 
ENDBRANCH   1  19
TORSDOF 4
ENDMDL
MODEL 7
REMARK VINA RESULT:      -5.7      7.561      8.858
REMARK  4 active torsions:
REMARK  status: ('A' for Active; 'I' for Inactive)
REMARK    1  A    between atoms: C_4  and  S_1 
REMARK    2  A    between atoms: N_8  and  S_1 
REMARK    3  A    between atoms: C_5  and  C_11 
REMARK    4  A    between atoms: C_16  and  N_8 
ROOT
ATOM      1  C   UNL d   1     -47.701  13.602  22.872  0.00  0.00     0.021 A 
ATOM      2  C   UNL d   1     -46.302  13.275  22.933  0.00  0.00     0.094 A 
ATOM      3  C   UNL d   1     -47.087  13.033  22.891  0.00  0.00     0.021 A 
ATOM      4  C   UNL d   1     -47.517  14.401  22.896  0.00  0.00     0.002 A 
ATOM      5  C   UNL d   1     -46.726  14.656  22.939  0.00  0.00     0.002 A 
ATOM      6  C   UNL d   1     -46.112  14.086  22.958  0.00  0.00     0.020 A 
ENDROOT
BRANCH   2   7
ATOM      7  N   UNL d   1     -45.703  12.719  22.952  0.00  0.00    -0.158 NA
BRANCH   7   8
ATOM      8  S   UNL d   1     -45.219  12.614  22.295  0.00  0.00     0.287 S 
ATOM      9  O   UNL d   1     -45.549  13.270  21.941  0.00  0.00    -0.198 OA
ATOM     10  O   UNL d   1     -44.736  12.518  21.628  0.00  0.00    -0.198 OA
BRANCH   8  11
ATOM     11  C   UNL d   1     -44.879  11.950  22.646  0.00  0.00     0.133 A 
ATOM     12  C   UNL d   1     -44.065  11.836  22.599  0.00  0.00     0.155 A 
ATOM     13  C   UNL d   1     -43.719  11.178  22.946  0.00  0.00     0.060 A 
ATOM     14  F   UNL d   1     -43.592  12.385  22.203  0.00  0.00    -0.203 F 
ATOM     15  C   UNL d   1     -44.193  10.622  23.346  0.00  0.00     0.142 A 
ATOM     16  C   UNL d   1     -45.009  10.740  23.391  0.00  0.00     0.030 A 
ATOM     17  F   UNL d   1     -43.847   9.958  23.696  0.00  0.00    -0.204 F 
ATOM     18  C   UNL d   1     -45.350  11.396  23.045  0.00  0.00     0.018 A 
ENDBRANCH   8  11
ENDBRANCH   7   8
ENDBRANCH   2   7
BRANCH   1  19
ATOM     19  C   UNL d   1     -48.486  13.360  22.830  0.00  0.00     0.101 A 
ATOM     20  N   UNL d   1     -48.924  13.041  23.448  0.00  0.00    -0.221 NA
ATOM     21  C   UNL d   1     -49.688  12.874  23.168  0.00  0.00     0.179 A 
ATOM     22  S   UNL d   1     -50.421  12.580  23.366  0.00  0.00    -0.048 SA
ATOM     23  N   UNL d   1     -49.707  13.099  22.362  0.00  0.00    -0.282 N 
ATOM     24  C   UNL d   1     -50.907  12.615  22.699  0.00  0.00     0.057 A 
ATOM     25  C   UNL d   1     -50.467  12.935  22.075  0.00  0.00     0.089 A 
ATOM     26  C   UNL d   1     -48.959  13.397  22.166  0.00  0.00     0.101 A 
ENDBRANCH   1  19
TORSDOF 4
ENDMDL
MODEL 8
REMARK VINA RESULT:      -5.1      2.017      5.143
REMARK  4 active torsions:
REMARK  status: ('A' for Active; 'I' for Inactive)
REMARK    1  A    between atoms: C_4  and  S_1 
REMARK    2  A    between atoms: N_8  and  S_1 
REMARK    3  A    between atoms: C_5  and  C_11 
REMARK    4  A    between atoms: C_16  and  N_8 
ROOT
ATOM      1  C   UNL d   1     -38.489  13.850  17.283  0.00  0.00     0.021 A 
ATOM      2  C   UNL d   1     -38.985  13.820  18.632  0.00  0.00     0.094 A 
ATOM      3  C   UNL d   1     -38.851  14.233  17.934  0.00  0.00     0.021 A 
ATOM      4  C   UNL d   1     -38.269  13.062  17.344  0.00  0.00     0.002 A 
ATOM      5  C   UNL d   1     -38.401  12.636  18.047  0.00  0.00     0.002 A 
ATOM      6  C   UNL d   1     -38.763  13.019  18.697  0.00  0.00     0.020 A 
ENDROOT
BRANCH   2   7
ATOM      7  N   UNL d   1     -39.338  14.194  19.267  0.00  0.00    -0.158 NA
BRANCH   7   8
ATOM      8  S   UNL d   1     -40.158  14.208  19.333  0.00  0.00     0.287 S 
ATOM      9  O   UNL d   1     -40.225  13.788  18.637  0.00  0.00    -0.198 OA
ATOM     10  O   UNL d   1     -40.985  14.215  19.389  0.00  0.00    -0.198 OA
BRANCH   8  11
ATOM     11  C   UNL d   1     -40.099  14.632  20.037  0.00  0.00     0.133 A 
ATOM     12  C   UNL d   1     -40.343  15.418  20.060  0.00  0.00     0.155 A 
ATOM     13  C   UNL d   1     -40.288  15.847  20.758  0.00  0.00     0.060 A 
ATOM     14  F   UNL d   1     -40.645  15.778  19.382  0.00  0.00    -0.203 F 
ATOM     15  C   UNL d   1     -39.984  15.487  21.445  0.00  0.00     0.142 A 
ATOM     16  C   UNL d   1     -39.741  14.699  21.417  0.00  0.00     0.030 A 
ATOM     17  F   UNL d   1     -39.928  15.917  22.148  0.00  0.00    -0.204 F 
ATOM     18  C   UNL d   1     -39.797  14.275  20.721  0.00  0.00     0.018 A 
ENDBRANCH   8  11
ENDBRANCH   7   8
ENDBRANCH   2   7
BRANCH   1  19
ATOM     19  C   UNL d   1     -38.354  14.264  16.585  0.00  0.00     0.101 A 
ATOM     20  N   UNL d   1     -38.327  15.082  16.508  0.00  0.00    -0.221 NA
ATOM     21  C   UNL d   1     -38.178  15.265  15.712  0.00  0.00     0.179 A 
ATOM     22  S   UNL d   1     -38.070  15.868  15.175  0.00  0.00    -0.048 SA
ATOM     23  N   UNL d   1     -38.116  14.539  15.302  0.00  0.00    -0.282 N 
ATOM     24  C   UNL d   1     -37.940  15.537  14.430  0.00  0.00     0.057 A 
ATOM     25  C   UNL d   1     -37.968  14.713  14.505  0.00  0.00     0.089 A 
ATOM     26  C   UNL d   1     -38.227  13.929  15.852  0.00  0.00     0.101 A 
ENDBRANCH   1  19
TORSDOF 4
ENDMDL
MODEL 9
REMARK VINA RESULT:      -4.6      8.008      9.091
REMARK  4 active torsions:
REMARK  status: ('A' for Active; 'I' for Inactive)
REMARK    1  A    between atoms: C_4  and  S_1 
REMARK    2  A    between atoms: N_8  and  S_1 
REMARK    3  A    between atoms: C_5  and  C_11 
REMARK    4  A    between atoms: C_16  and  N_8 
ROOT
ATOM      1  C   UNL d   1     -46.095  12.036  22.810  0.00  0.00     0.021 A 
ATOM      2  C   UNL d   1     -47.521  12.094  22.980  0.00  0.00     0.094 A 
ATOM      3  C   UNL d   1     -46.835  12.383  22.630  0.00  0.00     0.021 A 
ATOM      4  C   UNL d   1     -46.056  11.407  23.336  0.00  0.00     0.002 A 
ATOM      5  C   UNL d   1     -46.745  11.108  23.695  0.00  0.00     0.002 A 
ATOM      6  C   UNL d   1     -47.485  11.456  23.515  0.00  0.00     0.020 A 
ENDROOT
BRANCH   2   7
ATOM      7  N   UNL d   1     -48.244  12.433  22.804  0.00  0.00    -0.158 NA
BRANCH   7   8
ATOM      8  S   UNL d   1     -48.929  11.979  22.829  0.00  0.00     0.287 S 
ATOM      9  O   UNL d   1     -48.512  11.362  23.162  0.00  0.00    -0.198 OA
ATOM     10  O   UNL d   1     -49.612  11.511  22.860  0.00  0.00    -0.198 OA
BRANCH   8  11
ATOM     11  C   UNL d   1     -49.358  12.597  22.493  0.00  0.00     0.133 A 
ATOM     12  C   UNL d   1     -49.701  12.498  21.751  0.00  0.00     0.155 A 
ATOM     13  C   UNL d   1     -50.129  13.109  21.410  0.00  0.00     0.060 A 
ATOM     14  F   UNL d   1     -49.616  11.784  21.347  0.00  0.00    -0.203 F 
ATOM     15  C   UNL d   1     -50.218  13.831  21.815  0.00  0.00     0.142 A 
ATOM     16  C   UNL d   1     -49.872  13.926  22.558  0.00  0.00     0.030 A 
ATOM     17  F   UNL d   1     -50.649  14.448  21.473  0.00  0.00    -0.204 F 
ATOM     18  C   UNL d   1     -49.446  13.316  22.895  0.00  0.00     0.018 A 
ENDBRANCH   8  11
ENDBRANCH   7   8
ENDBRANCH   2   7
BRANCH   1  19
ATOM     19  C   UNL d   1     -45.408  12.325  22.461  0.00  0.00     0.101 A 
ATOM     20  N   UNL d   1     -44.676  11.951  22.458  0.00  0.00    -0.221 NA
ATOM     21  C   UNL d   1     -44.138  12.431  22.046  0.00  0.00     0.179 A 
ATOM     22  S   UNL d   1     -43.368  12.503  21.791  0.00  0.00    -0.048 SA
ATOM     23  N   UNL d   1     -44.559  13.110  21.796  0.00  0.00    -0.282 N 
ATOM     24  C   UNL d   1     -43.292  13.216  21.383  0.00  0.00     0.057 A 
ATOM     25  C   UNL d   1     -44.028  13.595  21.384  0.00  0.00     0.089 A 
ATOM     26  C   UNL d   1     -45.341  13.032  22.058  0.00  0.00     0.101 A 
ENDBRANCH   1  19
TORSDOF 4
ENDMDL
