MODEL 1
REMARK VINA RESULT:     150.3      0.000      0.000
REMARK  4 active torsions:
REMARK  status: ('A' for Active; 'I' for Inactive)
REMARK    1  A    between atoms: C_6  and  C_1 
REMARK    2  A    between atoms: C_4  and  C_11 
REMARK    3  A    between atoms: N_8  and  C_6 
REMARK    4  A    between atoms: C_13  and  C_6 
ROOT
ATOM      1  C   UNL d   1     -56.151-101.008 -43.072  0.00  0.00     0.067 C 
ENDROOT
BRANCH   1   2
ATOM      2  C   UNL d   1     -55.789-101.132 -43.816  0.00  0.00     0.057 A 
ATOM      3  C   UNL d   1     -55.781-101.872 -44.147  0.00  0.00     0.214 A 
ATOM      4  C   UNL d   1     -55.426-102.012 -44.886  0.00  0.00     0.121 A 
ATOM      5  O   UNL d   1     -56.145-102.506 -43.721  0.00  0.00    -0.285 OA
ATOM      6  N   UNL d   1     -55.418-102.752 -45.216  0.00  0.00    -0.241 NA
ATOM      7  C   UNL d   1     -55.077-101.381 -45.286  0.00  0.00     0.032 A 
ATOM      8  C   UNL d   1     -55.069-102.877 -45.937  0.00  0.00     0.099 A 
ATOM      9  C   UNL d   1     -54.720-102.246 -46.337  0.00  0.00     0.021 A 
ATOM     10  C   UNL d   1     -54.721-101.494 -46.016  0.00  0.00     0.004 A 
ATOM     11  C   UNL d   1     -55.084-100.613 -44.946  0.00  0.00     0.059 A 
ATOM     12  C   UNL d   1     -55.440-100.501 -44.217  0.00  0.00     0.016 A 
ATOM     13 CL   UNL d   1     -54.740 -99.970 -45.331  0.00  0.00    -0.082 Cl
ENDBRANCH   1   2
BRANCH   1  14
ATOM     14  N   UNL d   1     -55.830-101.330 -42.379  0.00  0.00    -0.301 N 
ATOM     15  C   UNL d   1     -56.178-101.964 -41.990  0.00  0.00     0.100 A 
ATOM     16  C   UNL d   1     -55.848-102.272 -41.304  0.00  0.00     0.100 A 
ATOM     17  N   UNL d   1     -55.168-101.948 -41.005  0.00  0.00    -0.299 N 
ATOM     18  C   UNL d   1     -54.806-101.305 -41.391  0.00  0.00     0.100 A 
ATOM     19  C   UNL d   1     -54.851-102.272 -40.315  0.00  0.00     0.100 C 
ATOM     20  C   UNL d   1     -55.130-101.003 -42.063  0.00  0.00     0.100 A 
ENDBRANCH   1  14
BRANCH   1  21
ATOM     21  C   UNL d   1     -56.847-100.551 -43.021  0.00  0.00     0.016 A 
ATOM     22  C   UNL d   1     -57.124-100.299 -42.286  0.00  0.00     0.001 A 
ATOM     23  C   UNL d   1     -57.806 -99.851 -42.227  0.00  0.00     0.004 A 
ATOM     24  C   UNL d   1     -58.229 -99.643 -42.909  0.00  0.00     0.071 A 
ATOM     25  C   UNL d   1     -57.953 -99.894 -43.640  0.00  0.00     0.004 A 
ATOM     26  C   UNL d   1     -57.269-100.344 -43.702  0.00  0.00     0.001 A 
BRANCH  24  27
ATOM     27  C   UNL d   1     -58.906 -99.200 -42.865  0.00  0.00     0.419 C 
ATOM     28  F   UNL d   1     -59.580 -98.758 -42.753  0.00  0.00    -0.166 F 
ATOM     29  F   UNL d   1     -59.332 -98.922 -43.569  0.00  0.00    -0.166 F 
ATOM     30  F   UNL d   1     -59.168 -99.027 -42.155  0.00  0.00    -0.166 F 
ENDBRANCH  24  27
ENDBRANCH   1  21
TORSDOF 4
ENDMDL
MODEL 2
REMARK VINA RESULT:     151.8      2.130      3.213
REMARK  4 active torsions:
REMARK  status: ('A' for Active; 'I' for Inactive)
REMARK    1  A    between atoms: C_6  and  C_1 
REMARK    2  A    between atoms: C_4  and  C_11 
REMARK    3  A    between atoms: N_8  and  C_6 
REMARK    4  A    between atoms: C_13  and  C_6 
ROOT
ATOM      1  C   UNL d   1     -56.453 -99.786 -43.170  0.00  0.00     0.067 C 
ENDROOT
BRANCH   1   2
ATOM      2  C   UNL d   1     -56.014-100.113 -43.803  0.00  0.00     0.057 A 
ATOM      3  C   UNL d   1     -56.006-100.915 -43.922  0.00  0.00     0.214 A 
ATOM      4  C   UNL d   1     -55.575-101.255 -44.547  0.00  0.00     0.121 A 
ATOM      5  O   UNL d   1     -56.449-101.404 -43.393  0.00  0.00    -0.285 OA
ATOM      6  N   UNL d   1     -55.566-102.057 -44.666  0.00  0.00    -0.241 NA
ATOM      7  C   UNL d   1     -55.149-100.762 -45.052  0.00  0.00     0.032 A 
ATOM      8  C   UNL d   1     -55.143-102.378 -45.277  0.00  0.00     0.099 A 
ATOM      9  C   UNL d   1     -54.717-101.884 -45.783  0.00  0.00     0.021 A 
ATOM     10  C   UNL d   1     -54.716-101.073 -45.675  0.00  0.00     0.004 A 
ATOM     11  C   UNL d   1     -55.156 -99.931 -44.931  0.00  0.00     0.059 A 
ATOM     12  C   UNL d   1     -55.588 -99.620 -44.309  0.00  0.00     0.016 A 
ATOM     13 CL   UNL d   1     -54.736 -99.421 -45.426  0.00  0.00    -0.082 Cl
ENDBRANCH   1   2
BRANCH   1  14
ATOM     14  N   UNL d   1     -57.233 -99.527 -43.277  0.00  0.00    -0.301 N 
ATOM     15  C   UNL d   1     -57.709 -99.301 -42.647  0.00  0.00     0.100 A 
ATOM     16  C   UNL d   1     -58.480 -99.046 -42.769  0.00  0.00     0.100 A 
ATOM     17  N   UNL d   1     -58.778 -99.015 -43.522  0.00  0.00    -0.299 N 
ATOM     18  C   UNL d   1     -58.304 -99.241 -44.169  0.00  0.00     0.100 A 
ATOM     19  C   UNL d   1     -59.555 -98.756 -43.624  0.00  0.00     0.100 C 
ATOM     20  C   UNL d   1     -57.549 -99.491 -44.049  0.00  0.00     0.100 A 
ENDBRANCH   1  14
BRANCH   1  21
ATOM     21  C   UNL d   1     -56.104 -99.718 -42.416  0.00  0.00     0.016 A 
ATOM     22  C   UNL d   1     -56.464 -99.259 -41.832  0.00  0.00     0.001 A 
ATOM     23  C   UNL d   1     -56.128 -99.187 -41.090  0.00  0.00     0.004 A 
ATOM     24  C   UNL d   1     -55.418 -99.577 -40.913  0.00  0.00     0.071 A 
ATOM     25  C   UNL d   1     -55.060-100.033 -41.494  0.00  0.00     0.004 A 
ATOM     26  C   UNL d   1     -55.394-100.108 -42.240  0.00  0.00     0.001 A 
BRANCH  24  27
ATOM     27  C   UNL d   1     -55.074 -99.514 -40.182  0.00  0.00     0.419 C 
ATOM     28  F   UNL d   1     -54.719 -99.519 -39.450  0.00  0.00    -0.166 F 
ATOM     29  F   UNL d   1     -54.995 -98.757 -39.764  0.00  0.00    -0.166 F 
ATOM     30  F   UNL d   1     -54.811-100.170 -39.860  0.00  0.00    -0.166 F 
ENDBRANCH  24  27
ENDBRANCH   1  21
TORSDOF 4
ENDMDL
