MODEL 1
REMARK VINA RESULT:      25.7      0.000      0.000
REMARK  6 active torsions:
REMARK  status: ('A' for Active; 'I' for Inactive)
REMARK    1  A    between atoms: N_3  and  S_1 
REMARK    2  A    between atoms: C_6  and  S_1 
REMARK    3  A    between atoms: N_2  and  C_5 
REMARK    4  A    between atoms: C_4  and  N_3 
REMARK    5  A    between atoms: C_5  and  C_4 
REMARK    6  A    between atoms: C_10  and  C_5 
ROOT
ATOM      1  C   UNL d   1      46.146 -17.817  42.859  0.00  0.00     0.086 C 
ENDROOT
BRANCH   1   2
ATOM      2  N   UNL d   1      46.272 -18.448  43.386  0.00  0.00    -0.300 N 
ATOM      3  C   UNL d   1      46.464 -19.196  43.096  0.00  0.00     0.100 A 
ATOM      4  C   UNL d   1      46.589 -19.822  43.620  0.00  0.00     0.100 A 
ATOM      5  N   UNL d   1      46.521 -19.698  44.428  0.00  0.00    -0.299 N 
ATOM      6  C   UNL d   1      46.329 -18.950  44.718  0.00  0.00     0.100 A 
ATOM      7  C   UNL d   1      46.647 -20.330  44.955  0.00  0.00     0.100 C 
ATOM      8  C   UNL d   1      46.204 -18.326  44.199  0.00  0.00     0.100 A 
ENDBRANCH   1   2
BRANCH   1   9
ATOM      9  C   UNL d   1      46.183 -17.044  43.133  0.00  0.00     0.130 C 
BRANCH   9  10
ATOM     10  N   UNL d   1      45.696 -16.803  43.754  0.00  0.00    -0.155 NA
BRANCH  10  11
ATOM     11  S   UNL d   1      45.682 -16.012  43.986  0.00  0.00     0.285 S 
ATOM     12  O   UNL d   1      46.342 -15.845  43.506  0.00  0.00    -0.198 OA
ATOM     13  O   UNL d   1      45.018 -16.159  44.474  0.00  0.00    -0.198 OA
BRANCH  11  14
ATOM     14  C   UNL d   1      45.667 -15.214  44.221  0.00  0.00     0.105 A 
ATOM     15  C   UNL d   1      46.371 -14.819  44.391  0.00  0.00     0.014 A 
ATOM     16  C   UNL d   1      46.357 -14.031  44.623  0.00  0.00     0.012 A 
ATOM     17  C   UNL d   1      45.633 -13.630  44.688  0.00  0.00     0.058 A 
ATOM     18  C   UNL d   1      44.929 -14.025  44.518  0.00  0.00     0.012 A 
ATOM     19 CL   UNL d   1      45.614 -12.834  44.922  0.00  0.00    -0.082 Cl
ATOM     20  C   UNL d   1      44.946 -14.817  44.285  0.00  0.00     0.014 A 
ENDBRANCH  11  14
ENDBRANCH  10  11
ENDBRANCH   9  10
ENDBRANCH   1   9
BRANCH   1  21
ATOM     21  C   UNL d   1      45.985 -17.967  42.064  0.00  0.00     0.037 A 
ATOM     22  C   UNL d   1      46.567 -17.836  41.493  0.00  0.00     0.100 A 
ATOM     23  N   UNL d   1      46.405 -17.986  40.698  0.00  0.00    -0.242 NA
ATOM     24  C   UNL d   1      45.662 -18.268  40.474  0.00  0.00     0.099 A 
ATOM     25  C   UNL d   1      45.089 -18.397  41.042  0.00  0.00     0.021 A 
ATOM     26  C   UNL d   1      45.250 -18.246  41.837  0.00  0.00     0.005 A 
ENDBRANCH   1  21
TORSDOF 6
ENDMDL
