MODEL 1
REMARK VINA RESULT:      -0.9      0.000      0.000
REMARK  2 active torsions:
REMARK  status: ('A' for Active; 'I' for Inactive)
REMARK    1  A    between atoms: C_9  and  C_2 
REMARK    2  A    between atoms: C_12  and  C_7 
ROOT
ATOM      1  N   UNL d   1     -41.429-121.704 -51.729  0.00  0.00    -0.186 N 
ATOM      2  C   UNL d   1     -41.474-121.774 -50.903  0.00  0.00     0.187 A 
ATOM      3  N   UNL d   1     -41.558-122.247 -52.327  0.00  0.00    -0.162 NA
ATOM      4  C   UNL d   1     -41.212-120.926 -51.906  0.00  0.00     0.217 A 
ATOM      5  N   UNL d   1     -41.285-121.041 -50.580  0.00  0.00    -0.127 NA
ATOM      6  N   UNL d   1     -41.123-120.518 -51.199  0.00  0.00    -0.120 NA
ATOM      7  C   UNL d   1     -41.473-122.024 -53.120  0.00  0.00     0.108 A 
ATOM      8  S   UNL d   1     -41.125-120.696 -52.693  0.00  0.00    -0.045 SA
ATOM      9  C   UNL d   1     -41.255-121.246 -53.303  0.00  0.00     0.059 A 
ENDROOT
BRANCH   2  10
ATOM     10  C   UNL d   1     -41.675-122.465 -50.486  0.00  0.00     0.038 A 
ATOM     11  C   UNL d   1     -42.411-122.518 -50.115  0.00  0.00     0.003 A 
ATOM     12  C   UNL d   1     -42.615-123.194 -49.704  0.00  0.00     0.000 A 
ATOM     13  C   UNL d   1     -43.345-123.242 -49.338  0.00  0.00     0.000 C 
ATOM     14  C   UNL d   1     -42.076-123.817 -49.666  0.00  0.00     0.000 A 
ATOM     15  C   UNL d   1     -41.342-123.766 -50.034  0.00  0.00     0.000 A 
ATOM     16  C   UNL d   1     -41.145-123.086 -50.445  0.00  0.00     0.003 A 
ENDBRANCH   2  10
BRANCH   7  17
ATOM     17  C   UNL d   1     -41.602-122.567 -53.725  0.00  0.00     0.020 A 
ATOM     18  C   UNL d   1     -41.170-123.272 -53.745  0.00  0.00     0.002 A 
ATOM     19  C   UNL d   1     -41.305-123.812 -54.355  0.00  0.00     0.000 A 
ATOM     20  C   UNL d   1     -41.861-123.655 -54.937  0.00  0.00     0.000 A 
ATOM     21  C   UNL d   1     -42.293-122.948 -54.916  0.00  0.00     0.000 A 
ATOM     22  C   UNL d   1     -42.162-122.400 -54.305  0.00  0.00     0.002 A 
ENDBRANCH   7  17
TORSDOF 2
ENDMDL
MODEL 2
REMARK VINA RESULT:      -0.7      0.766      3.640
REMARK  2 active torsions:
REMARK  status: ('A' for Active; 'I' for Inactive)
REMARK    1  A    between atoms: C_9  and  C_2 
REMARK    2  A    between atoms: C_12  and  C_7 
ROOT
ATOM      1  N   UNL d   1     -41.601-121.764 -52.059  0.00  0.00    -0.186 N 
ATOM      2  C   UNL d   1     -41.421-121.800 -52.869  0.00  0.00     0.187 A 
ATOM      3  N   UNL d   1     -41.907-122.324 -51.546  0.00  0.00    -0.162 NA
ATOM      4  C   UNL d   1     -41.415-121.004 -51.791  0.00  0.00     0.217 A 
ATOM      5  N   UNL d   1     -41.127-121.065 -53.091  0.00  0.00    -0.127 NA
ATOM      6  N   UNL d   1     -41.123-120.573 -52.426  0.00  0.00    -0.120 NA
ATOM      7  C   UNL d   1     -42.034-122.135 -50.750  0.00  0.00     0.108 A 
ATOM      8  S   UNL d   1     -41.539-120.809 -50.999  0.00  0.00    -0.045 SA
ATOM      9  C   UNL d   1     -41.849-121.376 -50.476  0.00  0.00     0.059 A 
ENDROOT
BRANCH   2  10
ATOM     10  C   UNL d   1     -41.523-122.465 -53.358  0.00  0.00     0.038 A 
ATOM     11  C   UNL d   1     -42.017-122.413 -54.018  0.00  0.00     0.003 A 
ATOM     12  C   UNL d   1     -42.122-123.062 -54.503  0.00  0.00     0.000 A 
ATOM     13  C   UNL d   1     -42.613-123.006 -55.155  0.00  0.00     0.000 C 
ATOM     14  C   UNL d   1     -41.728-123.764 -54.323  0.00  0.00     0.000 A 
ATOM     15  C   UNL d   1     -41.235-123.817 -53.667  0.00  0.00     0.000 A 
ATOM     16  C   UNL d   1     -41.135-123.163 -53.185  0.00  0.00     0.003 A 
ENDBRANCH   2  10
BRANCH   7  17
ATOM     17  C   UNL d   1     -42.341-122.696 -50.230  0.00  0.00     0.020 A 
ATOM     18  C   UNL d   1     -41.832-123.213 -49.832  0.00  0.00     0.002 A 
ATOM     19  C   UNL d   1     -42.148-123.772 -49.313  0.00  0.00     0.000 A 
ATOM     20  C   UNL d   1     -42.957-123.817 -49.189  0.00  0.00     0.000 A 
ATOM     21  C   UNL d   1     -43.466-123.299 -49.588  0.00  0.00     0.000 A 
ATOM     22  C   UNL d   1     -43.155-122.734 -50.112  0.00  0.00     0.002 A 
ENDBRANCH   7  17
TORSDOF 2
ENDMDL
