MODEL 1
REMARK VINA RESULT:     104.6      0.000      0.000
REMARK  6 active torsions:
REMARK  status: ('A' for Active; 'I' for Inactive)
REMARK    1  A    between atoms: N_8  and  C_1 
REMARK    2  A    between atoms: C_6  and  N_2 
REMARK       I    between atoms: C_12  and  N_8 
REMARK    3  A    between atoms: C_20  and  C_12 
REMARK    4  A    between atoms: O_24  and  C_13 
REMARK    5  A    between atoms: O_25  and  C_15 
REMARK    6  A    between atoms: C_19  and  C_20 
ROOT
ATOM      1  C   UNL d   1      59.456  49.044  50.585  0.00  0.00     0.169 A 
ATOM      2  N   UNL d   1      59.671  49.430  51.285  0.00  0.00    -0.212 N 
ATOM      3  C   UNL d   1      58.628  49.082  50.507  0.00  0.00     0.065 A 
ATOM      4  N   UNL d   1      58.976  49.708  51.641  0.00  0.00    -0.163 NA
ATOM      5  C   UNL d   1      58.335  49.493  51.160  0.00  0.00     0.114 A 
ATOM      6  S   UNL d   1      57.295  49.151  50.394  0.00  0.00     0.091 S 
ATOM      7  C   UNL d   1      57.510  49.537  51.094  0.00  0.00     0.090 A 
ATOM      8  C   UNL d   1      57.988  48.870  50.033  0.00  0.00     0.073 A 
ATOM      9  O   UNL d   1      56.524  49.059  50.103  0.00  0.00    -0.247 OA
ENDROOT
BRANCH   1  10
ATOM     10  N   UNL d   1      59.972  48.679  50.049  0.00  0.00    -0.189 NA
ATOM     11  C   UNL d   1      60.044  47.864  50.029  0.00  0.00     0.281 C 
ATOM     12  O   UNL d   1      59.594  47.390  50.552  0.00  0.00    -0.265 OA
BRANCH  11  13
ATOM     13  C   UNL d   1      60.557  47.498  49.496  0.00  0.00     0.063 C 
BRANCH  13  14
ATOM     14  C   UNL d   1      60.860  46.770  49.681  0.00  0.00     0.007 A 
ATOM     15  C   UNL d   1      61.367  46.374  49.154  0.00  0.00     0.026 A 
ATOM     16  C   UNL d   1      61.671  45.632  49.348  0.00  0.00     0.116 A 
ATOM     17  C   UNL d   1      61.468  45.286  50.070  0.00  0.00     0.116 A 
ATOM     18  C   UNL d   1      60.969  45.668  50.596  0.00  0.00     0.026 A 
ATOM     19  C   UNL d   1      60.664  46.413  50.398  0.00  0.00     0.002 A 
BRANCH  16  20
ATOM     20  O   UNL d   1      62.171  45.243  48.828  0.00  0.00    -0.326 OA
ATOM     21  C   UNL d   1      62.980  45.203  48.984  0.00  0.00     0.181 C 
ENDBRANCH  16  20
BRANCH  17  22
ATOM     22  O   UNL d   1      61.772  44.545  50.264  0.00  0.00    -0.326 OA
ATOM     23  C   UNL d   1      61.312  43.999  50.677  0.00  0.00     0.181 C 
ENDBRANCH  17  22
ENDBRANCH  13  14
ENDBRANCH  11  13
ENDBRANCH   1  10
BRANCH   2  24
ATOM     24  C   UNL d   1      60.436  49.523  51.577  0.00  0.00     0.085 A 
ATOM     25  C   UNL d   1      60.559  49.569  52.387  0.00  0.00     0.018 A 
ATOM     26  C   UNL d   1      61.326  49.662  52.678  0.00  0.00     0.002 A 
ATOM     27  C   UNL d   1      59.924  49.523  52.903  0.00  0.00     0.002 C 
ATOM     28  C   UNL d   1      61.451  49.708  53.483  0.00  0.00     0.000 C 
ATOM     29  C   UNL d   1      61.957  49.707  52.150  0.00  0.00     0.000 A 
ATOM     30  C   UNL d   1      61.819  49.660  51.344  0.00  0.00     0.002 A 
ATOM     31  C   UNL d   1      61.069  49.569  51.048  0.00  0.00     0.019 A 
ENDBRANCH   2  24
TORSDOF 6
ENDMDL
