MODEL 1
REMARK VINA RESULT:      42.5      0.000      0.000
REMARK  5 active torsions:
REMARK  status: ('A' for Active; 'I' for Inactive)
REMARK    1  A    between atoms: N_4  and  C_1 
REMARK    2  A    between atoms: N_5  and  C_1 
REMARK       I    between atoms: C_2  and  N_3 
REMARK    3  A    between atoms: C_8  and  C_2 
REMARK    4  A    between atoms: N_3  and  N_4 
REMARK    5  A    between atoms: C_9  and  N_5 
ROOT
ATOM      1  N   UNL d   1     -50.704  26.356  33.378  0.00  0.00    -0.273 N 
ATOM      2  H   UNL d   1     -51.054  26.990  32.994  0.00  0.00     0.189 HD
ENDROOT
BRANCH   1   3
ATOM      3  N   UNL d   1     -51.026  25.591  33.307  0.00  0.00    -0.264 N 
ATOM      4  C   UNL d   1     -51.827  25.475  33.518  0.00  0.00     0.271 C 
ATOM      5  O   UNL d   1     -52.292  26.085  33.788  0.00  0.00    -0.266 OA
ATOM      6  H   UNL d   1     -50.573  24.979  33.040  0.00  0.00     0.190 HD
BRANCH   4   7
ATOM      7  C   UNL d   1     -52.160  24.703  33.450  0.00  0.00     0.057 A 
ATOM      8  C   UNL d   1     -51.674  24.043  33.380  0.00  0.00     0.005 A 
ATOM      9  C   UNL d   1     -52.008  23.289  33.313  0.00  0.00     0.000 A 
ATOM     10  C   UNL d   1     -52.828  23.194  33.315  0.00  0.00     0.000 A 
ATOM     11  C   UNL d   1     -53.307  23.854  33.385  0.00  0.00     0.000 A 
ATOM     12  C   UNL d   1     -52.990  24.607  33.452  0.00  0.00     0.005 A 
ENDBRANCH   4   7
ENDBRANCH   1   3
BRANCH   1  13
ATOM     13  C   UNL d   1     -50.027  26.485  33.836  0.00  0.00     0.191 C 
ATOM     14  S   UNL d   1     -49.303  26.162  33.608  0.00  0.00    -0.039 SA
BRANCH  13  15
ATOM     15  N   UNL d   1     -50.082  26.943  34.529  0.00  0.00    -0.331 N 
ATOM     16  H   UNL d   1     -50.723  26.854  35.032  0.00  0.00     0.168 HD
BRANCH  15  17
ATOM     17  C   UNL d   1     -49.487  27.484  34.703  0.00  0.00     0.058 A 
ATOM     18  C   UNL d   1     -49.170  27.503  35.468  0.00  0.00     0.017 A 
ATOM     19  C   UNL d   1     -48.571  28.046  35.645  0.00  0.00     0.002 A 
ATOM     20  C   UNL d   1     -48.293  28.563  35.066  0.00  0.00     0.000 A 
ATOM     21  C   UNL d   1     -48.626  28.527  34.302  0.00  0.00     0.002 A 
ATOM     22  C   UNL d   1     -49.209  28.001  34.124  0.00  0.00     0.017 A 
ENDBRANCH  15  17
ENDBRANCH  13  15
ENDBRANCH   1  13
TORSDOF 5
ENDMDL
MODEL 2
REMARK VINA RESULT:      43.7      1.580      2.601
REMARK  5 active torsions:
REMARK  status: ('A' for Active; 'I' for Inactive)
REMARK    1  A    between atoms: N_4  and  C_1 
REMARK    2  A    between atoms: N_5  and  C_1 
REMARK       I    between atoms: C_2  and  N_3 
REMARK    3  A    between atoms: C_8  and  C_2 
REMARK    4  A    between atoms: N_3  and  N_4 
REMARK    5  A    between atoms: C_9  and  N_5 
ROOT
ATOM      1  N   UNL d   1     -49.250  28.078  34.351  0.00  0.00    -0.273 N 
ATOM      2  H   UNL d   1     -49.682  28.741  34.139  0.00  0.00     0.189 HD
ENDROOT
BRANCH   1   3
ATOM      3  N   UNL d   1     -49.559  27.315  34.226  0.00  0.00    -0.264 N 
ATOM      4  C   UNL d   1     -50.200  27.227  33.697  0.00  0.00     0.271 C 
ATOM      5  O   UNL d   1     -50.524  27.863  33.306  0.00  0.00    -0.266 OA
ATOM      6  H   UNL d   1     -49.245  26.678  34.610  0.00  0.00     0.190 HD
BRANCH   4   7
ATOM      7  C   UNL d   1     -50.519  26.458  33.565  0.00  0.00     0.057 A 
ATOM      8  C   UNL d   1     -51.333  26.338  33.559  0.00  0.00     0.005 A 
ATOM      9  C   UNL d   1     -51.638  25.580  33.429  0.00  0.00     0.000 A 
ATOM     10  C   UNL d   1     -51.131  24.941  33.306  0.00  0.00     0.000 A 
ATOM     11  C   UNL d   1     -50.321  25.065  33.313  0.00  0.00     0.000 A 
ATOM     12  C   UNL d   1     -50.005  25.811  33.441  0.00  0.00     0.005 A 
ENDBRANCH   4   7
ENDBRANCH   1   3
BRANCH   1  13
ATOM     13  C   UNL d   1     -48.502  28.177  34.691  0.00  0.00     0.191 C 
ATOM     14  S   UNL d   1     -47.829  27.892  34.307  0.00  0.00    -0.039 SA
BRANCH  13  15
ATOM     15  N   UNL d   1     -48.431  28.565  35.425  0.00  0.00    -0.331 N 
ATOM     16  H   UNL d   1     -48.785  28.250  36.092  0.00  0.00     0.168 HD
BRANCH  15  17
ATOM     17  C   UNL d   1     -48.004  29.266  35.470  0.00  0.00     0.058 A 
ATOM     18  C   UNL d   1     -48.193  29.888  34.957  0.00  0.00     0.017 A 
ATOM     19  C   UNL d   1     -47.765  30.594  35.000  0.00  0.00     0.002 A 
ATOM     20  C   UNL d   1     -47.154  30.679  35.548  0.00  0.00     0.000 A 
ATOM     21  C   UNL d   1     -46.980  30.039  36.056  0.00  0.00     0.002 A 
ATOM     22  C   UNL d   1     -47.393  29.351  36.018  0.00  0.00     0.017 A 
ENDBRANCH  15  17
ENDBRANCH  13  15
ENDBRANCH   1  13
TORSDOF 5
ENDMDL
