MODEL 1
REMARK VINA RESULT:     -10.1      0.000      0.000
REMARK  4 active torsions:
REMARK  status: ('A' for Active; 'I' for Inactive)
REMARK       I    between atoms: C_4  and  N_1 
REMARK    1  A    between atoms: C_7  and  C_3 
REMARK    2  A    between atoms: C_8  and  C_4 
REMARK    3  A    between atoms: C_10  and  C_5 
REMARK    4  A    between atoms: O_23  and  C_18 
ROOT
ATOM      1  N   UNL d   1      52.489  34.101  53.840  0.00  0.00    -0.194 N 
ATOM      2  N   UNL d   1      51.810  34.492  53.604  0.00  0.00    -0.163 NA
ATOM      3  C   UNL d   1      52.586  33.438  53.355  0.00  0.00     0.091 A 
ATOM      4  C   UNL d   1      53.009  34.329  54.470  0.00  0.00     0.286 C 
ATOM      5  C   UNL d   1      51.487  34.069  52.972  0.00  0.00     0.103 A 
ATOM      6  C   UNL d   1      51.963  33.430  52.826  0.00  0.00     0.040 A 
ATOM      7  O   UNL d   1      52.831  35.012  54.905  0.00  0.00    -0.265 OA
ENDROOT
BRANCH   5   8
ATOM      8  C   UNL d   1      50.798  34.270  52.566  0.00  0.00     0.019 A 
ATOM      9  C   UNL d   1      50.773  34.243  51.742  0.00  0.00     0.004 A 
ATOM     10  C   UNL d   1      50.084  34.444  51.335  0.00  0.00     0.024 A 
ATOM     11  C   UNL d   1      49.411  34.675  51.759  0.00  0.00     0.094 A 
ATOM     12  C   UNL d   1      49.432  34.704  52.585  0.00  0.00     0.024 A 
ATOM     13  C   UNL d   1      50.125  34.502  52.989  0.00  0.00     0.004 A 
BRANCH  11  14
ATOM     14  O   UNL d   1      48.718  34.878  51.355  0.00  0.00    -0.328 OA
ATOM     15  C   UNL d   1      48.501  34.465  50.672  0.00  0.00     0.181 C 
ENDBRANCH  11  14
ENDBRANCH   5   8
BRANCH   3  16
ATOM     16  C   UNL d   1      53.210  32.891  53.410  0.00  0.00     0.057 A 
ATOM     17  C   UNL d   1      53.039  32.123  53.620  0.00  0.00     0.197 A 
ATOM     18  O   UNL d   1      52.280  31.887  53.774  0.00  0.00    -0.286 OA
ATOM     19  C   UNL d   1      53.663  31.569  53.677  0.00  0.00     0.042 A 
ATOM     20  C   UNL d   1      54.447  31.790  53.524  0.00  0.00     0.003 A 
ATOM     21  C   UNL d   1      54.583  32.571  53.315  0.00  0.00     0.000 A 
ATOM     22  C   UNL d   1      53.988  33.105  53.259  0.00  0.00     0.005 A 
ENDBRANCH   3  16
BRANCH   4  23
ATOM     23  C   UNL d   1      53.662  33.887  54.641  0.00  0.00     0.087 A 
ATOM     24  S   UNL d   1      54.384  33.997  54.320  0.00  0.00    -0.082 SA
ATOM     25  C   UNL d   1      54.900  33.417  54.651  0.00  0.00     0.036 A 
ATOM     26  C   UNL d   1      54.454  32.958  55.182  0.00  0.00     0.008 A 
ATOM     27  C   UNL d   1      53.686  33.252  55.174  0.00  0.00     0.012 A 
ENDBRANCH   4  23
TORSDOF 4
ENDMDL
MODEL 2
REMARK VINA RESULT:      -9.8      0.964      1.977
REMARK  4 active torsions:
REMARK  status: ('A' for Active; 'I' for Inactive)
REMARK       I    between atoms: C_4  and  N_1 
REMARK    1  A    between atoms: C_7  and  C_3 
REMARK    2  A    between atoms: C_8  and  C_4 
REMARK    3  A    between atoms: C_10  and  C_5 
REMARK    4  A    between atoms: O_23  and  C_18 
ROOT
ATOM      1  N   UNL d   1      52.112  33.204  52.921  0.00  0.00    -0.194 N 
ATOM      2  N   UNL d   1      51.427  33.264  52.478  0.00  0.00    -0.163 NA
ATOM      3  C   UNL d   1      52.167  33.872  53.405  0.00  0.00     0.091 A 
ATOM      4  C   UNL d   1      52.675  32.569  52.894  0.00  0.00     0.286 C 
ATOM      5  C   UNL d   1      51.058  33.972  52.690  0.00  0.00     0.103 A 
ATOM      6  C   UNL d   1      51.512  34.337  53.253  0.00  0.00     0.040 A 
ATOM      7  O   UNL d   1      52.537  31.937  52.376  0.00  0.00    -0.265 OA
ENDROOT
BRANCH   5   8
ATOM      8  C   UNL d   1      50.347  34.253  52.377  0.00  0.00     0.019 A 
ATOM      9  C   UNL d   1      49.789  34.616  52.863  0.00  0.00     0.004 A 
ATOM     10  C   UNL d   1      49.079  34.897  52.550  0.00  0.00     0.024 A 
ATOM     11  C   UNL d   1      48.926  34.813  51.740  0.00  0.00     0.094 A 
ATOM     12  C   UNL d   1      49.484  34.449  51.250  0.00  0.00     0.024 A 
ATOM     13  C   UNL d   1      50.195  34.169  51.567  0.00  0.00     0.004 A 
BRANCH  11  14
ATOM     14  O   UNL d   1      48.216  35.092  51.423  0.00  0.00    -0.328 OA
ATOM     15  C   UNL d   1      47.773  35.658  51.833  0.00  0.00     0.181 C 
ENDBRANCH  11  14
ENDBRANCH   5   8
BRANCH   3  16
ATOM     16  C   UNL d   1      52.783  34.025  53.941  0.00  0.00     0.057 A 
ATOM     17  C   UNL d   1      53.282  34.653  53.796  0.00  0.00     0.197 A 
ATOM     18  O   UNL d   1      53.188  35.123  53.144  0.00  0.00    -0.286 OA
ATOM     19  C   UNL d   1      53.903  34.811  54.333  0.00  0.00     0.042 A 
ATOM     20  C   UNL d   1      54.017  34.341  55.007  0.00  0.00     0.003 A 
ATOM     21  C   UNL d   1      53.497  33.719  55.122  0.00  0.00     0.000 A 
ATOM     22  C   UNL d   1      52.900  33.564  54.610  0.00  0.00     0.005 A 
ENDBRANCH   3  16
BRANCH   4  23
ATOM     23  C   UNL d   1      53.330  32.584  53.365  0.00  0.00     0.087 A 
ATOM     24  S   UNL d   1      53.368  32.282  54.103  0.00  0.00    -0.082 SA
ATOM     25  C   UNL d   1      54.150  32.416  54.391  0.00  0.00     0.036 A 
ATOM     26  C   UNL d   1      54.574  32.810  53.793  0.00  0.00     0.008 A 
ATOM     27  C   UNL d   1      54.063  32.912  53.157  0.00  0.00     0.012 A 
ENDBRANCH   4  23
TORSDOF 4
ENDMDL
MODEL 3
REMARK VINA RESULT:      -8.1      1.688      4.201
REMARK  4 active torsions:
REMARK  status: ('A' for Active; 'I' for Inactive)
REMARK       I    between atoms: C_4  and  N_1 
REMARK    1  A    between atoms: C_7  and  C_3 
REMARK    2  A    between atoms: C_8  and  C_4 
REMARK    3  A    between atoms: C_10  and  C_5 
REMARK    4  A    between atoms: O_23  and  C_18 
ROOT
ATOM      1  N   UNL d   1      53.410  32.912  54.286  0.00  0.00    -0.194 N 
ATOM      2  N   UNL d   1      53.627  32.153  54.503  0.00  0.00    -0.163 NA
ATOM      3  C   UNL d   1      52.860  32.857  53.672  0.00  0.00     0.091 A 
ATOM      4  C   UNL d   1      53.696  33.634  54.627  0.00  0.00     0.286 C 
ATOM      5  C   UNL d   1      53.209  31.629  54.021  0.00  0.00     0.103 A 
ATOM      6  C   UNL d   1      52.744  32.063  53.518  0.00  0.00     0.040 A 
ATOM      7  O   UNL d   1      54.250  33.592  55.242  0.00  0.00    -0.265 OA
ENDROOT
BRANCH   5   8
ATOM      8  C   UNL d   1      53.261  30.806  54.053  0.00  0.00     0.019 A 
ATOM      9  C   UNL d   1      53.364  30.366  53.364  0.00  0.00     0.004 A 
ATOM     10  C   UNL d   1      53.417  29.542  53.395  0.00  0.00     0.024 A 
ATOM     11  C   UNL d   1      53.364  29.156  54.126  0.00  0.00     0.094 A 
ATOM     12  C   UNL d   1      53.260  29.595  54.819  0.00  0.00     0.024 A 
ATOM     13  C   UNL d   1      53.208  30.419  54.783  0.00  0.00     0.004 A 
BRANCH  11  14
ATOM     14  O   UNL d   1      53.416  28.332  54.161  0.00  0.00    -0.328 OA
ATOM     15  C   UNL d   1      53.629  27.960  54.869  0.00  0.00     0.181 C 
ENDBRANCH  11  14
ENDBRANCH   5   8
BRANCH   3  16
ATOM     16  C   UNL d   1      52.500  33.503  53.292  0.00  0.00     0.057 A 
ATOM     17  C   UNL d   1      51.699  33.619  53.390  0.00  0.00     0.197 A 
ATOM     18  O   UNL d   1      51.254  33.120  53.847  0.00  0.00    -0.286 OA
ATOM     19  C   UNL d   1      51.333  34.267  53.010  0.00  0.00     0.042 A 
ATOM     20  C   UNL d   1      51.771  34.790  52.538  0.00  0.00     0.003 A 
ATOM     21  C   UNL d   1      52.574  34.644  52.461  0.00  0.00     0.000 A 
ATOM     22  C   UNL d   1      52.928  34.024  52.824  0.00  0.00     0.005 A 
ENDBRANCH   3  16
BRANCH   4  23
ATOM     23  C   UNL d   1      53.431  34.347  54.355  0.00  0.00     0.087 A 
ATOM     24  S   UNL d   1      52.815  34.752  54.661  0.00  0.00    -0.082 SA
ATOM     25  C   UNL d   1      52.732  35.461  54.213  0.00  0.00     0.036 A 
ATOM     26  C   UNL d   1      53.323  35.461  53.628  0.00  0.00     0.008 A 
ATOM     27  C   UNL d   1      53.756  34.768  53.719  0.00  0.00     0.012 A 
ENDBRANCH   4  23
TORSDOF 4
ENDMDL
MODEL 4
REMARK VINA RESULT:      -7.3      2.163      4.373
REMARK  4 active torsions:
REMARK  status: ('A' for Active; 'I' for Inactive)
REMARK       I    between atoms: C_4  and  N_1 
REMARK    1  A    between atoms: C_7  and  C_3 
REMARK    2  A    between atoms: C_8  and  C_4 
REMARK    3  A    between atoms: C_10  and  C_5 
REMARK    4  A    between atoms: O_23  and  C_18 
ROOT
ATOM      1  N   UNL d   1      52.867  32.608  53.462  0.00  0.00    -0.194 N 
ATOM      2  N   UNL d   1      52.767  31.806  53.330  0.00  0.00    -0.163 NA
ATOM      3  C   UNL d   1      53.335  32.702  54.137  0.00  0.00     0.091 A 
ATOM      4  C   UNL d   1      52.548  33.239  52.994  0.00  0.00     0.286 C 
ATOM      5  C   UNL d   1      53.176  31.405  53.925  0.00  0.00     0.103 A 
ATOM      6  C   UNL d   1      53.519  31.954  54.412  0.00  0.00     0.040 A 
ATOM      7  O   UNL d   1      52.087  33.050  52.332  0.00  0.00    -0.265 OA
ENDROOT
BRANCH   5   8
ATOM      8  C   UNL d   1      53.221  30.585  54.003  0.00  0.00     0.019 A 
ATOM      9  C   UNL d   1      53.246  30.101  53.336  0.00  0.00     0.004 A 
ATOM     10  C   UNL d   1      53.292  29.280  53.413  0.00  0.00     0.024 A 
ATOM     11  C   UNL d   1      53.313  28.940  54.168  0.00  0.00     0.094 A 
ATOM     12  C   UNL d   1      53.289  29.423  54.840  0.00  0.00     0.024 A 
ATOM     13  C   UNL d   1      53.243  30.245  54.758  0.00  0.00     0.004 A 
BRANCH  11  14
ATOM     14  O   UNL d   1      53.359  28.119  54.250  0.00  0.00    -0.328 OA
ATOM     15  C   UNL d   1      53.675  27.788  54.939  0.00  0.00     0.181 C 
ENDBRANCH  11  14
ENDBRANCH   5   8
BRANCH   3  16
ATOM     16  C   UNL d   1      53.568  33.431  54.461  0.00  0.00     0.057 A 
ATOM     17  C   UNL d   1      54.357  33.633  54.446  0.00  0.00     0.197 A 
ATOM     18  O   UNL d   1      54.912  33.140  54.123  0.00  0.00    -0.286 OA
ATOM     19  C   UNL d   1      54.595  34.366  54.771  0.00  0.00     0.042 A 
ATOM     20  C   UNL d   1      54.042  34.885  55.107  0.00  0.00     0.003 A 
ATOM     21  C   UNL d   1      53.257  34.650  55.105  0.00  0.00     0.000 A 
ATOM     22  C   UNL d   1      53.025  33.949  54.795  0.00  0.00     0.005 A 
ENDBRANCH   3  16
BRANCH   4  23
ATOM     23  C   UNL d   1      52.693  34.008  53.192  0.00  0.00     0.087 A 
ATOM     24  S   UNL d   1      52.237  34.449  53.676  0.00  0.00    -0.082 SA
ATOM     25  C   UNL d   1      52.589  35.213  53.729  0.00  0.00     0.036 A 
ATOM     26  C   UNL d   1      53.274  35.208  53.257  0.00  0.00     0.008 A 
ATOM     27  C   UNL d   1      53.336  34.459  52.924  0.00  0.00     0.012 A 
ENDBRANCH   4  23
TORSDOF 4
ENDMDL
