MODEL 1
REMARK VINA RESULT:      -4.5      0.000      0.000
REMARK  10 active torsions:
REMARK  status: ('A' for Active; 'I' for Inactive)
REMARK    1  A    between atoms: C_5  and  C_1 
REMARK    2  A    between atoms: N_6  and  C_2 
REMARK    3  A    between atoms: C_7  and  C_5 
REMARK    4  A    between atoms: C_8  and  C_5 
REMARK    5  A    between atoms: O_18  and  C_7 
REMARK    6  A    between atoms: C_22  and  O_18 
REMARK    7  A    between atoms: C_23  and  C_22 
REMARK    8  A    between atoms: C_26  and  C_23 
REMARK    9  A    between atoms: C_24  and  C_25 
REMARK   10  A    between atoms: C_25  and  C_26 
ROOT
ATOM      1  C   UNL d   1     -40.082  14.349  21.000  0.00  0.00     0.122 A 
ATOM      2  C   UNL d   1     -39.387  14.379  20.553  0.00  0.00     0.166 A 
ATOM      3  N   UNL d   1     -38.682  14.118  20.891  0.00  0.00    -0.225 NA
ATOM      4  N   UNL d   1     -40.072  14.061  21.776  0.00  0.00    -0.241 NA
ATOM      5  C   UNL d   1     -38.664  13.832  21.659  0.00  0.00     0.101 A 
ATOM      6  C   UNL d   1     -39.364  13.803  22.105  0.00  0.00     0.099 A 
ATOM      7  C   UNL d   1     -39.349  13.517  22.875  0.00  0.00     0.021 A 
ATOM      8  C   UNL d   1     -37.952  13.571  21.994  0.00  0.00     0.021 A 
ATOM      9  C   UNL d   1     -37.942  13.283  22.770  0.00  0.00     0.002 A 
ATOM     10  C   UNL d   1     -38.638  13.256  23.209  0.00  0.00     0.002 A 
ENDROOT
BRANCH   1  11
ATOM     11  C   UNL d   1     -40.806  14.610  20.671  0.00  0.00     0.105 C 
BRANCH  11  12
ATOM     12  C   UNL d   1     -41.409  14.076  20.503  0.00  0.00     0.303 C 
ATOM     13  O   UNL d   1     -41.517  13.810  19.727  0.00  0.00    -0.259 OA
BRANCH  12  14
ATOM     14  O   UNL d   1     -41.901  13.808  21.106  0.00  0.00    -0.271 OA
BRANCH  14  15
ATOM     15  C   UNL d   1     -42.559  13.338  20.912  0.00  0.00     0.126 C 
BRANCH  15  16
ATOM     16  C   UNL d   1     -43.004  12.998  21.513  0.00  0.00     0.027 C 
BRANCH  16  17
ATOM     17  C   UNL d   1     -43.798  12.824  21.384  0.00  0.00     0.002 C 
BRANCH  17  18
ATOM     18  C   UNL d   1     -44.371  13.158  21.869  0.00  0.00     0.000 C 
BRANCH  18  19
ATOM     19  C   UNL d   1     -45.152  12.894  21.827  0.00  0.00     0.000 C 
ATOM     20  C   UNL d   1     -45.709  13.199  22.344  0.00  0.00     0.000 C 
ENDBRANCH  18  19
ENDBRANCH  17  18
ENDBRANCH  16  17
ENDBRANCH  15  16
ENDBRANCH  14  15
ENDBRANCH  12  14
ENDBRANCH  11  12
BRANCH  11  21
ATOM     21  C   UNL d   1     -40.918  15.426  20.512  0.00  0.00     0.129 C 
ATOM     22  N   UNL d   1     -41.652  15.922  20.863  0.00  0.00    -0.146 N 
ENDBRANCH  11  21
ENDBRANCH   1  11
BRANCH   2  23
ATOM     23  N   UNL d   1     -39.404  14.667  19.780  0.00  0.00    -0.285 N 
ATOM     24  C   UNL d   1     -39.302  15.480  19.643  0.00  0.00     0.101 A 
ATOM     25  C   UNL d   1     -39.317  15.778  18.877  0.00  0.00     0.100 A 
ATOM     26  N   UNL d   1     -39.436  15.261  18.239  0.00  0.00    -0.299 N 
ATOM     27  C   UNL d   1     -39.539  14.448  18.376  0.00  0.00     0.100 A 
ATOM     28  C   UNL d   1     -39.453  15.556  17.457  0.00  0.00     0.100 C 
ATOM     29  C   UNL d   1     -39.523  14.151  19.151  0.00  0.00     0.101 A 
ENDBRANCH   2  23
TORSDOF 10
ENDMDL
MODEL 2
REMARK VINA RESULT:      -3.0      4.777      8.865
REMARK  10 active torsions:
REMARK  status: ('A' for Active; 'I' for Inactive)
REMARK    1  A    between atoms: C_5  and  C_1 
REMARK    2  A    between atoms: N_6  and  C_2 
REMARK    3  A    between atoms: C_7  and  C_5 
REMARK    4  A    between atoms: C_8  and  C_5 
REMARK    5  A    between atoms: O_18  and  C_7 
REMARK    6  A    between atoms: C_22  and  O_18 
REMARK    7  A    between atoms: C_23  and  C_22 
REMARK    8  A    between atoms: C_26  and  C_23 
REMARK    9  A    between atoms: C_24  and  C_25 
REMARK   10  A    between atoms: C_25  and  C_26 
ROOT
ATOM      1  C   UNL d   1     -48.502  13.828  22.516  0.00  0.00     0.122 A 
ATOM      2  C   UNL d   1     -48.924  13.307  23.000  0.00  0.00     0.166 A 
ATOM      3  N   UNL d   1     -49.598  13.581  23.390  0.00  0.00    -0.225 NA
ATOM      4  N   UNL d   1     -48.750  14.613  22.423  0.00  0.00    -0.241 NA
ATOM      5  C   UNL d   1     -49.849  14.356  23.303  0.00  0.00     0.101 A 
ATOM      6  C   UNL d   1     -49.422  14.876  22.816  0.00  0.00     0.099 A 
ATOM      7  C   UNL d   1     -49.672  15.653  22.727  0.00  0.00     0.021 A 
ATOM      8  C   UNL d   1     -50.527  14.625  23.698  0.00  0.00     0.021 A 
ATOM      9  C   UNL d   1     -50.775  15.410  23.605  0.00  0.00     0.002 A 
ATOM     10  C   UNL d   1     -50.349  15.922  23.121  0.00  0.00     0.002 A 
ENDROOT
BRANCH   1  11
ATOM     11  C   UNL d   1     -47.817  13.567  22.114  0.00  0.00     0.105 C 
BRANCH  11  12
ATOM     12  C   UNL d   1     -47.067  13.789  22.370  0.00  0.00     0.303 C 
ATOM     13  O   UNL d   1     -46.988  14.371  22.953  0.00  0.00    -0.259 OA
BRANCH  12  14
ATOM     14  O   UNL d   1     -46.400  13.433  22.046  0.00  0.00    -0.271 OA
BRANCH  14  15
ATOM     15  C   UNL d   1     -45.648  13.653  22.325  0.00  0.00     0.126 C 
BRANCH  15  16
ATOM     16  C   UNL d   1     -45.010  13.657  21.808  0.00  0.00     0.027 C 
BRANCH  16  17
ATOM     17  C   UNL d   1     -44.369  13.160  21.947  0.00  0.00     0.002 C 
BRANCH  17  18
ATOM     18  C   UNL d   1     -43.699  13.218  21.476  0.00  0.00     0.000 C 
BRANCH  18  19
ATOM     19  C   UNL d   1     -43.074  12.688  21.577  0.00  0.00     0.000 C 
ATOM     20  C   UNL d   1     -42.405  12.759  21.111  0.00  0.00     0.000 C 
ENDBRANCH  18  19
ENDBRANCH  17  18
ENDBRANCH  16  17
ENDBRANCH  15  16
ENDBRANCH  14  15
ENDBRANCH  12  14
ENDBRANCH  11  12
BRANCH  11  21
ATOM     21  C   UNL d   1     -47.896  13.072  21.440  0.00  0.00     0.129 C 
ATOM     22  N   UNL d   1     -48.067  13.414  20.568  0.00  0.00    -0.146 N 
ENDBRANCH  11  21
ENDBRANCH   1  11
BRANCH   2  23
ATOM     23  N   UNL d   1     -48.672  12.527  23.088  0.00  0.00    -0.285 N 
ATOM     24  C   UNL d   1     -49.033  11.927  22.642  0.00  0.00     0.101 A 
ATOM     25  C   UNL d   1     -48.790  11.146  22.722  0.00  0.00     0.100 A 
ATOM     26  N   UNL d   1     -48.179  10.960  23.252  0.00  0.00    -0.299 N 
ATOM     27  C   UNL d   1     -47.818  11.559  23.698  0.00  0.00     0.100 A 
ATOM     28  C   UNL d   1     -47.926  10.167  23.339  0.00  0.00     0.100 C 
ATOM     29  C   UNL d   1     -48.067  12.347  23.615  0.00  0.00     0.101 A 
ENDBRANCH   2  23
TORSDOF 10
ENDMDL
MODEL 3
REMARK VINA RESULT:      -2.4      4.185      8.122
REMARK  10 active torsions:
REMARK  status: ('A' for Active; 'I' for Inactive)
REMARK    1  A    between atoms: C_5  and  C_1 
REMARK    2  A    between atoms: N_6  and  C_2 
REMARK    3  A    between atoms: C_7  and  C_5 
REMARK    4  A    between atoms: C_8  and  C_5 
REMARK    5  A    between atoms: O_18  and  C_7 
REMARK    6  A    between atoms: C_22  and  O_18 
REMARK    7  A    between atoms: C_23  and  C_22 
REMARK    8  A    between atoms: C_26  and  C_23 
REMARK    9  A    between atoms: C_24  and  C_25 
REMARK   10  A    between atoms: C_25  and  C_26 
ROOT
ATOM      1  C   UNL d   1     -47.639  13.478  22.287  0.00  0.00     0.122 A 
ATOM      2  C   UNL d   1     -47.917  13.034  22.928  0.00  0.00     0.166 A 
ATOM      3  N   UNL d   1     -48.545  13.326  23.375  0.00  0.00    -0.225 NA
ATOM      4  N   UNL d   1     -47.987  14.205  22.097  0.00  0.00    -0.241 NA
ATOM      5  C   UNL d   1     -48.894  14.044  23.192  0.00  0.00     0.101 A 
ATOM      6  C   UNL d   1     -48.613  14.488  22.548  0.00  0.00     0.099 A 
ATOM      7  C   UNL d   1     -48.960  15.208  22.363  0.00  0.00     0.021 A 
ATOM      8  C   UNL d   1     -49.526  14.332  23.646  0.00  0.00     0.021 A 
ATOM      9  C   UNL d   1     -49.873  15.059  23.455  0.00  0.00     0.002 A 
ATOM     10  C   UNL d   1     -49.592  15.496  22.816  0.00  0.00     0.002 A 
ENDROOT
BRANCH   1  11
ATOM     11  C   UNL d   1     -47.003  13.197  21.824  0.00  0.00     0.105 C 
BRANCH  11  12
ATOM     12  C   UNL d   1     -46.246  13.505  21.916  0.00  0.00     0.303 C 
ATOM     13  O   UNL d   1     -46.127  14.164  22.402  0.00  0.00    -0.259 OA
BRANCH  12  14
ATOM     14  O   UNL d   1     -45.610  13.158  21.525  0.00  0.00    -0.271 OA
BRANCH  14  15
ATOM     15  C   UNL d   1     -44.852  13.488  21.613  0.00  0.00     0.126 C 
BRANCH  15  16
ATOM     16  C   UNL d   1     -44.203  13.102  21.291  0.00  0.00     0.027 C 
BRANCH  16  17
ATOM     17  C   UNL d   1     -43.461  13.196  21.633  0.00  0.00     0.002 C 
BRANCH  17  18
ATOM     18  C   UNL d   1     -42.786  13.096  21.176  0.00  0.00     0.000 C 
BRANCH  18  19
ATOM     19  C   UNL d   1     -42.067  13.420  21.422  0.00  0.00     0.000 C 
ATOM     20  C   UNL d   1     -41.612  13.843  20.890  0.00  0.00     0.000 C 
ENDBRANCH  18  19
ENDBRANCH  17  18
ENDBRANCH  16  17
ENDBRANCH  15  16
ENDBRANCH  14  15
ENDBRANCH  12  14
ENDBRANCH  11  12
BRANCH  11  21
ATOM     21  C   UNL d   1     -47.139  12.592  21.257  0.00  0.00     0.129 C 
ATOM     22  N   UNL d   1     -47.477  12.772  20.385  0.00  0.00    -0.146 N 
ENDBRANCH  11  21
ENDBRANCH   1  11
BRANCH   2  23
ATOM     23  N   UNL d   1     -47.566  12.310  23.112  0.00  0.00    -0.285 N 
ATOM     24  C   UNL d   1     -46.837  12.298  23.509  0.00  0.00     0.101 A 
ATOM     25  C   UNL d   1     -46.478  11.582  23.698  0.00  0.00     0.100 A 
ATOM     26  N   UNL d   1     -46.850  10.871  23.489  0.00  0.00    -0.299 N 
ATOM     27  C   UNL d   1     -47.579  10.883  23.092  0.00  0.00     0.100 A 
ATOM     28  C   UNL d   1     -46.491  10.139  23.677  0.00  0.00     0.100 C 
ATOM     29  C   UNL d   1     -47.938  11.607  22.903  0.00  0.00     0.101 A 
ENDBRANCH   2  23
TORSDOF 10
ENDMDL
