MODEL 1
REMARK VINA RESULT:      28.3      0.000      0.000
REMARK  5 active torsions:
REMARK  status: ('A' for Active; 'I' for Inactive)
REMARK    1  A    between atoms: C_6  and  C_1 
REMARK    2  A    between atoms: N_7  and  C_2 
REMARK    3  A    between atoms: O_11  and  C_6 
REMARK       I    between atoms: C_8  and  N_7 
REMARK    4  A    between atoms: C_14  and  C_8 
REMARK    5  A    between atoms: C_15  and  O_11 
ROOT
ATOM      1  C   UNL d   1     -58.535 -98.817 -43.167  0.00  0.00     0.162 A 
ATOM      2  C   UNL d   1     -58.483 -98.791 -43.990  0.00  0.00     0.109 A 
ATOM      3  N   UNL d   1     -57.771 -98.825 -42.861  0.00  0.00    -0.239 NA
ATOM      4  C   UNL d   1     -57.688 -98.783 -44.192  0.00  0.00     0.037 A 
ATOM      5  C   UNL d   1     -57.243 -98.804 -43.499  0.00  0.00     0.083 A 
ATOM      6  C   UNL d   1     -57.310 -98.759 -44.927  0.00  0.00     0.003 A 
ATOM      7  C   UNL d   1     -56.417 -98.801 -43.534  0.00  0.00     0.019 A 
ATOM      8  C   UNL d   1     -56.484 -98.756 -44.962  0.00  0.00     0.000 A 
ATOM      9  C   UNL d   1     -56.043 -98.777 -44.268  0.00  0.00     0.002 A 
ENDROOT
BRANCH   1  10
ATOM     10  C   UNL d   1     -59.235 -98.833 -42.730  0.00  0.00     0.320 C 
ATOM     11  O   UNL d   1     -59.961 -98.756 -43.110  0.00  0.00    -0.257 OA
BRANCH  10  12
ATOM     12  O   UNL d   1     -59.217 -98.925 -41.910  0.00  0.00    -0.270 OA
BRANCH  12  13
ATOM     13  C   UNL d   1     -59.926 -98.995 -41.496  0.00  0.00     0.126 C 
ATOM     14  C   UNL d   1     -59.912 -99.049 -40.679  0.00  0.00     0.029 C 
ENDBRANCH  12  13
ENDBRANCH  10  12
ENDBRANCH   1  10
BRANCH   2  15
ATOM     15  N   UNL d   1     -59.121 -98.776 -44.518  0.00  0.00    -0.206 NA
ATOM     16  C   UNL d   1     -59.009 -99.029 -45.306  0.00  0.00     0.279 C 
ATOM     17  O   UNL d   1     -58.262 -99.291 -45.550  0.00  0.00    -0.265 OA
BRANCH  16  18
ATOM     18  C   UNL d   1     -59.645 -99.012 -45.829  0.00  0.00     0.062 C 
ATOM     19  C   UNL d   1     -59.506 -99.095 -46.642  0.00  0.00     0.005 C 
ENDBRANCH  16  18
ENDBRANCH   2  15
TORSDOF 5
ENDMDL
