MODEL 1
REMARK VINA RESULT:      -5.5      0.000      0.000
REMARK  6 active torsions:
REMARK  status: ('A' for Active; 'I' for Inactive)
REMARK    1  A    between atoms: C_4  and  S_1 
REMARK    2  A    between atoms: C_5  and  S_1 
REMARK    3  A    between atoms: C_2  and  N_7 
REMARK    4  A    between atoms: N_3  and  C_2 
REMARK    5  A    between atoms: C_8  and  N_6 
REMARK    6  A    between atoms: N_7  and  C_14 
ROOT
ATOM      1  C   UNL d   1     -41.675-122.569 -51.933  0.00  0.00     0.206 C 
ATOM      2  S   UNL d   1     -41.190-121.963 -52.218  0.00  0.00    -0.038 SA
ENDROOT
BRANCH   1   3
ATOM      3  N   UNL d   1     -42.122-123.022 -52.458  0.00  0.00    -0.218 NA
BRANCH   3   4
ATOM      4  C   UNL d   1     -41.874-123.108 -53.240  0.00  0.00     0.085 A 
ATOM      5  C   UNL d   1     -42.128-122.572 -53.814  0.00  0.00     0.031 A 
ATOM      6  C   UNL d   1     -41.882-122.656 -54.595  0.00  0.00     0.094 A 
ATOM      7  C   UNL d   1     -41.377-123.281 -54.805  0.00  0.00     0.012 A 
ATOM      8  C   UNL d   1     -41.123-123.817 -54.231  0.00  0.00     0.002 A 
ATOM      9  C   UNL d   1     -41.374-123.728 -53.448  0.00  0.00     0.019 A 
BRANCH   6  10
ATOM     10  S   UNL d   1     -42.136-122.117 -55.176  0.00  0.00     0.262 S 
ATOM     11  O   UNL d   1     -42.828-122.554 -55.272  0.00  0.00    -0.213 OA
ATOM     12  O   UNL d   1     -41.434-121.687 -55.068  0.00  0.00    -0.213 OA
BRANCH  10  13
ATOM     13  C   UNL d   1     -42.383-121.580 -55.752  0.00  0.00     0.364 C 
ATOM     14  F   UNL d   1     -42.741-121.852 -56.446  0.00  0.00    -0.159 F 
ATOM     15  F   UNL d   1     -42.274-120.766 -55.634  0.00  0.00    -0.159 F 
ENDBRANCH  10  13
ENDBRANCH   6  10
ENDBRANCH   3   4
ENDBRANCH   1   3
BRANCH   1  16
ATOM     16  N   UNL d   1     -41.713-122.721 -51.120  0.00  0.00    -0.278 N 
ATOM     17  C   UNL d   1     -41.513-123.469 -50.830  0.00  0.00     0.101 A 
ATOM     18  C   UNL d   1     -41.551-123.614 -50.023  0.00  0.00     0.100 A 
ATOM     19  N   UNL d   1     -41.786-123.027 -49.500  0.00  0.00    -0.301 N 
ATOM     20  C   UNL d   1     -41.988-122.276 -49.782  0.00  0.00     0.100 A 
ATOM     21  C   UNL d   1     -41.950-122.126 -50.599  0.00  0.00     0.101 A 
BRANCH  19  22
ATOM     22  C   UNL d   1     -41.823-123.182 -48.681  0.00  0.00     0.065 A 
ATOM     23  C   UNL d   1     -42.539-123.406 -48.334  0.00  0.00     0.029 A 
ATOM     24  C   UNL d   1     -42.576-123.559 -47.524  0.00  0.00     0.059 A 
ATOM     25 CL   UNL d   1     -43.291-123.783 -47.177  0.00  0.00    -0.082 Cl
ATOM     26  C   UNL d   1     -41.896-123.488 -47.061  0.00  0.00     0.011 A 
ATOM     27  C   UNL d   1     -41.181-123.264 -47.408  0.00  0.00     0.002 A 
ATOM     28  C   UNL d   1     -41.143-123.110 -48.218  0.00  0.00     0.018 A 
ENDBRANCH  19  22
ENDBRANCH   1  16
TORSDOF 6
ENDMDL
