MODEL 1
REMARK VINA RESULT:      44.8      0.000      0.000
REMARK  4 active torsions:
REMARK  status: ('A' for Active; 'I' for Inactive)
REMARK    1  A    between atoms: C_11  and  C_4 
REMARK    2  A    between atoms: N_10  and  C_7 
REMARK    3  A    between atoms: C_14  and  N_10 
REMARK    4  A    between atoms: C_21  and  C_14 
ROOT
ATOM      1  C   UNL d   1      13.839  14.140  -3.582  0.00  0.00     0.186 A 
ATOM      2  N   UNL d   1      13.595  14.009  -4.365  0.00  0.00    -0.193 N 
ATOM      3  N   UNL d   1      13.804  13.511  -3.031  0.00  0.00    -0.206 NA
ATOM      4  C   UNL d   1      14.082  14.923  -3.516  0.00  0.00     0.140 A 
ATOM      5  N   UNL d   1      13.690  14.721  -4.781  0.00  0.00    -0.058 NA
ATOM      6  N   UNL d   1      13.992  15.290  -4.258  0.00  0.00    -0.127 NA
ATOM      7  C   UNL d   1      13.528  12.766  -3.262  0.00  0.00     0.166 A 
ATOM      8  C   UNL d   1      13.287  12.648  -4.048  0.00  0.00     0.054 A 
ATOM      9  C   UNL d   1      13.321  13.266  -4.593  0.00  0.00     0.089 A 
ATOM     10  C   UNL d   1      13.013  11.907  -4.276  0.00  0.00     0.005 A 
ATOM     11  C   UNL d   1      13.078  13.138  -5.373  0.00  0.00     0.019 A 
ATOM     12  C   UNL d   1      12.771  11.779  -5.053  0.00  0.00     0.000 A 
ATOM     13  C   UNL d   1      12.804  12.395  -5.601  0.00  0.00     0.002 A 
ENDROOT
BRANCH   7  14
ATOM     14  N   UNL d   1      13.493  12.145  -2.720  0.00  0.00    -0.225 NA
BRANCH  14  15
ATOM     15  C   UNL d   1      14.188  11.813  -2.439  0.00  0.00     0.101 C 
BRANCH  15  16
ATOM     16  C   UNL d   1      14.351  11.815  -1.631  0.00  0.00     0.019 A 
ATOM     17  C   UNL d   1      13.737  11.780  -1.081  0.00  0.00     0.002 A 
ATOM     18  C   UNL d   1      13.900  11.783  -0.272  0.00  0.00     0.000 A 
ATOM     19  C   UNL d   1      14.686  11.820  -0.015  0.00  0.00     0.000 A 
ATOM     20  C   UNL d   1      15.304  11.855  -0.569  0.00  0.00     0.000 A 
ATOM     21  C   UNL d   1      15.129  11.852  -1.375  0.00  0.00     0.002 A 
ENDBRANCH  15  16
ENDBRANCH  14  15
ENDBRANCH   7  14
BRANCH   4  22
ATOM     22  C   UNL d   1      14.365  15.281  -2.835  0.00  0.00     0.023 A 
ATOM     23  C   UNL d   1      14.688  16.037  -2.877  0.00  0.00     0.004 A 
ATOM     24  C   UNL d   1      14.976  16.402  -2.188  0.00  0.00     0.030 A 
ATOM     25  C   UNL d   1      14.937  16.008  -1.471  0.00  0.00     0.140 A 
ATOM     26  C   UNL d   1      14.609  15.245  -1.438  0.00  0.00     0.030 A 
ATOM     27  F   UNL d   1      15.219  16.365  -0.790  0.00  0.00    -0.204 F 
ATOM     28  C   UNL d   1      14.326  14.887  -2.119  0.00  0.00     0.004 A 
ENDBRANCH   4  22
TORSDOF 4
ENDMDL
