MODEL 1
REMARK VINA RESULT:      -2.8      0.000      0.000
REMARK  5 active torsions:
REMARK  status: ('A' for Active; 'I' for Inactive)
REMARK    1  A    between atoms: C_2  and  C_1 
REMARK       I    between atoms: N_4  and  C_2 
REMARK    2  A    between atoms: C_7  and  N_4 
REMARK    3  A    between atoms: C_12  and  C_6 
REMARK    4  A    between atoms: S_11  and  C_12 
REMARK    5  A    between atoms: C_14  and  S_11 
ROOT
ATOM      1  C   UNL d   1     -41.496-122.048 -52.446  0.00  0.00     0.158 A 
ATOM      2  O   UNL d   1     -41.904-122.169 -51.739  0.00  0.00    -0.302 OA
ATOM      3  C   UNL d   1     -41.123-122.762 -52.642  0.00  0.00     0.032 A 
ATOM      4  C   UNL d   1     -41.788-122.942 -51.501  0.00  0.00     0.107 A 
ATOM      5  C   UNL d   1     -41.303-123.315 -52.057  0.00  0.00     0.027 A 
ENDROOT
BRANCH   1   6
ATOM      6  C   UNL d   1     -41.461-121.348 -52.884  0.00  0.00     0.302 C 
ATOM      7  N   UNL d   1     -41.575-121.360 -53.699  0.00  0.00    -0.204 NA
ATOM      8  O   UNL d   1     -41.310-120.640 -52.497  0.00  0.00    -0.263 OA
BRANCH   7   9
ATOM      9  C   UNL d   1     -41.727-122.086 -54.078  0.00  0.00     0.112 A 
ATOM     10  C   UNL d   1     -42.495-122.241 -54.342  0.00  0.00     0.158 A 
ATOM     11  F   UNL d   1     -43.091-121.688 -54.230  0.00  0.00    -0.203 F 
ATOM     12  C   UNL d   1     -42.651-122.957 -54.718  0.00  0.00     0.031 A 
ATOM     13  C   UNL d   1     -42.046-123.513 -54.829  0.00  0.00     0.002 A 
ATOM     14  C   UNL d   1     -41.284-123.350 -54.563  0.00  0.00     0.002 A 
ATOM     15  C   UNL d   1     -41.127-122.631 -54.186  0.00  0.00     0.021 A 
ENDBRANCH   7   9
ENDBRANCH   1   6
BRANCH   4  16
ATOM     16  C   UNL d   1     -42.096-123.299 -50.822  0.00  0.00     0.060 C 
BRANCH  16  17
ATOM     17  S   UNL d   1     -41.722-123.193 -50.097  0.00  0.00    -0.084 SA
BRANCH  17  18
ATOM     18  C   UNL d   1     -42.101-123.395 -49.398  0.00  0.00     0.029 A 
ATOM     19  C   UNL d   1     -42.914-123.514 -49.385  0.00  0.00     0.006 A 
ATOM     20  C   UNL d   1     -43.294-123.717 -48.686  0.00  0.00     0.001 A 
ATOM     21  C   UNL d   1     -42.848-123.801 -47.992  0.00  0.00     0.000 A 
ATOM     22  C   UNL d   1     -42.033-123.681 -48.008  0.00  0.00     0.001 A 
ATOM     23  C   UNL d   1     -41.654-123.478 -48.708  0.00  0.00     0.006 A 
ENDBRANCH  17  18
ENDBRANCH  16  17
ENDBRANCH   4  16
TORSDOF 5
ENDMDL
MODEL 2
REMARK VINA RESULT:      -2.7      1.682      4.552
REMARK  5 active torsions:
REMARK  status: ('A' for Active; 'I' for Inactive)
REMARK    1  A    between atoms: C_2  and  C_1 
REMARK       I    between atoms: N_4  and  C_2 
REMARK    2  A    between atoms: C_7  and  N_4 
REMARK    3  A    between atoms: C_12  and  C_6 
REMARK    4  A    between atoms: S_11  and  C_12 
REMARK    5  A    between atoms: C_14  and  S_11 
ROOT
ATOM      1  C   UNL d   1     -41.439-122.043 -51.164  0.00  0.00     0.158 A 
ATOM      2  O   UNL d   1     -41.655-121.946 -51.954  0.00  0.00    -0.302 OA
ATOM      3  C   UNL d   1     -41.127-122.807 -51.083  0.00  0.00     0.032 A 
ATOM      4  C   UNL d   1     -41.481-122.635 -52.357  0.00  0.00     0.107 A 
ATOM      5  C   UNL d   1     -41.153-123.173 -51.822  0.00  0.00     0.027 A 
ENDROOT
BRANCH   1   6
ATOM      6  C   UNL d   1     -41.517-121.486 -50.557  0.00  0.00     0.302 C 
ATOM      7  N   UNL d   1     -41.983-121.649 -49.899  0.00  0.00    -0.204 NA
ATOM      8  O   UNL d   1     -41.123-120.769 -50.618  0.00  0.00    -0.263 OA
BRANCH   7   9
ATOM      9  C   UNL d   1     -42.378-122.381 -49.850  0.00  0.00     0.112 A 
ATOM     10  C   UNL d   1     -43.183-122.411 -50.035  0.00  0.00     0.158 A 
ATOM     11  F   UNL d   1     -43.581-121.729 -50.262  0.00  0.00    -0.203 F 
ATOM     12  C   UNL d   1     -43.577-123.131 -49.989  0.00  0.00     0.031 A 
ATOM     13  C   UNL d   1     -43.172-123.817 -49.760  0.00  0.00     0.002 A 
ATOM     14  C   UNL d   1     -42.370-123.780 -49.577  0.00  0.00     0.002 A 
ATOM     15  C   UNL d   1     -41.974-123.056 -49.624  0.00  0.00     0.021 A 
ENDBRANCH   7   9
ENDBRANCH   1   6
BRANCH   4  16
ATOM     16  C   UNL d   1     -41.606-122.780 -53.161  0.00  0.00     0.060 C 
BRANCH  16  17
ATOM     17  S   UNL d   1     -41.558-122.161 -53.701  0.00  0.00    -0.084 SA
BRANCH  17  18
ATOM     18  C   UNL d   1     -41.865-122.242 -54.458  0.00  0.00     0.029 A 
ATOM     19  C   UNL d   1     -42.034-122.988 -54.760  0.00  0.00     0.006 A 
ATOM     20  C   UNL d   1     -42.341-123.070 -55.517  0.00  0.00     0.001 A 
ATOM     21  C   UNL d   1     -42.479-122.393 -55.974  0.00  0.00     0.000 A 
ATOM     22  C   UNL d   1     -42.308-121.647 -55.669  0.00  0.00     0.001 A 
ATOM     23  C   UNL d   1     -42.001-121.566 -54.911  0.00  0.00     0.006 A 
ENDBRANCH  17  18
ENDBRANCH  16  17
ENDBRANCH   4  16
TORSDOF 5
ENDMDL
MODEL 3
REMARK VINA RESULT:      -2.3      1.156      1.636
REMARK  5 active torsions:
REMARK  status: ('A' for Active; 'I' for Inactive)
REMARK    1  A    between atoms: C_2  and  C_1 
REMARK       I    between atoms: N_4  and  C_2 
REMARK    2  A    between atoms: C_7  and  N_4 
REMARK    3  A    between atoms: C_12  and  C_6 
REMARK    4  A    between atoms: S_11  and  C_12 
REMARK    5  A    between atoms: C_14  and  S_11 
ROOT
ATOM      1  C   UNL d   1     -42.258-121.682 -53.600  0.00  0.00     0.158 A 
ATOM      2  O   UNL d   1     -42.394-122.152 -52.936  0.00  0.00    -0.302 OA
ATOM      3  C   UNL d   1     -41.476-121.408 -53.554  0.00  0.00     0.032 A 
ATOM      4  C   UNL d   1     -41.711-122.172 -52.487  0.00  0.00     0.107 A 
ATOM      5  C   UNL d   1     -41.138-121.712 -52.865  0.00  0.00     0.027 A 
ENDROOT
BRANCH   1   6
ATOM      6  C   UNL d   1     -42.795-121.509 -54.204  0.00  0.00     0.302 C 
ATOM      7  N   UNL d   1     -42.789-121.942 -54.903  0.00  0.00    -0.204 NA
ATOM      8  O   UNL d   1     -43.335-120.900 -54.098  0.00  0.00    -0.263 OA
BRANCH   7   9
ATOM      9  C   UNL d   1     -42.236-122.558 -54.997  0.00  0.00     0.112 A 
ATOM     10  C   UNL d   1     -41.672-122.496 -55.599  0.00  0.00     0.158 A 
ATOM     11  F   UNL d   1     -41.662-121.839 -56.091  0.00  0.00    -0.203 F 
ATOM     12  C   UNL d   1     -41.123-123.101 -55.695  0.00  0.00     0.031 A 
ATOM     13  C   UNL d   1     -41.135-123.763 -55.196  0.00  0.00     0.002 A 
ATOM     14  C   UNL d   1     -41.700-123.817 -54.599  0.00  0.00     0.002 A 
ATOM     15  C   UNL d   1     -42.252-123.209 -54.502  0.00  0.00     0.021 A 
ENDBRANCH   7   9
ENDBRANCH   1   6
BRANCH   4  16
ATOM     16  C   UNL d   1     -41.603-122.578 -51.775  0.00  0.00     0.060 C 
BRANCH  16  17
ATOM     17  S   UNL d   1     -41.640-122.172 -51.061  0.00  0.00    -0.084 SA
BRANCH  17  18
ATOM     18  C   UNL d   1     -41.779-122.572 -50.359  0.00  0.00     0.029 A 
ATOM     19  C   UNL d   1     -41.181-123.013 -50.007  0.00  0.00     0.006 A 
ATOM     20  C   UNL d   1     -41.319-123.414 -49.304  0.00  0.00     0.001 A 
ATOM     21  C   UNL d   1     -42.068-123.371 -48.953  0.00  0.00     0.000 A 
ATOM     22  C   UNL d   1     -42.665-122.928 -49.308  0.00  0.00     0.001 A 
ATOM     23  C   UNL d   1     -42.526-122.527 -50.011  0.00  0.00     0.006 A 
ENDBRANCH  17  18
ENDBRANCH  16  17
ENDBRANCH   4  16
TORSDOF 5
ENDMDL
