MODEL 1
REMARK VINA RESULT:      -6.1      0.000      0.000
REMARK  1 active torsions:
REMARK  status: ('A' for Active; 'I' for Inactive)
REMARK    1  A    between atoms: C_7  and  C_2 
ROOT
ATOM      1  C   UNL d   1      57.313  -0.060  31.141  0.00  0.00     0.070 A 
ATOM      2  C   UNL d   1      57.765  -0.214  30.494  0.00  0.00     0.170 A 
ATOM      3  C   UNL d   1      57.020  -0.769  31.452  0.00  0.00     0.108 A 
ATOM      4  N   UNL d   1      57.770  -1.049  30.376  0.00  0.00    -0.142 NA
ATOM      5  N   UNL d   1      57.304  -1.380  30.976  0.00  0.00    -0.148 NA
ATOM      6  C   UNL d   1      56.536  -0.749  32.124  0.00  0.00     0.042 A 
ATOM      7  C   UNL d   1      57.125   0.660  31.497  0.00  0.00     0.126 A 
ATOM      8  O   UNL d   1      56.641   0.680  32.170  0.00  0.00    -0.305 OA
ATOM      9  C   UNL d   1      56.348  -0.029  32.480  0.00  0.00     0.102 A 
ATOM     10  C   UNL d   1      56.243  -1.458  32.435  0.00  0.00     0.004 A 
ATOM     11  C   UNL d   1      55.865  -0.009  33.153  0.00  0.00     0.025 A 
ATOM     12  C   UNL d   1      55.766  -1.433  33.100  0.00  0.00     0.000 A 
ATOM     13  C   UNL d   1      55.578  -0.713  33.456  0.00  0.00     0.002 A 
ENDROOT
BRANCH   2  14
ATOM     14  C   UNL d   1      58.137   0.364  30.057  0.00  0.00     0.231 C 
ATOM     15  O   UNL d   1      58.872   0.640  30.282  0.00  0.00    -0.643 OA
ATOM     16  O   UNL d   1      57.770   0.674  29.384  0.00  0.00    -0.643 OA
ENDBRANCH   2  14
TORSDOF 1
ENDMDL
MODEL 2
REMARK VINA RESULT:      -5.3      1.242      3.096
REMARK  1 active torsions:
REMARK  status: ('A' for Active; 'I' for Inactive)
REMARK    1  A    between atoms: C_7  and  C_2 
ROOT
ATOM      1  C   UNL d   1      56.355  -0.261  32.558  0.00  0.00     0.070 A 
ATOM      2  C   UNL d   1      55.863  -0.549  33.125  0.00  0.00     0.170 A 
ATOM      3  C   UNL d   1      56.615  -0.880  32.073  0.00  0.00     0.108 A 
ATOM      4  N   UNL d   1      55.796  -1.382  33.009  0.00  0.00    -0.142 NA
ATOM      5  N   UNL d   1      56.267  -1.573  32.354  0.00  0.00    -0.148 NA
ATOM      6  C   UNL d   1      57.131  -0.717  31.446  0.00  0.00     0.042 A 
ATOM      7  C   UNL d   1      56.609   0.511  32.418  0.00  0.00     0.126 A 
ATOM      8  O   UNL d   1      57.125   0.675  31.792  0.00  0.00    -0.305 OA
ATOM      9  C   UNL d   1      57.384   0.056  31.306  0.00  0.00     0.102 A 
ATOM     10  C   UNL d   1      57.390  -1.336  30.961  0.00  0.00     0.004 A 
ATOM     11  C   UNL d   1      57.900   0.220  30.680  0.00  0.00     0.025 A 
ATOM     12  C   UNL d   1      57.900  -1.168  30.343  0.00  0.00     0.000 A 
ATOM     13  C   UNL d   1      58.153  -0.396  30.203  0.00  0.00     0.002 A 
ENDROOT
BRANCH   2  14
ATOM     14  C   UNL d   1      55.510  -0.084  33.693  0.00  0.00     0.231 C 
ATOM     15  O   UNL d   1      54.759   0.213  33.572  0.00  0.00    -0.643 OA
ATOM     16  O   UNL d   1      55.912   0.088  34.394  0.00  0.00    -0.643 OA
ENDBRANCH   2  14
TORSDOF 1
ENDMDL
MODEL 3
REMARK VINA RESULT:      -5.0      1.170      1.507
REMARK  1 active torsions:
REMARK  status: ('A' for Active; 'I' for Inactive)
REMARK    1  A    between atoms: C_7  and  C_2 
ROOT
ATOM      1  C   UNL d   1      57.673  -0.592  30.744  0.00  0.00     0.070 A 
ATOM      2  C   UNL d   1      58.181  -0.267  30.211  0.00  0.00     0.170 A 
ATOM      3  C   UNL d   1      57.446  -0.019  31.297  0.00  0.00     0.108 A 
ATOM      4  N   UNL d   1      58.291   0.543  30.420  0.00  0.00    -0.142 NA
ATOM      5  N   UNL d   1      57.830   0.682  31.094  0.00  0.00    -0.148 NA
ATOM      6  C   UNL d   1      56.922  -0.226  31.904  0.00  0.00     0.042 A 
ATOM      7  C   UNL d   1      57.380  -1.361  30.796  0.00  0.00     0.126 A 
ATOM      8  O   UNL d   1      56.856  -1.568  31.403  0.00  0.00    -0.305 OA
ATOM      9  C   UNL d   1      56.628  -0.995  31.956  0.00  0.00     0.102 A 
ATOM     10  C   UNL d   1      56.694   0.347  32.457  0.00  0.00     0.004 A 
ATOM     11  C   UNL d   1      56.104  -1.202  32.563  0.00  0.00     0.025 A 
ATOM     12  C   UNL d   1      56.175   0.137  33.055  0.00  0.00     0.000 A 
ATOM     13  C   UNL d   1      55.882  -0.633  33.108  0.00  0.00     0.002 A 
ENDROOT
BRANCH   2  14
ATOM     14  C   UNL d   1      58.510  -0.682  29.592  0.00  0.00     0.231 C 
ATOM     15  O   UNL d   1      59.212  -1.086  29.696  0.00  0.00    -0.643 OA
ATOM     16  O   UNL d   1      58.133  -0.696  28.857  0.00  0.00    -0.643 OA
ENDBRANCH   2  14
TORSDOF 1
ENDMDL
MODEL 4
REMARK VINA RESULT:      -4.5      1.012      3.007
REMARK  1 active torsions:
REMARK  status: ('A' for Active; 'I' for Inactive)
REMARK    1  A    between atoms: C_7  and  C_2 
ROOT
ATOM      1  C   UNL d   1      57.005  -0.256  31.897  0.00  0.00     0.070 A 
ATOM      2  C   UNL d   1      56.475  -0.558  32.420  0.00  0.00     0.170 A 
ATOM      3  C   UNL d   1      57.212  -0.837  31.343  0.00  0.00     0.108 A 
ATOM      4  N   UNL d   1      56.328  -1.361  32.205  0.00  0.00    -0.142 NA
ATOM      5  N   UNL d   1      56.791  -1.519  31.536  0.00  0.00    -0.148 NA
ATOM      6  C   UNL d   1      57.754  -0.653  30.745  0.00  0.00     0.042 A 
ATOM      7  C   UNL d   1      57.336   0.498  31.853  0.00  0.00     0.126 A 
ATOM      8  O   UNL d   1      57.879   0.682  31.255  0.00  0.00    -0.305 OA
ATOM      9  C   UNL d   1      58.086   0.102  30.701  0.00  0.00     0.102 A 
ATOM     10  C   UNL d   1      57.961  -1.233  30.191  0.00  0.00     0.004 A 
ATOM     11  C   UNL d   1      58.628   0.286  30.103  0.00  0.00     0.025 A 
ATOM     12  C   UNL d   1      58.498  -1.046  29.602  0.00  0.00     0.000 A 
ATOM     13  C   UNL d   1      58.829  -0.292  29.558  0.00  0.00     0.002 A 
ENDROOT
BRANCH   2  14
ATOM     14  C   UNL d   1      56.158  -0.131  33.037  0.00  0.00     0.231 C 
ATOM     15  O   UNL d   1      56.557  -0.078  33.748  0.00  0.00    -0.643 OA
ATOM     16  O   UNL d   1      55.432   0.252  32.945  0.00  0.00    -0.643 OA
ENDBRANCH   2  14
TORSDOF 1
ENDMDL
MODEL 5
REMARK VINA RESULT:      -3.2      1.184      1.807
REMARK  1 active torsions:
REMARK  status: ('A' for Active; 'I' for Inactive)
REMARK    1  A    between atoms: C_7  and  C_2 
ROOT
ATOM      1  C   UNL d   1      58.678  -0.092  30.203  0.00  0.00     0.070 A 
ATOM      2  C   UNL d   1      58.890  -0.378  29.482  0.00  0.00     0.170 A 
ATOM      3  C   UNL d   1      57.981  -0.460  30.456  0.00  0.00     0.108 A 
ATOM      4  N   UNL d   1      58.315  -0.951  29.253  0.00  0.00    -0.142 NA
ATOM      5  N   UNL d   1      57.758  -0.991  29.865  0.00  0.00    -0.148 NA
ATOM      6  C   UNL d   1      57.655  -0.254  31.188  0.00  0.00     0.042 A 
ATOM      7  C   UNL d   1      59.045   0.475  30.677  0.00  0.00     0.126 A 
ATOM      8  O   UNL d   1      58.719   0.682  31.410  0.00  0.00    -0.305 OA
ATOM      9  C   UNL d   1      58.021   0.313  31.662  0.00  0.00     0.102 A 
ATOM     10  C   UNL d   1      56.957  -0.623  31.441  0.00  0.00     0.004 A 
ATOM     11  C   UNL d   1      57.695   0.520  32.395  0.00  0.00     0.025 A 
ATOM     12  C   UNL d   1      56.639  -0.415  32.166  0.00  0.00     0.000 A 
ATOM     13  C   UNL d   1      57.005   0.152  32.640  0.00  0.00     0.002 A 
ENDROOT
BRANCH   2  14
ATOM     14  C   UNL d   1      59.551  -0.130  29.076  0.00  0.00     0.231 C 
ATOM     15  O   UNL d   1      59.510   0.518  28.580  0.00  0.00    -0.643 OA
ATOM     16  O   UNL d   1      60.266  -0.534  29.165  0.00  0.00    -0.643 OA
ENDBRANCH   2  14
TORSDOF 1
ENDMDL
MODEL 6
REMARK VINA RESULT:      -3.1      9.687     10.066
REMARK  1 active torsions:
REMARK  status: ('A' for Active; 'I' for Inactive)
REMARK    1  A    between atoms: C_7  and  C_2 
ROOT
ATOM      1  C   UNL d   1      60.284  -8.982  34.560  0.00  0.00     0.070 A 
ATOM      2  C   UNL d   1      60.185  -8.781  35.332  0.00  0.00     0.170 A 
ATOM      3  C   UNL d   1      59.549  -9.153  34.219  0.00  0.00     0.108 A 
ATOM      4  N   UNL d   1      59.360  -8.820  35.505  0.00  0.00    -0.142 NA
ATOM      5  N   UNL d   1      58.979  -9.052  34.806  0.00  0.00    -0.148 NA
ATOM      6  C   UNL d   1      59.511  -9.376  33.422  0.00  0.00     0.042 A 
ATOM      7  C   UNL d   1      60.973  -9.034  34.109  0.00  0.00     0.126 A 
ATOM      8  O   UNL d   1      60.936  -9.257  33.312  0.00  0.00    -0.305 OA
ATOM      9  C   UNL d   1      60.201  -9.427  32.972  0.00  0.00     0.102 A 
ATOM     10  C   UNL d   1      58.776  -9.547  33.082  0.00  0.00     0.004 A 
ATOM     11  C   UNL d   1      60.163  -9.650  32.175  0.00  0.00     0.025 A 
ATOM     12  C   UNL d   1      58.745  -9.766  32.294  0.00  0.00     0.000 A 
ATOM     13  C   UNL d   1      59.434  -9.818  31.844  0.00  0.00     0.002 A 
ENDROOT
BRANCH   2  14
ATOM     14  C   UNL d   1      60.800  -8.580  35.827  0.00  0.00     0.231 C 
ATOM     15  O   UNL d   1      61.124  -9.140  36.326  0.00  0.00    -0.643 OA
ATOM     16  O   UNL d   1      61.098  -7.810  35.825  0.00  0.00    -0.643 OA
ENDBRANCH   2  14
TORSDOF 1
ENDMDL
