MODEL 1
REMARK VINA RESULT:      -2.8      0.000      0.000
REMARK  6 active torsions:
REMARK  status: ('A' for Active; 'I' for Inactive)
REMARK       I    between atoms: C_3  and  N_1 
REMARK    1  A    between atoms: C_5  and  N_1 
REMARK    2  A    between atoms: C_2  and  C_3 
REMARK    3  A    between atoms: N_9  and  C_5 
REMARK    4  A    between atoms: C_13  and  N_9 
REMARK    5  A    between atoms: C_11  and  C_13 
REMARK    6  A    between atoms: C_15  and  C_11 
ROOT
ATOM      1  C   UNL d   1      32.979  19.306 -22.717  0.00  0.00     0.224 C 
ATOM      2  S   UNL d   1      33.241  18.809 -22.107  0.00  0.00    -0.037 SA
ENDROOT
BRANCH   1   3
ATOM      3  N   UNL d   1      32.829  20.102 -22.562  0.00  0.00    -0.177 NA
ATOM      4  C   UNL d   1      32.940  20.399 -21.793  0.00  0.00     0.304 C 
ATOM      5  O   UNL d   1      33.195  19.907 -21.195  0.00  0.00    -0.263 OA
BRANCH   4   6
ATOM      6  C   UNL d   1      32.789  21.194 -21.639  0.00  0.00     0.158 A 
ATOM      7  O   UNL d   1      32.914  21.824 -22.157  0.00  0.00    -0.296 OA
ATOM      8  C   UNL d   1      32.694  22.516 -21.787  0.00  0.00     0.134 A 
ATOM      9 BR   UNL d   1      32.727  23.272 -22.104  0.00  0.00    -0.022 Br
ATOM     10  C   UNL d   1      32.429  22.322 -21.032  0.00  0.00     0.034 A 
ATOM     11  C   UNL d   1      32.488  21.497 -20.938  0.00  0.00     0.032 A 
ENDBRANCH   4   6
ENDBRANCH   1   3
BRANCH   1  12
ATOM     12  N   UNL d   1      32.872  18.998 -23.473  0.00  0.00    -0.212 NA
BRANCH  12  13
ATOM     13  C   UNL d   1      32.371  18.363 -23.582  0.00  0.00     0.143 C 
BRANCH  13  14
ATOM     14  C   UNL d   1      32.267  18.052 -24.337  0.00  0.00     0.215 C 
ATOM     15  O   UNL d   1      32.724  18.311 -24.969  0.00  0.00    -0.285 OA
BRANCH  14  16
ATOM     16  C   UNL d   1      31.695  17.468 -24.472  0.00  0.00     0.041 A 
ATOM     17  C   UNL d   1      30.935  17.692 -24.710  0.00  0.00     0.003 A 
ATOM     18  C   UNL d   1      30.359  17.117 -24.847  0.00  0.00     0.000 A 
ATOM     19  C   UNL d   1      30.544  16.314 -24.746  0.00  0.00     0.000 A 
ATOM     20  C   UNL d   1      31.303  16.090 -24.508  0.00  0.00     0.000 A 
ATOM     21  C   UNL d   1      31.879  16.671 -24.371  0.00  0.00     0.003 A 
ENDBRANCH  14  16
ENDBRANCH  13  14
ENDBRANCH  12  13
ENDBRANCH   1  12
TORSDOF 6
ENDMDL
MODEL 2
REMARK VINA RESULT:      -2.8      1.959      4.962
REMARK  6 active torsions:
REMARK  status: ('A' for Active; 'I' for Inactive)
REMARK       I    between atoms: C_3  and  N_1 
REMARK    1  A    between atoms: C_5  and  N_1 
REMARK    2  A    between atoms: C_2  and  C_3 
REMARK    3  A    between atoms: N_9  and  C_5 
REMARK    4  A    between atoms: C_13  and  N_9 
REMARK    5  A    between atoms: C_11  and  C_13 
REMARK    6  A    between atoms: C_15  and  C_11 
ROOT
ATOM      1  C   UNL d   1      32.591  17.879 -23.378  0.00  0.00     0.224 C 
ATOM      2  S   UNL d   1      33.018  17.217 -23.122  0.00  0.00    -0.037 SA
ENDROOT
BRANCH   1   3
ATOM      3  N   UNL d   1      31.825  17.786 -23.670  0.00  0.00    -0.177 NA
ATOM      4  C   UNL d   1      31.639  17.117 -24.128  0.00  0.00     0.304 C 
ATOM      5  O   UNL d   1      32.209  16.556 -24.289  0.00  0.00    -0.263 OA
BRANCH   4   6
ATOM      6  C   UNL d   1      30.874  17.024 -24.420  0.00  0.00     0.158 A 
ATOM      7  O   UNL d   1      30.264  17.578 -24.376  0.00  0.00    -0.296 OA
ATOM      8  C   UNL d   1      29.600  17.266 -24.731  0.00  0.00     0.134 A 
ATOM      9 BR   UNL d   1      28.870  17.633 -24.809  0.00  0.00    -0.022 Br
ATOM     10  C   UNL d   1      29.791  16.512 -25.001  0.00  0.00     0.034 A 
ATOM     11  C   UNL d   1      30.587  16.360 -24.808  0.00  0.00     0.032 A 
ENDBRANCH   4   6
ENDBRANCH   1   3
BRANCH   1  12
ATOM     12  N   UNL d   1      32.936  18.626 -23.337  0.00  0.00    -0.212 NA
BRANCH  12  13
ATOM     13  C   UNL d   1      32.862  19.067 -22.655  0.00  0.00     0.143 C 
BRANCH  13  14
ATOM     14  C   UNL d   1      33.008  19.876 -22.677  0.00  0.00     0.215 C 
ATOM     15  O   UNL d   1      33.233  20.248 -23.373  0.00  0.00    -0.285 OA
BRANCH  14  16
ATOM     16  C   UNL d   1      32.930  20.333 -21.989  0.00  0.00     0.041 A 
ATOM     17  C   UNL d   1      33.241  20.051 -21.276  0.00  0.00     0.003 A 
ATOM     18  C   UNL d   1      33.167  20.498 -20.587  0.00  0.00     0.000 A 
ATOM     19  C   UNL d   1      32.780  21.233 -20.611  0.00  0.00     0.000 A 
ATOM     20  C   UNL d   1      32.469  21.515 -21.323  0.00  0.00     0.000 A 
ATOM     21  C   UNL d   1      32.545  21.061 -22.013  0.00  0.00     0.003 A 
ENDBRANCH  14  16
ENDBRANCH  13  14
ENDBRANCH  12  13
ENDBRANCH   1  12
TORSDOF 6
ENDMDL
MODEL 3
REMARK VINA RESULT:      -2.6      1.732      5.130
REMARK  6 active torsions:
REMARK  status: ('A' for Active; 'I' for Inactive)
REMARK       I    between atoms: C_3  and  N_1 
REMARK    1  A    between atoms: C_5  and  N_1 
REMARK    2  A    between atoms: C_2  and  C_3 
REMARK    3  A    between atoms: N_9  and  C_5 
REMARK    4  A    between atoms: C_13  and  N_9 
REMARK    5  A    between atoms: C_11  and  C_13 
REMARK    6  A    between atoms: C_15  and  C_11 
ROOT
ATOM      1  C   UNL d   1      32.973  19.695 -22.472  0.00  0.00     0.224 C 
ATOM      2  S   UNL d   1      33.241  19.352 -21.766  0.00  0.00    -0.037 SA
ENDROOT
BRANCH   1   3
ATOM      3  N   UNL d   1      32.600  19.226 -23.039  0.00  0.00    -0.177 NA
ATOM      4  C   UNL d   1      32.720  18.404 -23.037  0.00  0.00     0.304 C 
ATOM      5  O   UNL d   1      33.205  18.060 -22.477  0.00  0.00    -0.263 OA
BRANCH   4   6
ATOM      6  C   UNL d   1      32.347  17.936 -23.603  0.00  0.00     0.158 A 
ATOM      7  O   UNL d   1      31.638  18.110 -23.989  0.00  0.00    -0.296 OA
ATOM      8  C   UNL d   1      31.465  17.503 -24.505  0.00  0.00     0.134 A 
ATOM      9 BR   UNL d   1      30.811  17.452 -24.998  0.00  0.00    -0.022 Br
ATOM     10  C   UNL d   1      32.067  16.944 -24.445  0.00  0.00     0.034 A 
ATOM     11  C   UNL d   1      32.618  17.214 -23.883  0.00  0.00     0.032 A 
ENDBRANCH   4   6
ENDBRANCH   1   3
BRANCH   1  12
ATOM     12  N   UNL d   1      33.084  20.501 -22.599  0.00  0.00    -0.212 NA
BRANCH  12  13
ATOM     13  C   UNL d   1      32.918  21.029 -22.001  0.00  0.00     0.143 C 
BRANCH  13  14
ATOM     14  C   UNL d   1      32.928  21.837 -22.158  0.00  0.00     0.215 C 
ATOM     15  O   UNL d   1      33.241  22.129 -22.859  0.00  0.00    -0.285 OA
BRANCH  14  16
ATOM     16  C   UNL d   1      32.619  22.373 -21.606  0.00  0.00     0.041 A 
ATOM     17  C   UNL d   1      32.150  23.002 -21.869  0.00  0.00     0.003 A 
ATOM     18  C   UNL d   1      31.839  23.540 -21.326  0.00  0.00     0.000 A 
ATOM     19  C   UNL d   1      31.997  23.449 -20.516  0.00  0.00     0.000 A 
ATOM     20  C   UNL d   1      32.466  22.820 -20.253  0.00  0.00     0.000 A 
ATOM     21  C   UNL d   1      32.776  22.282 -20.802  0.00  0.00     0.003 A 
ENDBRANCH  14  16
ENDBRANCH  13  14
ENDBRANCH  12  13
ENDBRANCH   1  12
TORSDOF 6
ENDMDL
MODEL 4
REMARK VINA RESULT:      -2.4      1.635      2.350
REMARK  6 active torsions:
REMARK  status: ('A' for Active; 'I' for Inactive)
REMARK       I    between atoms: C_3  and  N_1 
REMARK    1  A    between atoms: C_5  and  N_1 
REMARK    2  A    between atoms: C_2  and  C_3 
REMARK    3  A    between atoms: N_9  and  C_5 
REMARK    4  A    between atoms: C_13  and  N_9 
REMARK    5  A    between atoms: C_11  and  C_13 
REMARK    6  A    between atoms: C_15  and  C_11 
ROOT
ATOM      1  C   UNL d   1      33.099  21.175 -22.099  0.00  0.00     0.224 C 
ATOM      2  S   UNL d   1      32.965  21.538 -22.832  0.00  0.00    -0.037 SA
ENDROOT
BRANCH   1   3
ATOM      3  N   UNL d   1      33.241  21.639 -21.432  0.00  0.00    -0.177 NA
ATOM      4  C   UNL d   1      32.643  22.143 -21.147  0.00  0.00     0.304 C 
ATOM      5  O   UNL d   1      31.921  22.179 -21.525  0.00  0.00    -0.263 OA
BRANCH   4   6
ATOM      6  C   UNL d   1      32.785  22.606 -20.480  0.00  0.00     0.158 A 
ATOM      7  O   UNL d   1      32.746  22.355 -19.695  0.00  0.00    -0.296 OA
ATOM      8  C   UNL d   1      32.924  22.985 -19.210  0.00  0.00     0.134 A 
ATOM      9 BR   UNL d   1      32.949  22.978 -18.389  0.00  0.00    -0.022 Br
ATOM     10  C   UNL d   1      33.077  23.636 -19.690  0.00  0.00     0.034 A 
ATOM     11  C   UNL d   1      32.990  23.400 -20.484  0.00  0.00     0.032 A 
ENDBRANCH   4   6
ENDBRANCH   1   3
BRANCH   1  12
ATOM     12  N   UNL d   1      33.090  20.354 -22.045  0.00  0.00    -0.212 NA
BRANCH  12  13
ATOM     13  C   UNL d   1      32.969  19.907 -22.718  0.00  0.00     0.143 C 
BRANCH  13  14
ATOM     14  C   UNL d   1      32.990  19.086 -22.669  0.00  0.00     0.215 C 
ATOM     15  O   UNL d   1      33.220  18.707 -21.978  0.00  0.00    -0.285 OA
BRANCH  14  16
ATOM     16  C   UNL d   1      32.775  18.624 -23.323  0.00  0.00     0.041 A 
ATOM     17  C   UNL d   1      33.172  18.729 -24.041  0.00  0.00     0.003 A 
ATOM     18  C   UNL d   1      32.965  18.273 -24.697  0.00  0.00     0.000 A 
ATOM     19  C   UNL d   1      32.358  17.710 -24.635  0.00  0.00     0.000 A 
ATOM     20  C   UNL d   1      31.961  17.605 -23.917  0.00  0.00     0.000 A 
ATOM     21  C   UNL d   1      32.173  18.065 -23.261  0.00  0.00     0.003 A 
ENDBRANCH  14  16
ENDBRANCH  13  14
ENDBRANCH  12  13
ENDBRANCH   1  12
TORSDOF 6
ENDMDL
MODEL 5
REMARK VINA RESULT:      -2.3      2.846      5.202
REMARK  6 active torsions:
REMARK  status: ('A' for Active; 'I' for Inactive)
REMARK       I    between atoms: C_3  and  N_1 
REMARK    1  A    between atoms: C_5  and  N_1 
REMARK    2  A    between atoms: C_2  and  C_3 
REMARK    3  A    between atoms: N_9  and  C_5 
REMARK    4  A    between atoms: C_13  and  N_9 
REMARK    5  A    between atoms: C_11  and  C_13 
REMARK    6  A    between atoms: C_15  and  C_11 
ROOT
ATOM      1  C   UNL d   1      31.651  16.703 -24.365  0.00  0.00     0.224 C 
ATOM      2  S   UNL d   1      32.120  16.131 -24.739  0.00  0.00    -0.037 SA
ENDROOT
BRANCH   1   3
ATOM      3  N   UNL d   1      31.005  16.469 -23.908  0.00  0.00    -0.177 NA
ATOM      4  C   UNL d   1      30.312  16.202 -24.283  0.00  0.00     0.304 C 
ATOM      5  O   UNL d   1      30.270  16.171 -25.097  0.00  0.00    -0.263 OA
BRANCH   4   6
ATOM      6  C   UNL d   1      29.667  15.968 -23.826  0.00  0.00     0.158 A 
ATOM      7  O   UNL d   1      28.871  16.072 -24.017  0.00  0.00    -0.296 OA
ATOM      8  C   UNL d   1      28.414  15.762 -23.417  0.00  0.00     0.134 A 
ATOM      9 BR   UNL d   1      27.594  15.750 -23.383  0.00  0.00    -0.022 Br
ATOM     10  C   UNL d   1      28.924  15.461 -22.845  0.00  0.00     0.034 A 
ATOM     11  C   UNL d   1      29.706  15.589 -23.100  0.00  0.00     0.032 A 
ENDBRANCH   4   6
ENDBRANCH   1   3
BRANCH   1  12
ATOM     12  N   UNL d   1      31.835  17.500 -24.453  0.00  0.00    -0.212 NA
BRANCH  12  13
ATOM     13  C   UNL d   1      32.379  17.846 -23.953  0.00  0.00     0.143 C 
BRANCH  13  14
ATOM     14  C   UNL d   1      32.556  18.645 -24.035  0.00  0.00     0.215 C 
ATOM     15  O   UNL d   1      32.511  19.017 -24.766  0.00  0.00    -0.285 OA
BRANCH  14  16
ATOM     16  C   UNL d   1      32.785  19.092 -23.375  0.00  0.00     0.041 A 
ATOM     17  C   UNL d   1      32.888  19.909 -23.453  0.00  0.00     0.003 A 
ATOM     18  C   UNL d   1      33.115  20.360 -22.801  0.00  0.00     0.000 A 
ATOM     19  C   UNL d   1      33.241  19.993 -22.067  0.00  0.00     0.000 A 
ATOM     20  C   UNL d   1      33.138  19.176 -21.989  0.00  0.00     0.000 A 
ATOM     21  C   UNL d   1      32.909  18.727 -22.647  0.00  0.00     0.003 A 
ENDBRANCH  14  16
ENDBRANCH  13  14
ENDBRANCH  12  13
ENDBRANCH   1  12
TORSDOF 6
ENDMDL
