MODEL 1
REMARK VINA RESULT:      -9.0      0.000      0.000
REMARK  2 active torsions:
REMARK  status: ('A' for Active; 'I' for Inactive)
REMARK    1  A    between atoms: N_7  and  C_3 
REMARK       I    between atoms: C_8  and  N_7 
REMARK    2  A    between atoms: C_10  and  C_8 
ROOT
ATOM      1  C   UNL d   1      53.893  32.782  54.211  0.00  0.00     0.343 A 
ATOM      2  N   UNL d   1      53.187  32.841  53.801  0.00  0.00    -0.241 N 
ATOM      3  C   UNL d   1      52.716  33.509  53.884  0.00  0.00     0.159 A 
ATOM      4  N   UNL d   1      54.134  33.395  54.709  0.00  0.00    -0.224 N 
ATOM      5  C   UNL d   1      52.957  34.123  54.382  0.00  0.00     0.099 A 
ATOM      6  C   UNL d   1      53.671  34.074  54.802  0.00  0.00     0.271 A 
ATOM      7  O   UNL d   1      54.367  32.108  54.127  0.00  0.00    -0.245 OA
ATOM      8  O   UNL d   1      53.909  34.681  55.296  0.00  0.00    -0.266 OA
ATOM      9  C   UNL d   1      52.947  32.228  53.303  0.00  0.00     0.105 C 
ATOM     10  C   UNL d   1      54.848  33.335  55.123  0.00  0.00     0.107 C 
ENDROOT
BRANCH   3  11
ATOM     11  N   UNL d   1      52.002  33.570  53.469  0.00  0.00    -0.190 NA
ATOM     12  C   UNL d   1      51.822  34.260  53.057  0.00  0.00     0.280 C 
ATOM     13  O   UNL d   1      52.353  34.893  53.056  0.00  0.00    -0.265 OA
BRANCH  12  14
ATOM     14  C   UNL d   1      51.110  34.318  52.645  0.00  0.00     0.058 A 
ATOM     15  C   UNL d   1      51.108  34.211  51.843  0.00  0.00     0.006 A 
ATOM     16  C   UNL d   1      50.408  34.267  51.432  0.00  0.00     0.012 A 
ATOM     17  C   UNL d   1      49.699  34.432  51.814  0.00  0.00     0.058 A 
ATOM     18  C   UNL d   1      49.714  34.542  52.654  0.00  0.00     0.012 A 
ATOM     19 CL   UNL d   1      48.986  34.489  51.399  0.00  0.00    -0.082 Cl
ATOM     20  C   UNL d   1      50.413  34.486  53.065  0.00  0.00     0.006 A 
ENDBRANCH  12  14
ENDBRANCH   3  11
TORSDOF 2
ENDMDL
MODEL 2
REMARK VINA RESULT:      -8.9      2.046      3.622
REMARK  2 active torsions:
REMARK  status: ('A' for Active; 'I' for Inactive)
REMARK    1  A    between atoms: N_7  and  C_3 
REMARK       I    between atoms: C_8  and  N_7 
REMARK    2  A    between atoms: C_10  and  C_8 
ROOT
ATOM      1  C   UNL d   1      52.482  34.743  53.878  0.00  0.00     0.343 A 
ATOM      2  N   UNL d   1      52.366  33.943  53.752  0.00  0.00    -0.241 N 
ATOM      3  C   UNL d   1      52.882  33.394  54.080  0.00  0.00     0.159 A 
ATOM      4  N   UNL d   1      53.120  35.001  54.336  0.00  0.00    -0.224 N 
ATOM      5  C   UNL d   1      53.519  33.651  54.538  0.00  0.00     0.099 A 
ATOM      6  C   UNL d   1      53.647  34.460  54.672  0.00  0.00     0.271 A 
ATOM      7  O   UNL d   1      51.962  35.295  53.548  0.00  0.00    -0.245 OA
ATOM      8  O   UNL d   1      54.279  34.715  55.125  0.00  0.00    -0.266 OA
ATOM      9  C   UNL d   1      51.728  33.686  53.295  0.00  0.00     0.105 C 
ATOM     10  C   UNL d   1      53.237  35.810  54.463  0.00  0.00     0.107 C 
ENDROOT
BRANCH   3  11
ATOM     11  N   UNL d   1      52.765  32.584  53.953  0.00  0.00    -0.190 NA
ATOM     12  C   UNL d   1      53.384  32.116  53.676  0.00  0.00     0.280 C 
ATOM     13  O   UNL d   1      54.122  32.455  53.523  0.00  0.00    -0.265 OA
BRANCH  12  14
ATOM     14  C   UNL d   1      53.265  31.311  53.550  0.00  0.00     0.058 A 
ATOM     15  C   UNL d   1      53.507  30.783  54.114  0.00  0.00     0.006 A 
ATOM     16  C   UNL d   1      53.393  29.986  53.995  0.00  0.00     0.012 A 
ATOM     17  C   UNL d   1      53.034  29.703  53.312  0.00  0.00     0.058 A 
ATOM     18  C   UNL d   1      52.784  30.265  52.729  0.00  0.00     0.012 A 
ATOM     19 CL   UNL d   1      52.916  28.894  53.188  0.00  0.00    -0.082 Cl
ATOM     20  C   UNL d   1      52.899  31.061  52.847  0.00  0.00     0.006 A 
ENDBRANCH  12  14
ENDBRANCH   3  11
TORSDOF 2
ENDMDL
MODEL 3
REMARK VINA RESULT:      -7.0      2.589      4.892
REMARK  2 active torsions:
REMARK  status: ('A' for Active; 'I' for Inactive)
REMARK    1  A    between atoms: N_7  and  C_3 
REMARK       I    between atoms: C_8  and  N_7 
REMARK    2  A    between atoms: C_10  and  C_8 
ROOT
ATOM      1  C   UNL d   1      48.297  35.582  52.549  0.00  0.00     0.343 A 
ATOM      2  N   UNL d   1      48.971  35.302  52.922  0.00  0.00    -0.241 N 
ATOM      3  C   UNL d   1      49.445  34.742  52.551  0.00  0.00     0.159 A 
ATOM      4  N   UNL d   1      48.094  35.302  51.799  0.00  0.00    -0.224 N 
ATOM      5  C   UNL d   1      49.242  34.462  51.801  0.00  0.00     0.099 A 
ATOM      6  C   UNL d   1      48.562  34.739  51.414  0.00  0.00     0.271 A 
ATOM      7  O   UNL d   1      47.820  36.145  52.923  0.00  0.00    -0.245 OA
ATOM      8  O   UNL d   1      48.360  34.462  50.672  0.00  0.00    -0.266 OA
ATOM      9  C   UNL d   1      49.174  35.581  53.672  0.00  0.00     0.105 C 
ATOM     10  C   UNL d   1      47.414  35.585  51.423  0.00  0.00     0.107 C 
ENDROOT
BRANCH   3  11
ATOM     11  N   UNL d   1      50.127  34.458  52.927  0.00  0.00    -0.190 NA
ATOM     12  C   UNL d   1      50.809  34.313  52.489  0.00  0.00     0.280 C 
ATOM     13  O   UNL d   1      50.815  34.451  51.674  0.00  0.00    -0.265 OA
BRANCH  12  14
ATOM     14  C   UNL d   1      51.486  34.031  52.865  0.00  0.00     0.058 A 
ATOM     15  C   UNL d   1      51.495  33.271  53.143  0.00  0.00     0.006 A 
ATOM     16  C   UNL d   1      52.160  32.987  53.516  0.00  0.00     0.012 A 
ATOM     17  C   UNL d   1      52.828  33.457  53.616  0.00  0.00     0.058 A 
ATOM     18  C   UNL d   1      52.806  34.250  53.321  0.00  0.00     0.012 A 
ATOM     19 CL   UNL d   1      53.505  33.171  53.994  0.00  0.00    -0.082 Cl
ATOM     20  C   UNL d   1      52.142  34.535  52.949  0.00  0.00     0.006 A 
ENDBRANCH  12  14
ENDBRANCH   3  11
TORSDOF 2
ENDMDL
MODEL 4
REMARK VINA RESULT:      -6.7      2.335      3.416
REMARK  2 active torsions:
REMARK  status: ('A' for Active; 'I' for Inactive)
REMARK    1  A    between atoms: N_7  and  C_3 
REMARK       I    between atoms: C_8  and  N_7 
REMARK    2  A    between atoms: C_10  and  C_8 
ROOT
ATOM      1  C   UNL d   1      53.328  30.266  54.075  0.00  0.00     0.343 A 
ATOM      2  N   UNL d   1      53.424  31.058  54.259  0.00  0.00    -0.241 N 
ATOM      3  C   UNL d   1      53.301  31.633  53.685  0.00  0.00     0.159 A 
ATOM      4  N   UNL d   1      53.107  30.043  53.311  0.00  0.00    -0.224 N 
ATOM      5  C   UNL d   1      53.080  31.410  52.920  0.00  0.00     0.099 A 
ATOM      6  C   UNL d   1      52.980  30.610  52.723  0.00  0.00     0.271 A 
ATOM      7  O   UNL d   1      53.453  29.688  54.654  0.00  0.00    -0.245 OA
ATOM      8  O   UNL d   1      52.761  30.390  51.966  0.00  0.00    -0.266 OA
ATOM      9  C   UNL d   1      53.645  31.280  55.023  0.00  0.00     0.105 C 
ATOM     10  C   UNL d   1      53.011  29.243  53.125  0.00  0.00     0.107 C 
ENDROOT
BRANCH   3  11
ATOM     11  N   UNL d   1      53.397  32.434  53.870  0.00  0.00    -0.190 NA
ATOM     12  C   UNL d   1      52.795  32.971  53.703  0.00  0.00     0.280 C 
ATOM     13  O   UNL d   1      52.094  32.711  53.351  0.00  0.00    -0.265 OA
BRANCH  12  14
ATOM     14  C   UNL d   1      52.893  33.768  53.888  0.00  0.00     0.058 A 
ATOM     15  C   UNL d   1      53.108  33.976  54.640  0.00  0.00     0.006 A 
ATOM     16  C   UNL d   1      53.206  34.761  54.828  0.00  0.00     0.012 A 
ATOM     17  C   UNL d   1      53.092  35.353  54.269  0.00  0.00     0.058 A 
ATOM     18  C   UNL d   1      52.867  35.123  53.485  0.00  0.00     0.012 A 
ATOM     19 CL   UNL d   1      53.191  36.152  54.457  0.00  0.00    -0.082 Cl
ATOM     20  C   UNL d   1      52.769  34.339  53.296  0.00  0.00     0.006 A 
ENDBRANCH  12  14
ENDBRANCH   3  11
TORSDOF 2
ENDMDL
MODEL 5
REMARK VINA RESULT:      -6.4      2.128      4.349
REMARK  2 active torsions:
REMARK  status: ('A' for Active; 'I' for Inactive)
REMARK    1  A    between atoms: N_7  and  C_3 
REMARK       I    between atoms: C_8  and  N_7 
REMARK    2  A    between atoms: C_10  and  C_8 
ROOT
ATOM      1  C   UNL d   1      49.991  34.500  52.661  0.00  0.00     0.343 A 
ATOM      2  N   UNL d   1      50.609  34.437  53.194  0.00  0.00    -0.241 N 
ATOM      3  C   UNL d   1      51.371  34.284  52.926  0.00  0.00     0.159 A 
ATOM      4  N   UNL d   1      50.132  34.409  51.852  0.00  0.00    -0.224 N 
ATOM      5  C   UNL d   1      51.512  34.193  52.118  0.00  0.00     0.099 A 
ATOM      6  C   UNL d   1      50.893  34.255  51.568  0.00  0.00     0.271 A 
ATOM      7  O   UNL d   1      49.224  34.654  52.931  0.00  0.00    -0.245 OA
ATOM      8  O   UNL d   1      51.033  34.166  50.767  0.00  0.00    -0.266 OA
ATOM      9  C   UNL d   1      50.467  34.527  54.002  0.00  0.00     0.105 C 
ATOM     10  C   UNL d   1      49.507  34.473  51.314  0.00  0.00     0.107 C 
ENDROOT
BRANCH   3  11
ATOM     11  N   UNL d   1      51.997  34.219  53.465  0.00  0.00    -0.190 NA
ATOM     12  C   UNL d   1      52.535  33.599  53.399  0.00  0.00     0.280 C 
ATOM     13  O   UNL d   1      52.451  33.040  52.797  0.00  0.00    -0.265 OA
BRANCH  12  14
ATOM     14  C   UNL d   1      53.157  33.537  53.936  0.00  0.00     0.058 A 
ATOM     15  C   UNL d   1      53.549  34.207  54.166  0.00  0.00     0.006 A 
ATOM     16  C   UNL d   1      54.164  34.152  54.695  0.00  0.00     0.012 A 
ATOM     17  C   UNL d   1      54.398  33.427  55.005  0.00  0.00     0.058 A 
ATOM     18  C   UNL d   1      53.981  32.733  54.757  0.00  0.00     0.012 A 
ATOM     19 CL   UNL d   1      55.023  33.368  55.543  0.00  0.00    -0.082 Cl
ATOM     20  C   UNL d   1      53.367  32.787  54.228  0.00  0.00     0.006 A 
ENDBRANCH  12  14
ENDBRANCH   3  11
TORSDOF 2
ENDMDL
MODEL 6
REMARK VINA RESULT:      -6.0      1.623      2.271
REMARK  2 active torsions:
REMARK  status: ('A' for Active; 'I' for Inactive)
REMARK    1  A    between atoms: N_7  and  C_3 
REMARK       I    between atoms: C_8  and  N_7 
REMARK    2  A    between atoms: C_10  and  C_8 
ROOT
ATOM      1  C   UNL d   1      52.951  30.316  53.398  0.00  0.00     0.343 A 
ATOM      2  N   UNL d   1      52.350  30.838  53.207  0.00  0.00    -0.241 N 
ATOM      3  C   UNL d   1      52.516  31.636  53.096  0.00  0.00     0.159 A 
ATOM      4  N   UNL d   1      53.726  30.591  53.481  0.00  0.00    -0.224 N 
ATOM      5  C   UNL d   1      53.290  31.910  53.178  0.00  0.00     0.099 A 
ATOM      6  C   UNL d   1      53.907  31.390  53.372  0.00  0.00     0.271 A 
ATOM      7  O   UNL d   1      52.783  29.514  53.510  0.00  0.00    -0.245 OA
ATOM      8  O   UNL d   1      54.674  31.662  53.454  0.00  0.00    -0.266 OA
ATOM      9  C   UNL d   1      51.576  30.564  53.124  0.00  0.00     0.105 C 
ATOM     10  C   UNL d   1      54.332  30.063  53.675  0.00  0.00     0.107 C 
ENDROOT
BRANCH   3  11
ATOM     11  N   UNL d   1      51.909  32.165  52.902  0.00  0.00    -0.190 NA
ATOM     12  C   UNL d   1      51.962  32.955  53.129  0.00  0.00     0.280 C 
ATOM     13  O   UNL d   1      52.621  33.221  53.550  0.00  0.00    -0.265 OA
BRANCH  12  14
ATOM     14  C   UNL d   1      51.357  33.480  52.935  0.00  0.00     0.058 A 
ATOM     15  C   UNL d   1      50.737  33.573  53.445  0.00  0.00     0.006 A 
ATOM     16  C   UNL d   1      50.136  34.090  53.259  0.00  0.00     0.012 A 
ATOM     17  C   UNL d   1      50.146  34.522  52.559  0.00  0.00     0.058 A 
ATOM     18  C   UNL d   1      50.800  34.415  52.032  0.00  0.00     0.012 A 
ATOM     19 CL   UNL d   1      49.537  35.047  52.367  0.00  0.00    -0.082 Cl
ATOM     20  C   UNL d   1      51.400  33.899  52.218  0.00  0.00     0.006 A 
ENDBRANCH  12  14
ENDBRANCH   3  11
TORSDOF 2
ENDMDL
