MODEL 1
REMARK VINA RESULT:      -1.9      0.000      0.000
REMARK  10 active torsions:
REMARK  status: ('A' for Active; 'I' for Inactive)
REMARK    1  A    between atoms: C_19  and  N_1 
REMARK    2  A    between atoms: C_7  and  C_2 
REMARK    3  A    between atoms: S_3  and  N_8 
REMARK    4  A    between atoms: C_13  and  S_3 
REMARK    5  A    between atoms: S_9  and  C_5 
REMARK    6  A    between atoms: N_8  and  C_22 
REMARK    7  A    between atoms: C_17  and  S_9 
REMARK    8  A    between atoms: C_14  and  C_17 
REMARK    9  A    between atoms: C_15  and  C_14 
REMARK   10  A    between atoms: C_23  and  C_19 
ROOT
ATOM      1  C   UNL d   1      32.878  18.122 -22.866  0.00  0.00     0.202 C 
ATOM      2  O   UNL d   1      33.065  17.837 -22.115  0.00  0.00    -0.286 OA
ENDROOT
BRANCH   1   3
ATOM      3  C   UNL d   1      33.241  18.805 -23.151  0.00  0.00     0.080 C 
BRANCH   3   4
ATOM      4  S   UNL d   1      33.229  19.501 -22.698  0.00  0.00    -0.044 SA
BRANCH   4   5
ATOM      5  C   UNL d   1      33.225  20.236 -23.071  0.00  0.00     0.201 A 
ATOM      6  N   UNL d   1      33.224  20.966 -22.697  0.00  0.00    -0.267 N 
ATOM      7  C   UNL d   1      33.219  21.554 -23.277  0.00  0.00     0.177 A 
ATOM      8  N   UNL d   1      33.217  21.180 -24.009  0.00  0.00    -0.127 NA
ATOM      9  N   UNL d   1      33.221  20.360 -23.879  0.00  0.00    -0.121 NA
BRANCH   6  10
ATOM     10  C   UNL d   1      33.227  21.059 -21.878  0.00  0.00     0.084 C 
BRANCH  10  11
ATOM     11  C   UNL d   1      32.624  20.726 -21.421  0.00  0.00     0.019 C 
ATOM     12  C   UNL d   1      32.562  20.915 -20.616  0.00  0.00     0.002 C 
ENDBRANCH  10  11
ENDBRANCH   6  10
BRANCH   7  13
ATOM     13  C   UNL d   1      33.216  22.369 -23.177  0.00  0.00     0.066 A 
ATOM     14  S   UNL d   1      33.224  22.935 -23.776  0.00  0.00    -0.083 SA
ATOM     15  C   UNL d   1      33.218  23.680 -23.418  0.00  0.00     0.035 A 
ATOM     16  C   UNL d   1      33.207  23.568 -22.600  0.00  0.00     0.008 A 
ATOM     17  C   UNL d   1      33.206  22.756 -22.453  0.00  0.00     0.010 A 
ENDBRANCH   7  13
ENDBRANCH   4   5
ENDBRANCH   3   4
ENDBRANCH   1   3
BRANCH   1  18
ATOM     18  C   UNL d   1      32.324  17.723 -23.337  0.00  0.00     0.040 A 
ATOM     19  C   UNL d   1      32.553  17.055 -23.768  0.00  0.00     0.005 A 
ATOM     20  C   UNL d   1      31.998  16.663 -24.235  0.00  0.00     0.020 A 
ATOM     21  C   UNL d   1      31.225  16.929 -24.274  0.00  0.00     0.094 A 
ATOM     22  C   UNL d   1      30.999  17.594 -23.844  0.00  0.00     0.020 A 
ATOM     23  C   UNL d   1      31.547  17.991 -23.376  0.00  0.00     0.005 A 
BRANCH  21  24
ATOM     24  N   UNL d   1      30.671  16.530 -24.746  0.00  0.00    -0.158 NA
BRANCH  24  25
ATOM     25  S   UNL d   1      29.914  16.385 -24.462  0.00  0.00     0.285 S 
ATOM     26  O   UNL d   1      29.646  17.094 -24.804  0.00  0.00    -0.198 OA
ATOM     27  O   UNL d   1      30.178  15.677 -24.120  0.00  0.00    -0.198 OA
BRANCH  25  28
ATOM     28  C   UNL d   1      29.149  16.231 -24.171  0.00  0.00     0.105 A 
ATOM     29  C   UNL d   1      29.015  15.601 -23.655  0.00  0.00     0.013 A 
ATOM     30  C   UNL d   1      28.262  15.453 -23.370  0.00  0.00     0.001 A 
ATOM     31  C   UNL d   1      27.623  15.938 -23.600  0.00  0.00     0.000 A 
ATOM     32  C   UNL d   1      27.757  16.567 -24.116  0.00  0.00     0.001 A 
ATOM     33  C   UNL d   1      28.513  16.715 -24.401  0.00  0.00     0.013 A 
ENDBRANCH  25  28
ENDBRANCH  24  25
ENDBRANCH  21  24
ENDBRANCH   1  18
TORSDOF 10
ENDMDL
MODEL 2
REMARK VINA RESULT:       0.1      1.503      6.072
REMARK  10 active torsions:
REMARK  status: ('A' for Active; 'I' for Inactive)
REMARK    1  A    between atoms: C_19  and  N_1 
REMARK    2  A    between atoms: C_7  and  C_2 
REMARK    3  A    between atoms: S_3  and  N_8 
REMARK    4  A    between atoms: C_13  and  S_3 
REMARK    5  A    between atoms: S_9  and  C_5 
REMARK    6  A    between atoms: N_8  and  C_22 
REMARK    7  A    between atoms: C_17  and  S_9 
REMARK    8  A    between atoms: C_14  and  C_17 
REMARK    9  A    between atoms: C_15  and  C_14 
REMARK   10  A    between atoms: C_23  and  C_19 
ROOT
ATOM      1  C   UNL d   1      32.312  18.037 -24.585  0.00  0.00     0.202 C 
ATOM      2  O   UNL d   1      32.877  17.458 -24.743  0.00  0.00    -0.286 OA
ENDROOT
BRANCH   1   3
ATOM      3  C   UNL d   1      31.515  17.888 -24.734  0.00  0.00     0.080 C 
BRANCH   3   4
ATOM      4  S   UNL d   1      31.175  17.169 -24.496  0.00  0.00    -0.044 SA
BRANCH   4   5
ATOM      5  C   UNL d   1      30.356  17.097 -24.441  0.00  0.00     0.201 A 
ATOM      6  N   UNL d   1      29.950  16.497 -24.058  0.00  0.00    -0.267 N 
ATOM      7  C   UNL d   1      29.140  16.639 -24.139  0.00  0.00     0.177 A 
ATOM      8  N   UNL d   1      29.053  17.331 -24.575  0.00  0.00    -0.127 NA
ATOM      9  N   UNL d   1      29.810  17.614 -24.762  0.00  0.00    -0.121 NA
BRANCH   6  10
ATOM     10  C   UNL d   1      30.319  15.872 -23.667  0.00  0.00     0.084 C 
BRANCH  10  11
ATOM     11  C   UNL d   1      31.139  15.776 -23.724  0.00  0.00     0.019 C 
ATOM     12  C   UNL d   1      31.563  15.454 -23.087  0.00  0.00     0.002 C 
ENDBRANCH  10  11
ENDBRANCH   6  10
BRANCH   7  13
ATOM     13  C   UNL d   1      28.512  16.195 -23.852  0.00  0.00     0.066 A 
ATOM     14  S   UNL d   1      28.358  16.022 -23.061  0.00  0.00    -0.083 SA
ATOM     15  C   UNL d   1      27.671  15.561 -23.034  0.00  0.00     0.035 A 
ATOM     16  C   UNL d   1      27.408  15.453 -23.809  0.00  0.00     0.008 A 
ATOM     17  C   UNL d   1      27.929  15.846 -24.313  0.00  0.00     0.010 A 
ENDBRANCH   7  13
ENDBRANCH   4   5
ENDBRANCH   3   4
ENDBRANCH   1   3
BRANCH   1  18
ATOM     18  C   UNL d   1      32.542  18.771 -24.275  0.00  0.00     0.040 A 
ATOM     19  C   UNL d   1      32.922  18.810 -23.542  0.00  0.00     0.005 A 
ATOM     20  C   UNL d   1      33.149  19.544 -23.240  0.00  0.00     0.020 A 
ATOM     21  C   UNL d   1      33.001  20.230 -23.660  0.00  0.00     0.094 A 
ATOM     22  C   UNL d   1      32.623  20.189 -24.391  0.00  0.00     0.020 A 
ATOM     23  C   UNL d   1      32.394  19.462 -24.699  0.00  0.00     0.005 A 
BRANCH  21  24
ATOM     24  N   UNL d   1      33.232  20.965 -23.351  0.00  0.00    -0.158 NA
BRANCH  24  25
ATOM     25  S   UNL d   1      32.969  21.202 -22.610  0.00  0.00     0.285 S 
ATOM     26  O   UNL d   1      33.088  20.434 -22.317  0.00  0.00    -0.198 OA
ATOM     27  O   UNL d   1      32.850  21.970 -22.900  0.00  0.00    -0.198 OA
BRANCH  25  28
ATOM     28  C   UNL d   1      32.702  21.451 -21.862  0.00  0.00     0.105 A 
ATOM     29  C   UNL d   1      32.217  20.962 -21.406  0.00  0.00     0.013 A 
ATOM     30  C   UNL d   1      31.956  21.209 -20.670  0.00  0.00     0.001 A 
ATOM     31  C   UNL d   1      32.176  21.958 -20.376  0.00  0.00     0.000 A 
ATOM     32  C   UNL d   1      32.660  22.446 -20.832  0.00  0.00     0.001 A 
ATOM     33  C   UNL d   1      32.922  22.197 -21.570  0.00  0.00     0.013 A 
ENDBRANCH  25  28
ENDBRANCH  24  25
ENDBRANCH  21  24
ENDBRANCH   1  18
TORSDOF 10
ENDMDL
