MODEL 1
REMARK VINA RESULT:      -3.2      0.000      0.000
REMARK  4 active torsions:
REMARK  status: ('A' for Active; 'I' for Inactive)
REMARK    1  A    between atoms: N_4  and  C_1 
REMARK    2  A    between atoms: C_11  and  C_3 
REMARK       I    between atoms: C_6  and  N_4 
REMARK    3  A    between atoms: C_8  and  C_6 
REMARK    4  A    between atoms: C_9  and  C_8 
ROOT
ATOM      1  C   UNL d   1      32.954  18.716 -22.889  0.00  0.00     0.197 A 
ATOM      2  N   UNL d   1      32.350  18.163 -22.908  0.00  0.00    -0.221 NA
ATOM      3  C   UNL d   1      32.253  17.917 -23.692  0.00  0.00     0.092 A 
ATOM      4  S   UNL d   1      33.236  18.819 -23.655  0.00  0.00    -0.046 SA
ATOM      5  C   UNL d   1      32.806  18.328 -24.157  0.00  0.00     0.058 A 
ENDROOT
BRANCH   1   6
ATOM      6  N   UNL d   1      33.239  19.110 -22.219  0.00  0.00    -0.183 NA
ATOM      7  C   UNL d   1      32.941  19.858 -22.030  0.00  0.00     0.281 C 
ATOM      8  O   UNL d   1      32.369  20.202 -22.508  0.00  0.00    -0.265 OA
BRANCH   7   9
ATOM      9  C   UNL d   1      33.219  20.257 -21.365  0.00  0.00     0.069 C 
BRANCH   9  10
ATOM     10  C   UNL d   1      32.901  21.001 -21.217  0.00  0.00     0.034 A 
ATOM     11  S   UNL d   1      33.240  21.725 -21.412  0.00  0.00    -0.086 SA
ATOM     12  C   UNL d   1      32.732  22.327 -21.161  0.00  0.00     0.035 A 
ATOM     13  C   UNL d   1      32.074  21.968 -20.809  0.00  0.00     0.007 A 
ATOM     14  C   UNL d   1      32.178  21.149 -20.844  0.00  0.00     0.007 A 
ENDBRANCH   9  10
ENDBRANCH   7   9
ENDBRANCH   1   6
BRANCH   3  15
ATOM     15  C   UNL d   1      31.709  17.366 -23.970  0.00  0.00     0.037 A 
ATOM     16  C   UNL d   1      31.804  16.576 -23.761  0.00  0.00     0.100 A 
ATOM     17  N   UNL d   1      31.265  16.020 -24.035  0.00  0.00    -0.242 NA
ATOM     18  C   UNL d   1      30.634  16.251 -24.516  0.00  0.00     0.099 A 
ATOM     19  C   UNL d   1      30.552  17.039 -24.716  0.00  0.00     0.021 A 
ATOM     20  C   UNL d   1      31.090  17.607 -24.445  0.00  0.00     0.005 A 
ENDBRANCH   3  15
TORSDOF 4
ENDMDL
MODEL 2
REMARK VINA RESULT:      -3.0      1.692      2.868
REMARK  4 active torsions:
REMARK  status: ('A' for Active; 'I' for Inactive)
REMARK    1  A    between atoms: N_4  and  C_1 
REMARK    2  A    between atoms: C_11  and  C_3 
REMARK       I    between atoms: C_6  and  N_4 
REMARK    3  A    between atoms: C_8  and  C_6 
REMARK    4  A    between atoms: C_9  and  C_8 
ROOT
ATOM      1  C   UNL d   1      31.690  16.598 -24.064  0.00  0.00     0.197 A 
ATOM      2  N   UNL d   1      31.032  16.536 -23.580  0.00  0.00    -0.221 NA
ATOM      3  C   UNL d   1      30.427  16.174 -24.014  0.00  0.00     0.092 A 
ATOM      4  S   UNL d   1      31.503  16.278 -24.798  0.00  0.00    -0.046 SA
ATOM      5  C   UNL d   1      30.723  16.014 -24.775  0.00  0.00     0.058 A 
ENDROOT
BRANCH   1   6
ATOM      6  N   UNL d   1      32.422  16.925 -23.858  0.00  0.00    -0.183 NA
ATOM      7  C   UNL d   1      32.509  17.747 -23.842  0.00  0.00     0.281 C 
ATOM      8  O   UNL d   1      31.871  18.229 -24.029  0.00  0.00    -0.265 OA
BRANCH   7   9
ATOM      9  C   UNL d   1      33.235  18.081 -23.638  0.00  0.00     0.069 C 
BRANCH   9  10
ATOM     10  C   UNL d   1      33.214  18.776 -23.199  0.00  0.00     0.034 A 
ATOM     11  S   UNL d   1      33.241  19.543 -23.496  0.00  0.00    -0.086 SA
ATOM     12  C   UNL d   1      33.206  20.070 -22.859  0.00  0.00     0.035 A 
ATOM     13  C   UNL d   1      33.157  19.621 -22.165  0.00  0.00     0.007 A 
ATOM     14  C   UNL d   1      33.162  18.822 -22.374  0.00  0.00     0.007 A 
ENDBRANCH   9  10
ENDBRANCH   7   9
ENDBRANCH   1   6
BRANCH   3  15
ATOM     15  C   UNL d   1      29.669  16.000 -23.750  0.00  0.00     0.037 A 
ATOM     16  C   UNL d   1      29.027  16.216 -24.218  0.00  0.00     0.100 A 
ATOM     17  N   UNL d   1      28.266  16.046 -23.960  0.00  0.00    -0.242 NA
ATOM     18  C   UNL d   1      28.145  15.662 -23.238  0.00  0.00     0.099 A 
ATOM     19  C   UNL d   1      28.791  15.453 -22.783  0.00  0.00     0.021 A 
ATOM     20  C   UNL d   1      29.563  15.620 -23.035  0.00  0.00     0.005 A 
ENDBRANCH   3  15
TORSDOF 4
ENDMDL
MODEL 3
REMARK VINA RESULT:      -2.8      1.351      4.826
REMARK  4 active torsions:
REMARK  status: ('A' for Active; 'I' for Inactive)
REMARK    1  A    between atoms: N_4  and  C_1 
REMARK    2  A    between atoms: C_11  and  C_3 
REMARK       I    between atoms: C_6  and  N_4 
REMARK    3  A    between atoms: C_8  and  C_6 
REMARK    4  A    between atoms: C_9  and  C_8 
ROOT
ATOM      1  C   UNL d   1      33.140  19.725 -22.487  0.00  0.00     0.197 A 
ATOM      2  N   UNL d   1      32.927  20.515 -22.532  0.00  0.00    -0.221 NA
ATOM      3  C   UNL d   1      32.892  20.815 -21.762  0.00  0.00     0.092 A 
ATOM      4  S   UNL d   1      33.239  19.528 -21.694  0.00  0.00    -0.046 SA
ATOM      5  C   UNL d   1      33.088  20.198 -21.240  0.00  0.00     0.058 A 
ENDROOT
BRANCH   1   6
ATOM      6  N   UNL d   1      33.240  19.206 -23.124  0.00  0.00    -0.183 NA
ATOM      7  C   UNL d   1      32.704  18.586 -23.232  0.00  0.00     0.281 C 
ATOM      8  O   UNL d   1      32.080  18.491 -22.707  0.00  0.00    -0.265 OA
BRANCH   7   9
ATOM      9  C   UNL d   1      32.797  18.065 -23.864  0.00  0.00     0.069 C 
BRANCH   9  10
ATOM     10  C   UNL d   1      32.117  17.700 -24.148  0.00  0.00     0.034 A 
ATOM     11  S   UNL d   1      31.831  16.960 -23.927  0.00  0.00    -0.086 SA
ATOM     12  C   UNL d   1      31.136  16.813 -24.349  0.00  0.00     0.035 A 
ATOM     13  C   UNL d   1      30.994  17.470 -24.833  0.00  0.00     0.007 A 
ATOM     14  C   UNL d   1      31.600  18.017 -24.709  0.00  0.00     0.007 A 
ENDBRANCH   9  10
ENDBRANCH   7   9
ENDBRANCH   1   6
BRANCH   3  15
ATOM     15  C   UNL d   1      32.701  21.584 -21.542  0.00  0.00     0.037 A 
ATOM     16  C   UNL d   1      32.261  21.702 -20.857  0.00  0.00     0.100 A 
ATOM     17  N   UNL d   1      32.065  22.468 -20.632  0.00  0.00    -0.242 NA
ATOM     18  C   UNL d   1      32.308  23.113 -21.088  0.00  0.00     0.099 A 
ATOM     19  C   UNL d   1      32.744  22.981 -21.767  0.00  0.00     0.021 A 
ATOM     20  C   UNL d   1      32.946  22.213 -22.002  0.00  0.00     0.005 A 
ENDBRANCH   3  15
TORSDOF 4
ENDMDL
MODEL 4
REMARK VINA RESULT:      -1.2      3.128      4.929
REMARK  4 active torsions:
REMARK  status: ('A' for Active; 'I' for Inactive)
REMARK    1  A    between atoms: N_4  and  C_1 
REMARK    2  A    between atoms: C_11  and  C_3 
REMARK       I    between atoms: C_6  and  N_4 
REMARK    3  A    between atoms: C_8  and  C_6 
REMARK    4  A    between atoms: C_9  and  C_8 
ROOT
ATOM      1  C   UNL d   1      32.818  23.148 -20.186  0.00  0.00     0.197 A 
ATOM      2  N   UNL d   1      33.019  22.361 -20.291  0.00  0.00    -0.221 NA
ATOM      3  C   UNL d   1      32.789  22.137 -21.054  0.00  0.00     0.092 A 
ATOM      4  S   UNL d   1      32.464  23.420 -20.878  0.00  0.00    -0.046 SA
ATOM      5  C   UNL d   1      32.443  22.799 -21.419  0.00  0.00     0.058 A 
ENDROOT
BRANCH   1   6
ATOM      6  N   UNL d   1      32.945  23.601 -19.505  0.00  0.00    -0.183 NA
ATOM      7  C   UNL d   1      33.100  23.221 -18.788  0.00  0.00     0.281 C 
ATOM      8  O   UNL d   1      33.126  22.401 -18.758  0.00  0.00    -0.265 OA
BRANCH   7   9
ATOM      9  C   UNL d   1      33.229  23.665 -18.105  0.00  0.00     0.069 C 
BRANCH   9  10
ATOM     10  C   UNL d   1      32.920  23.366 -17.404  0.00  0.00     0.034 A 
ATOM     11  S   UNL d   1      33.241  22.760 -16.948  0.00  0.00    -0.086 SA
ATOM     12  C   UNL d   1      32.751  22.639 -16.293  0.00  0.00     0.035 A 
ATOM     13  C   UNL d   1      32.123  23.177 -16.348  0.00  0.00     0.007 A 
ATOM     14  C   UNL d   1      32.228  23.626 -17.033  0.00  0.00     0.007 A 
ENDBRANCH   9  10
ENDBRANCH   7   9
ENDBRANCH   1   6
BRANCH   3  15
ATOM     15  C   UNL d   1      32.882  21.396 -21.398  0.00  0.00     0.037 A 
ATOM     16  C   UNL d   1      33.085  21.351 -22.194  0.00  0.00     0.100 A 
ATOM     17  N   UNL d   1      33.180  20.614 -22.544  0.00  0.00    -0.242 NA
ATOM     18  C   UNL d   1      33.073  19.924 -22.101  0.00  0.00     0.099 A 
ATOM     19  C   UNL d   1      32.871  19.983 -21.311  0.00  0.00     0.021 A 
ATOM     20  C   UNL d   1      32.774  20.722 -20.949  0.00  0.00     0.005 A 
ENDBRANCH   3  15
TORSDOF 4
ENDMDL
