MODEL 1
REMARK VINA RESULT:      -2.4      0.000      0.000
REMARK  5 active torsions:
REMARK  status: ('A' for Active; 'I' for Inactive)
REMARK    1  A    between atoms: S_3  and  N_1 
REMARK    2  A    between atoms: C_7  and  C_4 
REMARK    3  A    between atoms: C_8  and  C_5 
REMARK    4  A    between atoms: O_21  and  C_13 
REMARK    5  A    between atoms: O_22  and  C_15 
ROOT
ATOM      1  N   UNL d   1      31.337  16.094 -24.004  0.00  0.00    -0.155 N 
ATOM      2  N   UNL d   1      30.650  15.678 -23.879  0.00  0.00    -0.155 NA
ATOM      3  C   UNL d   1      30.023  16.211 -23.867  0.00  0.00     0.110 A 
ATOM      4  C   UNL d   1      31.135  16.891 -24.071  0.00  0.00     0.096 A 
ATOM      5  C   UNL d   1      30.327  16.956 -23.986  0.00  0.00     0.041 A 
ENDROOT
BRANCH   4   6
ATOM      6  C   UNL d   1      31.660  17.510 -24.201  0.00  0.00     0.021 A 
ATOM      7  C   UNL d   1      32.055  17.855 -23.565  0.00  0.00     0.028 A 
ATOM      8  C   UNL d   1      32.583  18.479 -23.695  0.00  0.00     0.116 A 
ATOM      9  C   UNL d   1      32.713  18.753 -24.460  0.00  0.00     0.116 A 
ATOM     10  C   UNL d   1      32.317  18.408 -25.097  0.00  0.00     0.026 A 
ATOM     11  C   UNL d   1      31.793  17.789 -24.967  0.00  0.00     0.004 A 
BRANCH   8  12
ATOM     12  O   UNL d   1      32.978  18.824 -23.059  0.00  0.00    -0.326 OA
ATOM     13  C   UNL d   1      32.825  18.569 -22.292  0.00  0.00     0.181 C 
ENDBRANCH   8  12
BRANCH   9  14
ATOM     14  O   UNL d   1      33.241  19.377 -24.591  0.00  0.00    -0.326 OA
ATOM     15  C   UNL d   1      32.960  20.152 -24.654  0.00  0.00     0.181 C 
ENDBRANCH   9  14
ENDBRANCH   4   6
BRANCH   1  16
ATOM     16  S   UNL d   1      32.088  15.780 -24.055  0.00  0.00     0.266 S 
ATOM     17  O   UNL d   1      32.860  15.453 -24.123  0.00  0.00    -0.203 OA
ATOM     18  O   UNL d   1      32.196  15.898 -23.249  0.00  0.00    -0.203 OA
ATOM     19  C   UNL d   1      31.985  15.661 -24.854  0.00  0.00     0.165 C 
ENDBRANCH   1  16
BRANCH   3  20
ATOM     20  C   UNL d   1      29.224  16.012 -23.753  0.00  0.00     0.049 A 
ATOM     21  S   UNL d   1      28.706  15.762 -24.341  0.00  0.00    -0.085 SA
ATOM     22  C   UNL d   1      27.951  15.617 -24.000  0.00  0.00     0.035 A 
ATOM     23  C   UNL d   1      28.024  15.785 -23.194  0.00  0.00     0.007 A 
ATOM     24  C   UNL d   1      28.812  16.028 -23.052  0.00  0.00     0.009 A 
ENDBRANCH   3  20
TORSDOF 5
ENDMDL
MODEL 2
REMARK VINA RESULT:      -0.8      5.082      7.096
REMARK  5 active torsions:
REMARK  status: ('A' for Active; 'I' for Inactive)
REMARK    1  A    between atoms: S_3  and  N_1 
REMARK    2  A    between atoms: C_7  and  C_4 
REMARK    3  A    between atoms: C_8  and  C_5 
REMARK    4  A    between atoms: O_21  and  C_13 
REMARK    5  A    between atoms: O_22  and  C_15 
ROOT
ATOM      1  N   UNL d   1      32.589  23.020 -20.815  0.00  0.00    -0.155 N 
ATOM      2  N   UNL d   1      32.583  23.390 -20.090  0.00  0.00    -0.155 NA
ATOM      3  C   UNL d   1      32.850  22.855 -19.524  0.00  0.00     0.110 A 
ATOM      4  C   UNL d   1      32.862  22.251 -20.698  0.00  0.00     0.096 A 
ATOM      5  C   UNL d   1      33.021  22.155 -19.903  0.00  0.00     0.041 A 
ENDROOT
BRANCH   4   6
ATOM      6  C   UNL d   1      32.956  21.680 -21.282  0.00  0.00     0.021 A 
ATOM      7  C   UNL d   1      32.864  20.882 -21.096  0.00  0.00     0.028 A 
ATOM      8  C   UNL d   1      32.959  20.307 -21.684  0.00  0.00     0.116 A 
ATOM      9  C   UNL d   1      33.146  20.534 -22.453  0.00  0.00     0.116 A 
ATOM     10  C   UNL d   1      33.238  21.332 -22.639  0.00  0.00     0.026 A 
ATOM     11  C   UNL d   1      33.143  21.903 -22.055  0.00  0.00     0.004 A 
BRANCH   8  12
ATOM     12  O   UNL d   1      32.867  19.509 -21.498  0.00  0.00    -0.326 OA
ATOM     13  C   UNL d   1      33.208  19.203 -20.815  0.00  0.00     0.181 C 
ENDBRANCH   8  12
BRANCH   9  14
ATOM     14  O   UNL d   1      33.241  19.959 -23.041  0.00  0.00    -0.326 OA
ATOM     15  C   UNL d   1      33.208  20.173 -23.839  0.00  0.00     0.181 C 
ENDBRANCH   9  14
ENDBRANCH   4   6
BRANCH   1  16
ATOM     16  S   UNL d   1      32.365  23.350 -21.526  0.00  0.00     0.266 S 
ATOM     17  O   UNL d   1      32.119  23.688 -22.256  0.00  0.00    -0.203 OA
ATOM     18  O   UNL d   1      33.150  23.521 -21.697  0.00  0.00    -0.203 OA
ATOM     19  C   UNL d   1      31.585  23.183 -21.359  0.00  0.00     0.165 C 
ENDBRANCH   1  16
BRANCH   3  20
ATOM     20  C   UNL d   1      32.929  23.013 -18.712  0.00  0.00     0.049 A 
ATOM     21  S   UNL d   1      33.240  22.496 -18.154  0.00  0.00    -0.085 SA
ATOM     22  C   UNL d   1      33.222  22.863 -17.398  0.00  0.00     0.035 A 
ATOM     23  C   UNL d   1      32.893  23.613 -17.511  0.00  0.00     0.007 A 
ATOM     24  C   UNL d   1      32.716  23.695 -18.324  0.00  0.00     0.009 A 
ENDBRANCH   3  20
TORSDOF 5
ENDMDL
MODEL 3
REMARK VINA RESULT:       0.0      2.167      4.329
REMARK  5 active torsions:
REMARK  status: ('A' for Active; 'I' for Inactive)
REMARK    1  A    between atoms: S_3  and  N_1 
REMARK    2  A    between atoms: C_7  and  C_4 
REMARK    3  A    between atoms: C_8  and  C_5 
REMARK    4  A    between atoms: O_21  and  C_13 
REMARK    5  A    between atoms: O_22  and  C_15 
ROOT
ATOM      1  N   UNL d   1      32.747  19.262 -23.526  0.00  0.00    -0.155 N 
ATOM      2  N   UNL d   1      33.017  19.824 -23.003  0.00  0.00    -0.155 NA
ATOM      3  C   UNL d   1      32.623  19.723 -22.288  0.00  0.00     0.110 A 
ATOM      4  C   UNL d   1      32.181  18.810 -23.132  0.00  0.00     0.096 A 
ATOM      5  C   UNL d   1      32.109  19.097 -22.373  0.00  0.00     0.041 A 
ENDROOT
BRANCH   4   6
ATOM      6  C   UNL d   1      31.763  18.179 -23.452  0.00  0.00     0.021 A 
ATOM      7  C   UNL d   1      31.930  17.409 -23.209  0.00  0.00     0.028 A 
ATOM      8  C   UNL d   1      31.509  16.773 -23.531  0.00  0.00     0.116 A 
ATOM      9  C   UNL d   1      30.925  16.911 -24.094  0.00  0.00     0.116 A 
ATOM     10  C   UNL d   1      30.757  17.681 -24.337  0.00  0.00     0.026 A 
ATOM     11  C   UNL d   1      31.175  18.312 -24.017  0.00  0.00     0.004 A 
BRANCH   8  12
ATOM     12  O   UNL d   1      31.677  16.003 -23.288  0.00  0.00    -0.326 OA
ATOM     13  C   UNL d   1      32.437  15.700 -23.373  0.00  0.00     0.181 C 
ENDBRANCH   8  12
BRANCH   9  14
ATOM     14  O   UNL d   1      30.504  16.276 -24.416  0.00  0.00    -0.326 OA
ATOM     15  C   UNL d   1      29.803  16.412 -24.834  0.00  0.00     0.181 C 
ENDBRANCH   9  14
ENDBRANCH   4   6
BRANCH   1  16
ATOM     16  S   UNL d   1      32.992  19.165 -24.297  0.00  0.00     0.266 S 
ATOM     17  O   UNL d   1      33.241  19.081 -25.097  0.00  0.00    -0.203 OA
ATOM     18  O   UNL d   1      33.227  18.396 -24.131  0.00  0.00    -0.203 OA
ATOM     19  C   UNL d   1      32.762  19.928 -24.467  0.00  0.00     0.165 C 
ENDBRANCH   1  16
BRANCH   3  20
ATOM     20  C   UNL d   1      32.736  20.184 -21.606  0.00  0.00     0.049 A 
ATOM     21  S   UNL d   1      33.239  19.997 -20.982  0.00  0.00    -0.085 SA
ATOM     22  C   UNL d   1      33.194  20.605 -20.402  0.00  0.00     0.035 A 
ATOM     23  C   UNL d   1      32.655  21.162 -20.688  0.00  0.00     0.007 A 
ATOM     24  C   UNL d   1      32.378  20.893 -21.430  0.00  0.00     0.009 A 
ENDBRANCH   3  20
TORSDOF 5
ENDMDL
