MODEL 1
REMARK VINA RESULT:      -2.6      0.000      0.000
REMARK  2 active torsions:
REMARK  status: ('A' for Active; 'I' for Inactive)
REMARK    1  A    between atoms: C_3  and  C_1 
REMARK       I    between atoms: N_6  and  C_3 
REMARK    2  A    between atoms: C_9  and  N_7 
ROOT
ATOM      1  C   UNL d   1     -41.510-121.607 -50.947  0.00  0.00     0.270 C 
ATOM      2  N   UNL d   1     -41.517-121.891 -51.710  0.00  0.00    -0.269 N 
ATOM      3  N   UNL d   1     -41.539-122.490 -53.275  0.00  0.00    -0.286 N 
ATOM      4  O   UNL d   1     -41.173-120.851 -50.789  0.00  0.00    -0.266 OA
ATOM      5  C   UNL d   1     -41.851-122.644 -51.867  0.00  0.00     0.102 A 
ATOM      6  C   UNL d   1     -41.199-121.454 -52.347  0.00  0.00     0.102 A 
ATOM      7  C   UNL d   1     -41.856-122.932 -52.655  0.00  0.00     0.101 A 
ATOM      8  C   UNL d   1     -41.204-121.736 -53.118  0.00  0.00     0.101 A 
ENDROOT
BRANCH   1   9
ATOM      9  C   UNL d   1     -41.834-122.058 -50.314  0.00  0.00     0.120 A 
ATOM     10  C   UNL d   1     -42.671-122.060 -50.189  0.00  0.00     0.305 A 
ATOM     11  O   UNL d   1     -42.983-122.499 -49.572  0.00  0.00    -0.273 OA
ATOM     12  O   UNL d   1     -43.173-121.611 -50.697  0.00  0.00    -0.259 OA
ATOM     13  C   UNL d   1     -42.502-122.938 -49.072  0.00  0.00     0.103 A 
ATOM     14  C   UNL d   1     -41.664-122.937 -49.198  0.00  0.00     0.023 A 
ATOM     15  C   UNL d   1     -42.813-123.382 -48.450  0.00  0.00     0.025 A 
ATOM     16  C   UNL d   1     -41.353-122.495 -49.817  0.00  0.00     0.012 A 
ATOM     17  C   UNL d   1     -41.183-123.378 -48.695  0.00  0.00     0.002 A 
ATOM     18  C   UNL d   1     -41.494-123.815 -48.082  0.00  0.00     0.000 A 
ATOM     19  C   UNL d   1     -42.332-123.817 -47.956  0.00  0.00     0.002 A 
ENDBRANCH   1   9
BRANCH   3  20
ATOM     20  C   UNL d   1     -41.548-122.780 -54.043  0.00  0.00     0.148 A 
ATOM     21  N   UNL d   1     -41.993-122.383 -54.633  0.00  0.00    -0.227 NA
ATOM     22  C   UNL d   1     -42.009-122.668 -55.416  0.00  0.00     0.101 A 
ATOM     23  C   UNL d   1     -41.577-123.352 -55.599  0.00  0.00     0.021 A 
ATOM     24  C   UNL d   1     -41.131-123.749 -55.009  0.00  0.00     0.005 A 
ATOM     25  C   UNL d   1     -41.122-123.459 -54.240  0.00  0.00     0.037 A 
ENDBRANCH   3  20
TORSDOF 2
ENDMDL
MODEL 2
REMARK VINA RESULT:      -1.7      1.312      4.754
REMARK  2 active torsions:
REMARK  status: ('A' for Active; 'I' for Inactive)
REMARK    1  A    between atoms: C_3  and  C_1 
REMARK       I    between atoms: N_6  and  C_3 
REMARK    2  A    between atoms: C_9  and  N_7 
ROOT
ATOM      1  C   UNL d   1     -41.421-121.286 -52.400  0.00  0.00     0.270 C 
ATOM      2  N   UNL d   1     -41.559-121.692 -51.708  0.00  0.00    -0.269 N 
ATOM      3  N   UNL d   1     -41.847-122.543 -50.294  0.00  0.00    -0.286 N 
ATOM      4  O   UNL d   1     -41.123-120.499 -52.366  0.00  0.00    -0.266 OA
ATOM      5  C   UNL d   1     -41.856-122.476 -51.743  0.00  0.00     0.102 A 
ATOM      6  C   UNL d   1     -41.413-121.353 -50.960  0.00  0.00     0.102 A 
ATOM      7  C   UNL d   1     -41.996-122.891 -51.027  0.00  0.00     0.101 A 
ATOM      8  C   UNL d   1     -41.550-121.759 -50.260  0.00  0.00     0.101 A 
ENDROOT
BRANCH   1   9
ATOM      9  C   UNL d   1     -41.573-121.640 -53.148  0.00  0.00     0.120 A 
ATOM     10  C   UNL d   1     -42.041-121.225 -53.720  0.00  0.00     0.305 A 
ATOM     11  O   UNL d   1     -42.187-121.572 -54.447  0.00  0.00    -0.273 OA
ATOM     12  O   UNL d   1     -42.351-120.463 -53.534  0.00  0.00    -0.259 OA
ATOM     13  C   UNL d   1     -41.889-122.314 -54.635  0.00  0.00     0.103 A 
ATOM     14  C   UNL d   1     -41.421-122.729 -54.064  0.00  0.00     0.023 A 
ATOM     15  C   UNL d   1     -42.034-122.667 -55.367  0.00  0.00     0.025 A 
ATOM     16  C   UNL d   1     -41.276-122.379 -53.336  0.00  0.00     0.012 A 
ATOM     17  C   UNL d   1     -41.123-123.474 -54.256  0.00  0.00     0.002 A 
ATOM     18  C   UNL d   1     -41.269-123.817 -54.979  0.00  0.00     0.000 A 
ATOM     19  C   UNL d   1     -41.737-123.403 -55.550  0.00  0.00     0.002 A 
ENDBRANCH   1   9
BRANCH   3  20
ATOM     20  C   UNL d   1     -41.988-122.957 -49.599  0.00  0.00     0.148 A 
ATOM     21  N   UNL d   1     -41.358-123.363 -49.221  0.00  0.00    -0.227 NA
ATOM     22  C   UNL d   1     -41.489-123.786 -48.516  0.00  0.00     0.101 A 
ATOM     23  C   UNL d   1     -42.253-123.797 -48.195  0.00  0.00     0.021 A 
ATOM     24  C   UNL d   1     -42.883-123.392 -48.572  0.00  0.00     0.005 A 
ATOM     25  C   UNL d   1     -42.743-122.978 -49.268  0.00  0.00     0.037 A 
ENDBRANCH   3  20
TORSDOF 2
ENDMDL
