MODEL 1
REMARK VINA RESULT:      30.0      0.000      0.000
REMARK  4 active torsions:
REMARK  status: ('A' for Active; 'I' for Inactive)
REMARK    1  A    between atoms: C_2  and  S_1 
REMARK    2  A    between atoms: N_5  and  S_1 
REMARK    3  A    between atoms: C_12  and  N_5 
REMARK    4  A    between atoms: C_13  and  C_12 
ROOT
ATOM      1  S   UNL d   1      13.699  13.350  -2.936  0.00  0.00     0.285 S 
ATOM      2  O   UNL d   1      14.058  12.658  -2.665  0.00  0.00    -0.198 OA
ATOM      3  O   UNL d   1      13.341  14.041  -3.207  0.00  0.00    -0.198 OA
ENDROOT
BRANCH   1   4
ATOM      4  C   UNL d   1      13.469  12.960  -3.625  0.00  0.00     0.105 A 
ATOM      5  C   UNL d   1      13.499  13.338  -4.351  0.00  0.00     0.012 A 
ATOM      6  C   UNL d   1      13.269  12.948  -5.040  0.00  0.00     0.001 A 
ATOM      7  C   UNL d   1      13.767  14.125  -4.384  0.00  0.00     0.001 C 
ATOM      8  C   UNL d   1      13.007  12.177  -5.011  0.00  0.00     0.000 A 
ATOM      9  C   UNL d   1      12.972  11.787  -4.285  0.00  0.00     0.001 A 
ATOM     10  C   UNL d   1      12.776  11.787  -5.700  0.00  0.00     0.000 C 
ATOM     11  C   UNL d   1      13.202  12.176  -3.596  0.00  0.00     0.012 A 
ATOM     12  C   UNL d   1      13.169  11.789  -2.863  0.00  0.00     0.001 C 
ENDBRANCH   1   4
BRANCH   1  13
ATOM     13  N   UNL d   1      13.928  13.736  -2.252  0.00  0.00    -0.157 NA
BRANCH  13  14
ATOM     14  C   UNL d   1      14.540  13.444  -1.799  0.00  0.00     0.112 C 
BRANCH  14  15
ATOM     15  C   UNL d   1      14.867  13.906  -1.209  0.00  0.00     0.023 A 
ATOM     16  C   UNL d   1      14.742  14.717  -1.193  0.00  0.00     0.022 A 
ATOM     17  C   UNL d   1      15.070  15.183  -0.601  0.00  0.00     0.099 A 
ATOM     18  N   UNL d   1      15.531  14.831  -0.014  0.00  0.00    -0.242 NA
ATOM     19  C   UNL d   1      15.665  14.022  -0.016  0.00  0.00     0.099 A 
ATOM     20  C   UNL d   1      15.332  13.551  -0.617  0.00  0.00     0.022 A 
ENDBRANCH  14  15
ENDBRANCH  13  14
ENDBRANCH   1  13
TORSDOF 4
ENDMDL
MODEL 2
REMARK VINA RESULT:      31.8      1.341      3.986
REMARK  4 active torsions:
REMARK  status: ('A' for Active; 'I' for Inactive)
REMARK    1  A    between atoms: C_2  and  S_1 
REMARK    2  A    between atoms: N_5  and  S_1 
REMARK    3  A    between atoms: C_12  and  N_5 
REMARK    4  A    between atoms: C_13  and  C_12 
ROOT
ATOM      1  S   UNL d   1      13.775  12.534  -2.146  0.00  0.00     0.285 S 
ATOM      2  O   UNL d   1      14.052  11.782  -1.950  0.00  0.00    -0.198 OA
ATOM      3  O   UNL d   1      13.499  13.286  -2.343  0.00  0.00    -0.198 OA
ENDROOT
BRANCH   1   4
ATOM      4  C   UNL d   1      14.310  12.869  -1.614  0.00  0.00     0.105 A 
ATOM      5  C   UNL d   1      14.753  13.526  -1.822  0.00  0.00     0.012 A 
ATOM      6  C   UNL d   1      15.287  13.860  -1.291  0.00  0.00     0.001 A 
ATOM      7  C   UNL d   1      14.657  13.852  -2.582  0.00  0.00     0.001 C 
ATOM      8  C   UNL d   1      15.383  13.542  -0.546  0.00  0.00     0.000 A 
ATOM      9  C   UNL d   1      14.941  12.881  -0.327  0.00  0.00     0.001 A 
ATOM     10  C   UNL d   1      15.917  13.877  -0.014  0.00  0.00     0.000 C 
ATOM     11  C   UNL d   1      14.408  12.546  -0.858  0.00  0.00     0.012 A 
ATOM     12  C   UNL d   1      13.961  11.882  -0.642  0.00  0.00     0.001 C 
ENDBRANCH   1   4
BRANCH   1  13
ATOM     13  N   UNL d   1      13.246  12.202  -2.674  0.00  0.00    -0.157 NA
BRANCH  13  14
ATOM     14  C   UNL d   1      13.515  11.802  -3.332  0.00  0.00     0.112 C 
BRANCH  14  15
ATOM     15  C   UNL d   1      13.395  12.115  -4.077  0.00  0.00     0.023 A 
ATOM     16  C   UNL d   1      12.892  12.755  -4.188  0.00  0.00     0.022 A 
ATOM     17  C   UNL d   1      12.769  13.071  -4.936  0.00  0.00     0.099 A 
ATOM     18  N   UNL d   1      13.157  12.741  -5.585  0.00  0.00    -0.242 NA
ATOM     19  C   UNL d   1      13.663  12.102  -5.491  0.00  0.00     0.099 A 
ATOM     20  C   UNL d   1      13.786  11.783  -4.732  0.00  0.00     0.022 A 
ENDBRANCH  14  15
ENDBRANCH  13  14
ENDBRANCH   1  13
TORSDOF 4
ENDMDL
