MODEL 1
REMARK VINA RESULT:      15.0      0.000      0.000
REMARK  6 active torsions:
REMARK  status: ('A' for Active; 'I' for Inactive)
REMARK       I    between atoms: N_2  and  C_1 
REMARK       I    between atoms: N_4  and  C_1 
REMARK    1  A    between atoms: C_8  and  N_2 
REMARK    2  A    between atoms: C_3  and  C_5 
REMARK    3  A    between atoms: O_11  and  C_3 
REMARK    4  A    between atoms: C_14  and  N_4 
REMARK    5  A    between atoms: C_15  and  N_4 
REMARK    6  A    between atoms: C_16  and  O_11 
ROOT
ATOM      1  C   UNL d   1      13.269  12.747  -3.945  0.00  0.00     0.064 A 
ATOM      2  C   UNL d   1      13.573  12.353  -2.376  0.00  0.00     0.086 A 
ATOM      3  C   UNL d   1      13.127  11.977  -3.674  0.00  0.00     0.007 A 
ATOM      4  C   UNL d   1      13.559  13.311  -3.441  0.00  0.00     0.007 A 
ATOM      5  C   UNL d   1      13.283  11.789  -2.880  0.00  0.00     0.019 A 
ATOM      6  C   UNL d   1      13.714  13.123  -2.651  0.00  0.00     0.019 A 
ENDROOT
BRANCH   2   7
ATOM      7  N   UNL d   1      13.728  12.167  -1.589  0.00  0.00    -0.192 NA
ATOM      8  C   UNL d   1      14.424  12.451  -1.232  0.00  0.00     0.354 C 
ATOM      9  N   UNL d   1      14.577  12.267  -0.454  0.00  0.00    -0.256 N 
ATOM     10  O   UNL d   1      14.948  12.913  -1.668  0.00  0.00    -0.244 OA
BRANCH   9  11
ATOM     11  C   UNL d   1      14.046  11.803  -0.025  0.00  0.00     0.085 C 
ATOM     12  C   UNL d   1      13.232  11.862  -0.170  0.00  0.00     0.021 C 
ENDBRANCH   9  11
BRANCH   9  13
ATOM     13  C   UNL d   1      15.277  12.553  -0.099  0.00  0.00     0.085 C 
ATOM     14  C   UNL d   1      15.389  13.365  -0.032  0.00  0.00     0.021 C 
ENDBRANCH   9  13
ENDBRANCH   2   7
BRANCH   1  15
ATOM     15  C   UNL d   1      13.117  12.938  -4.726  0.00  0.00     0.300 C 
ATOM     16  O   UNL d   1      13.168  13.717  -4.985  0.00  0.00    -0.259 OA
BRANCH  15  17
ATOM     17  O   UNL d   1      12.911  12.343  -5.258  0.00  0.00    -0.271 OA
BRANCH  17  18
ATOM     18  C   UNL d   1      13.220  12.344  -6.013  0.00  0.00     0.126 C 
ATOM     19  C   UNL d   1      13.795  11.796  -6.227  0.00  0.00     0.029 C 
ENDBRANCH  17  18
ENDBRANCH  15  17
ENDBRANCH   1  15
TORSDOF 6
ENDMDL
MODEL 2
REMARK VINA RESULT:      16.0      1.401      4.369
REMARK  6 active torsions:
REMARK  status: ('A' for Active; 'I' for Inactive)
REMARK       I    between atoms: N_2  and  C_1 
REMARK       I    between atoms: N_4  and  C_1 
REMARK    1  A    between atoms: C_8  and  N_2 
REMARK    2  A    between atoms: C_3  and  C_5 
REMARK    3  A    between atoms: O_11  and  C_3 
REMARK    4  A    between atoms: C_14  and  N_4 
REMARK    5  A    between atoms: C_15  and  N_4 
REMARK    6  A    between atoms: C_16  and  O_11 
ROOT
ATOM      1  C   UNL d   1      15.003  12.729  -1.107  0.00  0.00     0.064 A 
ATOM      2  C   UNL d   1      14.124  12.461  -2.473  0.00  0.00     0.086 A 
ATOM      3  C   UNL d   1      14.451  13.292  -1.364  0.00  0.00     0.007 A 
ATOM      4  C   UNL d   1      15.114  12.044  -1.525  0.00  0.00     0.007 A 
ATOM      5  C   UNL d   1      14.012  13.146  -2.055  0.00  0.00     0.019 A 
ATOM      6  C   UNL d   1      14.677  11.900  -2.212  0.00  0.00     0.019 A 
ENDROOT
BRANCH   2   7
ATOM      7  N   UNL d   1      13.690  12.316  -3.158  0.00  0.00    -0.192 NA
ATOM      8  C   UNL d   1      13.443  12.955  -3.628  0.00  0.00     0.354 C 
ATOM      9  N   UNL d   1      13.014  12.811  -4.305  0.00  0.00    -0.256 N 
ATOM     10  O   UNL d   1      13.636  13.725  -3.406  0.00  0.00    -0.244 OA
BRANCH   9  11
ATOM     11  C   UNL d   1      12.826  12.037  -4.520  0.00  0.00     0.085 C 
ATOM     12  C   UNL d   1      12.953  11.779  -5.298  0.00  0.00     0.021 C 
ENDBRANCH   9  11
BRANCH   9  13
ATOM     13  C   UNL d   1      12.769  13.456  -4.776  0.00  0.00     0.085 C 
ATOM     14  C   UNL d   1      12.969  14.219  -4.545  0.00  0.00     0.021 C 
ENDBRANCH   9  13
ENDBRANCH   2   7
BRANCH   1  15
ATOM     15  C   UNL d   1      15.437  12.867  -0.428  0.00  0.00     0.300 C 
ATOM     16  O   UNL d   1      15.863  12.260  -0.072  0.00  0.00    -0.259 OA
BRANCH  15  17
ATOM     17  O   UNL d   1      15.448  13.623  -0.097  0.00  0.00    -0.271 OA
BRANCH  17  18
ATOM     18  C   UNL d   1      16.153  14.024  -0.017  0.00  0.00     0.126 C 
ATOM     19  C   UNL d   1      16.170  14.846  -0.043  0.00  0.00     0.029 C 
ENDBRANCH  17  18
ENDBRANCH  15  17
ENDBRANCH   1  15
TORSDOF 6
ENDMDL
