MODEL 1
REMARK VINA RESULT:     101.6      0.000      0.000
REMARK  6 active torsions:
REMARK  status: ('A' for Active; 'I' for Inactive)
REMARK    1  A    between atoms: C_6  and  C_1 
REMARK    2  A    between atoms: C_8  and  N_2 
REMARK    3  A    between atoms: C_12  and  C_5 
REMARK    4  A    between atoms: C_7  and  C_6 
REMARK    5  A    between atoms: C_18  and  C_8 
REMARK    6  A    between atoms: N_10  and  C_18 
ROOT
ATOM      1  C   UNL d   1      58.712  48.381  50.996  0.00  0.00     0.099 A 
ATOM      2  N   UNL d   1      59.566  47.348  50.985  0.00  0.00    -0.269 N 
ATOM      3  C   UNL d   1      58.254  47.698  51.029  0.00  0.00     0.256 A 
ATOM      4  C   UNL d   1      58.778  47.067  51.022  0.00  0.00     0.304 A 
ATOM      5  C   UNL d   1      59.500  48.172  50.969  0.00  0.00     0.073 A 
ATOM      6  O   UNL d   1      58.568  46.275  51.047  0.00  0.00    -0.263 OA
ATOM      7  O   UNL d   1      57.428  47.662  51.062  0.00  0.00    -0.281 OA
ENDROOT
BRANCH   2   8
ATOM      8  C   UNL d   1      60.270  46.906  50.967  0.00  0.00     0.102 C 
BRANCH   8   9
ATOM      9  C   UNL d   1      60.232  46.088  50.965  0.00  0.00     0.100 C 
BRANCH   9  10
ATOM     10  N   UNL d   1      60.754  45.645  50.512  0.00  0.00    -0.298 N 
ATOM     11  C   UNL d   1      61.413  46.041  50.158  0.00  0.00     0.107 A 
ATOM     12  C   UNL d   1      61.954  45.600  49.693  0.00  0.00     0.142 A 
ATOM     13  O   UNL d   1      61.827  44.782  49.590  0.00  0.00    -0.300 OA
ATOM     14  C   UNL d   1      61.187  44.399  49.934  0.00  0.00     0.142 A 
ATOM     15  C   UNL d   1      60.643  44.845  50.403  0.00  0.00     0.107 A 
ENDBRANCH   9  10
ENDBRANCH   8   9
ENDBRANCH   2   8
BRANCH   5  16
ATOM     16  C   UNL d   1      60.148  48.685  50.933  0.00  0.00     0.016 A 
ATOM     17  C   UNL d   1      60.561  48.780  50.225  0.00  0.00     0.001 A 
ATOM     18  C   UNL d   1      61.201  49.287  50.187  0.00  0.00     0.000 A 
ATOM     19  C   UNL d   1      61.438  49.708  50.862  0.00  0.00     0.000 A 
ATOM     20  C   UNL d   1      61.022  49.607  51.565  0.00  0.00     0.000 A 
ATOM     21  C   UNL d   1      60.372  49.091  51.597  0.00  0.00     0.001 A 
ENDBRANCH   5  16
BRANCH   1  22
ATOM     22  C   UNL d   1      58.408  49.148  50.991  0.00  0.00     0.206 C 
ATOM     23  O   UNL d   1      58.724  49.707  51.485  0.00  0.00    -0.286 OA
BRANCH  22  24
ATOM     24  C   UNL d   1      57.770  49.351  50.475  0.00  0.00     0.069 A 
ATOM     25  S   UNL d   1      56.969  49.389  50.680  0.00  0.00    -0.083 SA
ATOM     26  C   UNL d   1      56.546  49.608  50.007  0.00  0.00     0.035 A 
ATOM     27  C   UNL d   1      57.072  49.707  49.385  0.00  0.00     0.008 A 
ATOM     28  C   UNL d   1      57.833  49.548  49.676  0.00  0.00     0.010 A 
ENDBRANCH  22  24
ENDBRANCH   1  22
TORSDOF 6
ENDMDL
