MODEL 1
REMARK VINA RESULT:      -3.4      0.000      0.000
REMARK  0 active torsions:
REMARK  status: ('A' for Active; 'I' for Inactive)
ROOT
ATOM      1  C   UNL d   1      29.796  16.705 -24.029  0.00  0.00     0.191 A 
ATOM      2  S   UNL d   1      28.621  15.982 -23.596  0.00  0.00     0.289 S 
ATOM      3  N   UNL d   1      28.973  16.609 -24.022  0.00  0.00    -0.134 NA
ATOM      4  N   UNL d   1      30.263  16.170 -23.607  0.00  0.00    -0.284 N 
ATOM      5  S   UNL d   1      30.288  17.244 -24.380  0.00  0.00    -0.048 SA
ATOM      6  C   UNL d   1      31.059  17.052 -24.184  0.00  0.00     0.048 A 
ATOM      7  C   UNL d   1      31.043  16.383 -23.702  0.00  0.00     0.072 A 
ATOM      8  C   UNL d   1      29.100  15.453 -23.178  0.00  0.00     0.137 A 
ATOM      9  C   UNL d   1      31.786  17.389 -24.372  0.00  0.00     0.007 A 
ATOM     10  C   UNL d   1      29.916  15.540 -23.179  0.00  0.00     0.096 A 
ATOM     11  O   UNL d   1      28.010  16.402 -23.946  0.00  0.00    -0.198 OA
ATOM     12  O   UNL d   1      28.048  15.505 -23.295  0.00  0.00    -0.198 OA
ATOM     13  C   UNL d   1      31.788  16.055 -23.409  0.00  0.00     0.018 A 
ATOM     14  C   UNL d   1      32.503  17.075 -24.090  0.00  0.00     0.001 A 
ATOM     15  C   UNL d   1      32.498  16.421 -23.619  0.00  0.00     0.002 A 
ATOM     16  C   UNL d   1      31.777  18.075 -24.867  0.00  0.00     0.001 A 
ATOM     17  C   UNL d   1      33.215  17.444 -24.303  0.00  0.00     0.000 A 
ATOM     18  C   UNL d   1      32.486  18.440 -25.077  0.00  0.00     0.000 A 
ATOM     19  C   UNL d   1      33.231  18.113 -24.784  0.00  0.00     0.000 A 
ENDROOT
TORSDOF 0
ENDMDL
MODEL 2
REMARK VINA RESULT:      -3.2      2.061      3.630
REMARK  0 active torsions:
REMARK  status: ('A' for Active; 'I' for Inactive)
ROOT
ATOM      1  C   UNL d   1      31.126  17.655 -24.401  0.00  0.00     0.191 A 
ATOM      2  S   UNL d   1      32.460  18.162 -24.629  0.00  0.00     0.289 S 
ATOM      3  N   UNL d   1      31.632  18.228 -24.719  0.00  0.00    -0.134 NA
ATOM      4  N   UNL d   1      31.454  17.016 -23.992  0.00  0.00    -0.284 N 
ATOM      5  S   UNL d   1      30.321  17.568 -24.396  0.00  0.00    -0.048 SA
ATOM      6  C   UNL d   1      30.140  16.880 -23.989  0.00  0.00     0.048 A 
ATOM      7  C   UNL d   1      30.848  16.538 -23.738  0.00  0.00     0.072 A 
ATOM      8  C   UNL d   1      32.777  17.518 -24.218  0.00  0.00     0.137 A 
ATOM      9  C   UNL d   1      29.430  16.508 -23.806  0.00  0.00     0.007 A 
ATOM     10  C   UNL d   1      32.283  16.945 -23.899  0.00  0.00     0.096 A 
ATOM     11  O   UNL d   1      32.323  18.849 -25.055  0.00  0.00    -0.198 OA
ATOM     12  O   UNL d   1      33.241  18.344 -24.692  0.00  0.00    -0.198 OA
ATOM     13  C   UNL d   1      30.821  15.798 -23.289  0.00  0.00     0.018 A 
ATOM     14  C   UNL d   1      29.405  15.797 -23.374  0.00  0.00     0.001 A 
ATOM     15  C   UNL d   1      30.090  15.454 -23.124  0.00  0.00     0.002 A 
ATOM     16  C   UNL d   1      28.718  16.879 -24.074  0.00  0.00     0.001 A 
ATOM     17  C   UNL d   1      28.668  15.452 -23.209  0.00  0.00     0.000 A 
ATOM     18  C   UNL d   1      27.988  16.535 -23.909  0.00  0.00     0.000 A 
ATOM     19  C   UNL d   1      27.962  15.795 -23.461  0.00  0.00     0.000 A 
ENDROOT
TORSDOF 0
ENDMDL
MODEL 3
REMARK VINA RESULT:      -3.2      5.122      5.981
REMARK  0 active torsions:
REMARK  status: ('A' for Active; 'I' for Inactive)
ROOT
ATOM      1  C   UNL d   1      33.180  20.084 -21.980  0.00  0.00     0.191 A 
ATOM      2  S   UNL d   1      33.197  18.984 -22.916  0.00  0.00     0.289 S 
ATOM      3  N   UNL d   1      33.172  19.271 -22.131  0.00  0.00    -0.134 NA
ATOM      4  N   UNL d   1      33.213  20.609 -22.617  0.00  0.00    -0.284 N 
ATOM      5  S   UNL d   1      33.161  20.521 -21.297  0.00  0.00    -0.048 SA
ATOM      6  C   UNL d   1      33.182  21.314 -21.500  0.00  0.00     0.048 A 
ATOM      7  C   UNL d   1      33.214  21.368 -22.323  0.00  0.00     0.072 A 
ATOM      8  C   UNL d   1      33.230  19.519 -23.546  0.00  0.00     0.137 A 
ATOM      9  C   UNL d   1      33.177  22.007 -21.056  0.00  0.00     0.007 A 
ATOM     10  C   UNL d   1      33.238  20.327 -23.405  0.00  0.00     0.096 A 
ATOM     11  O   UNL d   1      33.168  18.328 -22.425  0.00  0.00    -0.198 OA
ATOM     12  O   UNL d   1      33.212  18.459 -23.525  0.00  0.00    -0.198 OA
ATOM     13  C   UNL d   1      33.241  22.149 -22.694  0.00  0.00     0.018 A 
ATOM     14  C   UNL d   1      33.203  22.758 -21.413  0.00  0.00     0.001 A 
ATOM     15  C   UNL d   1      33.234  22.821 -22.215  0.00  0.00     0.002 A 
ATOM     16  C   UNL d   1      33.143  21.926 -20.214  0.00  0.00     0.001 A 
ATOM     17  C   UNL d   1      33.195  23.433 -20.929  0.00  0.00     0.000 A 
ATOM     18  C   UNL d   1      33.136  22.598 -19.737  0.00  0.00     0.000 A 
ATOM     19  C   UNL d   1      33.163  23.379 -20.107  0.00  0.00     0.000 A 
ENDROOT
TORSDOF 0
ENDMDL
MODEL 4
REMARK VINA RESULT:      -3.1      5.778      6.632
REMARK  0 active torsions:
REMARK  status: ('A' for Active; 'I' for Inactive)
ROOT
ATOM      1  C   UNL d   1      33.224  21.774 -20.542  0.00  0.00     0.191 A 
ATOM      2  S   UNL d   1      33.216  22.960 -19.716  0.00  0.00     0.289 S 
ATOM      3  N   UNL d   1      33.221  22.128 -19.793  0.00  0.00    -0.134 NA
ATOM      4  N   UNL d   1      33.221  22.257 -21.212  0.00  0.00    -0.284 N 
ATOM      5  S   UNL d   1      33.228  21.002 -20.790  0.00  0.00    -0.048 SA
ATOM      6  C   UNL d   1      33.229  20.997 -21.609  0.00  0.00     0.048 A 
ATOM      7  C   UNL d   1      33.224  21.780 -21.870  0.00  0.00     0.072 A 
ATOM      8  C   UNL d   1      33.214  23.433 -20.394  0.00  0.00     0.137 A 
ATOM      9  C   UNL d   1      33.232  20.391 -22.165  0.00  0.00     0.007 A 
ATOM     10  C   UNL d   1      33.216  23.091 -21.140  0.00  0.00     0.096 A 
ATOM     11  O   UNL d   1      33.218  22.652 -18.956  0.00  0.00    -0.198 OA
ATOM     12  O   UNL d   1      33.212  23.683 -19.364  0.00  0.00    -0.198 OA
ATOM     13  C   UNL d   1      33.223  21.940 -22.720  0.00  0.00     0.018 A 
ATOM     14  C   UNL d   1      33.232  20.545 -22.983  0.00  0.00     0.001 A 
ATOM     15  C   UNL d   1      33.227  21.306 -23.249  0.00  0.00     0.002 A 
ATOM     16  C   UNL d   1      33.237  19.598 -21.872  0.00  0.00     0.001 A 
ATOM     17  C   UNL d   1      33.236  19.906 -23.512  0.00  0.00     0.000 A 
ATOM     18  C   UNL d   1      33.241  18.964 -22.400  0.00  0.00     0.000 A 
ATOM     19  C   UNL d   1      33.240  19.124 -23.250  0.00  0.00     0.000 A 
ENDROOT
TORSDOF 0
ENDMDL
MODEL 5
REMARK VINA RESULT:      -3.0      4.716      5.648
REMARK  0 active torsions:
REMARK  status: ('A' for Active; 'I' for Inactive)
ROOT
ATOM      1  C   UNL d   1      33.217  20.777 -21.349  0.00  0.00     0.191 A 
ATOM      2  S   UNL d   1      33.212  22.033 -20.633  0.00  0.00     0.289 S 
ATOM      3  N   UNL d   1      33.211  21.197 -20.635  0.00  0.00    -0.134 NA
ATOM      4  N   UNL d   1      33.224  21.198 -22.060  0.00  0.00    -0.284 N 
ATOM      5  S   UNL d   1      33.218  19.987 -21.526  0.00  0.00    -0.048 SA
ATOM      6  C   UNL d   1      33.225  19.908 -22.342  0.00  0.00     0.048 A 
ATOM      7  C   UNL d   1      33.229  20.664 -22.673  0.00  0.00     0.072 A 
ATOM      8  C   UNL d   1      33.219  22.443 -21.351  0.00  0.00     0.137 A 
ATOM      9  C   UNL d   1      33.229  19.255 -22.842  0.00  0.00     0.007 A 
ATOM     10  C   UNL d   1      33.225  22.036 -22.063  0.00  0.00     0.096 A 
ATOM     11  O   UNL d   1      33.204  21.794 -19.848  0.00  0.00    -0.198 OA
ATOM     12  O   UNL d   1      33.210  22.785 -20.348  0.00  0.00    -0.198 OA
ATOM     13  C   UNL d   1      33.237  20.747 -23.534  0.00  0.00     0.018 A 
ATOM     14  C   UNL d   1      33.237  19.334 -23.670  0.00  0.00     0.001 A 
ATOM     15  C   UNL d   1      33.241  20.068 -24.003  0.00  0.00     0.002 A 
ATOM     16  C   UNL d   1      33.225  18.490 -22.478  0.00  0.00     0.001 A 
ATOM     17  C   UNL d   1      33.241  18.650 -24.140  0.00  0.00     0.000 A 
ATOM     18  C   UNL d   1      33.228  17.812 -22.948  0.00  0.00     0.000 A 
ATOM     19  C   UNL d   1      33.237  17.895 -23.808  0.00  0.00     0.000 A 
ENDROOT
TORSDOF 0
ENDMDL
MODEL 6
REMARK VINA RESULT:      -2.5      7.358      7.950
REMARK  0 active torsions:
REMARK  status: ('A' for Active; 'I' for Inactive)
ROOT
ATOM      1  C   UNL d   1      33.080  22.281 -18.703  0.00  0.00     0.191 A 
ATOM      2  S   UNL d   1      33.027  23.004 -17.454  0.00  0.00     0.289 S 
ATOM      3  N   UNL d   1      33.167  22.300 -17.880  0.00  0.00    -0.134 NA
ATOM      4  N   UNL d   1      32.853  22.971 -19.097  0.00  0.00    -0.284 N 
ATOM      5  S   UNL d   1      33.174  21.697 -19.257  0.00  0.00    -0.048 SA
ATOM      6  C   UNL d   1      33.008  22.014 -19.994  0.00  0.00     0.048 A 
ATOM      7  C   UNL d   1      32.808  22.808 -19.892  0.00  0.00     0.072 A 
ATOM      8  C   UNL d   1      32.800  23.689 -17.858  0.00  0.00     0.137 A 
ATOM      9  C   UNL d   1      33.008  21.697 -20.753  0.00  0.00     0.007 A 
ATOM     10  C   UNL d   1      32.712  23.680 -18.674  0.00  0.00     0.096 A 
ATOM     11  O   UNL d   1      33.239  22.434 -16.904  0.00  0.00    -0.198 OA
ATOM     12  O   UNL d   1      32.963  23.505 -16.827  0.00  0.00    -0.198 OA
ATOM     13  C   UNL d   1      32.605  23.284 -20.586  0.00  0.00     0.018 A 
ATOM     14  C   UNL d   1      32.813  22.155 -21.420  0.00  0.00     0.001 A 
ATOM     15  C   UNL d   1      32.616  22.931 -21.332  0.00  0.00     0.002 A 
ATOM     16  C   UNL d   1      33.216  20.881 -20.831  0.00  0.00     0.001 A 
ATOM     17  C   UNL d   1      32.824  21.798 -22.170  0.00  0.00     0.000 A 
ATOM     18  C   UNL d   1      33.227  20.529 -21.577  0.00  0.00     0.000 A 
ATOM     19  C   UNL d   1      33.024  21.004 -22.271  0.00  0.00     0.000 A 
ENDROOT
TORSDOF 0
ENDMDL
