MODEL 1
REMARK VINA RESULT:       0.6      0.000      0.000
REMARK  9 active torsions:
REMARK  status: ('A' for Active; 'I' for Inactive)
REMARK    1  A    between atoms: C_5  and  C_1 
REMARK    2  A    between atoms: N_6  and  C_2 
REMARK    3  A    between atoms: C_7  and  C_5 
REMARK    4  A    between atoms: C_8  and  C_5 
REMARK    5  A    between atoms: O_13  and  C_7 
REMARK    6  A    between atoms: C_17  and  N_12 
REMARK    7  A    between atoms: C_20  and  O_13 
REMARK    8  A    between atoms: C_21  and  C_17 
REMARK    9  A    between atoms: C_24  and  C_20 
ROOT
ATOM      1  C   UNL d   1      32.540  21.368 -21.726  0.00  0.00     0.117 A 
ATOM      2  C   UNL d   1      32.925  21.162 -21.030  0.00  0.00     0.145 A 
ATOM      3  N   UNL d   1      33.157  20.377 -20.897  0.00  0.00    -0.230 NA
ATOM      4  N   UNL d   1      32.383  20.788 -22.296  0.00  0.00    -0.241 NA
ATOM      5  C   UNL d   1      33.000  19.798 -21.467  0.00  0.00     0.100 A 
ATOM      6  C   UNL d   1      32.609  20.011 -22.171  0.00  0.00     0.099 A 
ATOM      7  C   UNL d   1      33.230  19.013 -21.339  0.00  0.00     0.021 A 
ATOM      8  C   UNL d   1      32.454  19.437 -22.734  0.00  0.00     0.021 A 
ATOM      9  C   UNL d   1      33.070  18.446 -21.909  0.00  0.00     0.002 A 
ATOM     10  C   UNL d   1      32.681  18.651 -22.612  0.00  0.00     0.002 A 
ENDROOT
BRANCH   2  11
ATOM     11  N   UNL d   1      33.007  21.844 -20.569  0.00  0.00    -0.189 NA
ATOM     12  C   UNL d   1      33.063  22.289 -20.073  0.00  0.00     0.076 A 
ATOM     13  C   UNL d   1      33.177  23.319 -20.078  0.00  0.00     0.093 A 
ATOM     14  N   UNL d   1      33.197  23.391 -19.191  0.00  0.00    -0.301 N 
ATOM     15  C   UNL d   1      33.144  22.975 -19.713  0.00  0.00     0.093 A 
ATOM     16  C   UNL d   1      33.022  21.877 -19.743  0.00  0.00     0.076 A 
BRANCH  14  17
ATOM     17  C   UNL d   1      33.241  23.687 -18.417  0.00  0.00     0.080 C 
BRANCH  17  18
ATOM     18  C   UNL d   1      32.738  23.388 -17.836  0.00  0.00     0.018 A 
ATOM     19  C   UNL d   1      31.952  23.624 -17.816  0.00  0.00     0.002 A 
ATOM     20  C   UNL d   1      31.453  23.322 -17.232  0.00  0.00     0.000 A 
ATOM     21  C   UNL d   1      31.742  22.787 -16.674  0.00  0.00     0.000 A 
ATOM     22  C   UNL d   1      32.533  22.555 -16.701  0.00  0.00     0.000 A 
ATOM     23  C   UNL d   1      33.031  22.857 -17.283  0.00  0.00     0.002 A 
ENDBRANCH  17  18
ENDBRANCH  14  17
ENDBRANCH   2  11
BRANCH   1  24
ATOM     24  C   UNL d   1      32.380  22.179 -21.700  0.00  0.00     0.104 C 
BRANCH  24  25
ATOM     25  C   UNL d   1      32.659  22.750 -22.242  0.00  0.00     0.303 C 
ATOM     26  O   UNL d   1      32.648  23.549 -22.040  0.00  0.00    -0.259 OA
BRANCH  25  27
ATOM     27  O   UNL d   1      32.946  22.509 -22.980  0.00  0.00    -0.271 OA
BRANCH  27  28
ATOM     28  C   UNL d   1      33.179  23.069 -23.539  0.00  0.00     0.126 C 
BRANCH  28  29
ATOM     29  C   UNL d   1      32.963  22.984 -24.329  0.00  0.00     0.025 C 
ATOM     30  C   UNL d   1      33.233  22.339 -24.761  0.00  0.00     0.002 C 
ATOM     31  C   UNL d   1      32.475  23.547 -24.687  0.00  0.00     0.002 C 
ENDBRANCH  28  29
ENDBRANCH  27  28
ENDBRANCH  25  27
ENDBRANCH  24  25
BRANCH  24  32
ATOM     32  C   UNL d   1      31.900  22.328 -21.049  0.00  0.00     0.129 C 
ATOM     33  N   UNL d   1      31.092  22.526 -21.065  0.00  0.00    -0.146 N 
ENDBRANCH  24  32
ENDBRANCH   1  24
TORSDOF 9
ENDMDL
MODEL 2
REMARK VINA RESULT:       2.7      1.788      5.621
REMARK  9 active torsions:
REMARK  status: ('A' for Active; 'I' for Inactive)
REMARK    1  A    between atoms: C_5  and  C_1 
REMARK    2  A    between atoms: N_6  and  C_2 
REMARK    3  A    between atoms: C_7  and  C_5 
REMARK    4  A    between atoms: C_8  and  C_5 
REMARK    5  A    between atoms: O_13  and  C_7 
REMARK    6  A    between atoms: C_17  and  N_12 
REMARK    7  A    between atoms: C_20  and  O_13 
REMARK    8  A    between atoms: C_21  and  C_17 
REMARK    9  A    between atoms: C_24  and  C_20 
ROOT
ATOM      1  C   UNL d   1      32.646  21.006 -22.834  0.00  0.00     0.117 A 
ATOM      2  C   UNL d   1      32.936  20.575 -23.471  0.00  0.00     0.145 A 
ATOM      3  N   UNL d   1      33.130  20.957 -24.181  0.00  0.00    -0.230 NA
ATOM      4  N   UNL d   1      32.549  21.825 -22.902  0.00  0.00    -0.241 NA
ATOM      5  C   UNL d   1      33.032  21.777 -24.249  0.00  0.00     0.100 A 
ATOM      6  C   UNL d   1      32.739  22.209 -23.600  0.00  0.00     0.099 A 
ATOM      7  C   UNL d   1      33.225  22.163 -24.955  0.00  0.00     0.021 A 
ATOM      8  C   UNL d   1      32.643  23.020 -23.669  0.00  0.00     0.021 A 
ATOM      9  C   UNL d   1      33.125  22.974 -25.013  0.00  0.00     0.002 A 
ATOM     10  C   UNL d   1      32.833  23.412 -24.371  0.00  0.00     0.002 A 
ENDROOT
BRANCH   2  11
ATOM     11  N   UNL d   1      32.975  19.779 -23.248  0.00  0.00    -0.189 NA
ATOM     12  C   UNL d   1      33.025  19.113 -23.229  0.00  0.00     0.076 A 
ATOM     13  C   UNL d   1      32.996  18.441 -22.440  0.00  0.00     0.093 A 
ATOM     14  N   UNL d   1      33.106  17.724 -22.957  0.00  0.00    -0.301 N 
ATOM     15  C   UNL d   1      33.051  18.391 -22.937  0.00  0.00     0.093 A 
ATOM     16  C   UNL d   1      33.079  19.134 -23.755  0.00  0.00     0.076 A 
BRANCH  14  17
ATOM     17  C   UNL d   1      33.195  16.945 -23.228  0.00  0.00     0.080 C 
BRANCH  17  18
ATOM     18  C   UNL d   1      32.531  16.512 -23.455  0.00  0.00     0.018 A 
ATOM     19  C   UNL d   1      32.093  16.110 -22.888  0.00  0.00     0.002 A 
ATOM     20  C   UNL d   1      31.429  15.679 -23.119  0.00  0.00     0.000 A 
ATOM     21  C   UNL d   1      31.206  15.652 -23.914  0.00  0.00     0.000 A 
ATOM     22  C   UNL d   1      31.651  16.058 -24.477  0.00  0.00     0.000 A 
ATOM     23  C   UNL d   1      32.314  16.489 -24.246  0.00  0.00     0.002 A 
ENDBRANCH  17  18
ENDBRANCH  14  17
ENDBRANCH   2  11
BRANCH   1  24
ATOM     24  C   UNL d   1      32.505  20.479 -22.212  0.00  0.00     0.104 C 
BRANCH  24  25
ATOM     25  C   UNL d   1      32.753  20.578 -21.421  0.00  0.00     0.303 C 
ATOM     26  O   UNL d   1      32.810  19.924 -20.923  0.00  0.00    -0.259 OA
BRANCH  25  27
ATOM     27  O   UNL d   1      32.940  21.335 -21.141  0.00  0.00    -0.271 OA
BRANCH  27  28
ATOM     28  C   UNL d   1      33.232  21.435 -20.377  0.00  0.00     0.126 C 
BRANCH  28  29
ATOM     29  C   UNL d   1      33.075  22.128 -19.959  0.00  0.00     0.025 C 
ATOM     30  C   UNL d   1      32.867  22.090 -19.166  0.00  0.00     0.002 C 
ATOM     31  C   UNL d   1      33.128  22.860 -20.340  0.00  0.00     0.002 C 
ENDBRANCH  28  29
ENDBRANCH  27  28
ENDBRANCH  25  27
ENDBRANCH  24  25
BRANCH  24  32
ATOM     32  C   UNL d   1      32.077  19.841 -22.506  0.00  0.00     0.129 C 
ATOM     33  N   UNL d   1      31.250  19.790 -22.576  0.00  0.00    -0.146 N 
ENDBRANCH  24  32
ENDBRANCH   1  24
TORSDOF 9
ENDMDL
