MODEL 1
REMARK VINA RESULT:      -5.6      0.000      0.000
REMARK  5 active torsions:
REMARK  status: ('A' for Active; 'I' for Inactive)
REMARK       I    between atoms: C_2  and  N_1 
REMARK    1  A    between atoms: C_4  and  N_1 
REMARK    2  A    between atoms: C_14  and  C_2 
REMARK       I    between atoms: C_3  and  N_6 
REMARK    3  A    between atoms: C_5  and  C_3 
REMARK    4  A    between atoms: N_8  and  C_4 
REMARK    5  A    between atoms: N_6  and  N_8 
ROOT
ATOM      1  C   UNL d   1      57.919   0.079  30.616  0.00  0.00     0.243 C 
ATOM      2  S   UNL d   1      58.411   0.678  30.877  0.00  0.00    -0.035 SA
ENDROOT
BRANCH   1   3
ATOM      3  N   UNL d   1      57.296  -0.187  31.091  0.00  0.00    -0.177 NA
ATOM      4  C   UNL d   1      57.211   0.106  31.857  0.00  0.00     0.281 C 
ATOM      5  O   UNL d   1      57.750   0.665  32.148  0.00  0.00    -0.265 OA
BRANCH   4   6
ATOM      6  C   UNL d   1      56.593  -0.159  32.327  0.00  0.00     0.058 A 
ATOM      7  C   UNL d   1      56.450  -0.963  32.406  0.00  0.00     0.005 A 
ATOM      8  C   UNL d   1      55.829  -1.231  32.878  0.00  0.00     0.000 A 
ATOM      9  C   UNL d   1      55.352  -0.685  33.271  0.00  0.00     0.000 A 
ATOM     10  C   UNL d   1      55.496   0.130  33.191  0.00  0.00     0.000 A 
ATOM     11  C   UNL d   1      56.118   0.391  32.718  0.00  0.00     0.005 A 
ENDBRANCH   4   6
ENDBRANCH   1   3
BRANCH   1  12
ATOM     12  N   UNL d   1      58.044  -0.261  29.875  0.00  0.00    -0.114 NA
BRANCH  12  13
ATOM     13  N   UNL d   1      58.657  -0.798  29.760  0.00  0.00    -0.103 NA
ATOM     14  C   UNL d   1      58.723  -1.212  29.050  0.00  0.00     0.303 C 
ATOM     15  O   UNL d   1      58.176  -1.089  28.455  0.00  0.00    -0.263 OA
BRANCH  14  16
ATOM     16  C   UNL d   1      59.339  -1.745  28.946  0.00  0.00     0.089 A 
ATOM     17  S   UNL d   1      60.094  -1.574  28.564  0.00  0.00    -0.082 SA
ATOM     18  C   UNL d   1      60.574  -2.302  28.579  0.00  0.00     0.036 A 
ATOM     19  C   UNL d   1      60.110  -2.915  28.970  0.00  0.00     0.008 A 
ATOM     20  C   UNL d   1      59.353  -2.578  29.197  0.00  0.00     0.012 A 
ENDBRANCH  14  16
ENDBRANCH  12  13
ENDBRANCH   1  12
TORSDOF 5
ENDMDL
MODEL 2
REMARK VINA RESULT:      -4.6      1.792      2.122
REMARK  5 active torsions:
REMARK  status: ('A' for Active; 'I' for Inactive)
REMARK       I    between atoms: C_2  and  N_1 
REMARK    1  A    between atoms: C_4  and  N_1 
REMARK    2  A    between atoms: C_14  and  C_2 
REMARK       I    between atoms: C_3  and  N_6 
REMARK    3  A    between atoms: C_5  and  C_3 
REMARK    4  A    between atoms: N_8  and  C_4 
REMARK    5  A    between atoms: N_6  and  N_8 
ROOT
ATOM      1  C   UNL d   1      57.014  -0.489  31.492  0.00  0.00     0.243 C 
ATOM      2  S   UNL d   1      57.103  -1.303  31.498  0.00  0.00    -0.035 SA
ENDROOT
BRANCH   1   3
ATOM      3  N   UNL d   1      56.713  -0.098  32.156  0.00  0.00    -0.177 NA
ATOM      4  C   UNL d   1      56.205  -0.494  32.671  0.00  0.00     0.281 C 
ATOM      5  O   UNL d   1      55.998  -1.283  32.521  0.00  0.00    -0.265 OA
BRANCH   4   6
ATOM      6  C   UNL d   1      55.906  -0.104  33.329  0.00  0.00     0.058 A 
ATOM      7  C   UNL d   1      55.099  -0.091  33.469  0.00  0.00     0.005 A 
ATOM      8  C   UNL d   1      54.797   0.300  34.129  0.00  0.00     0.000 A 
ATOM      9  C   UNL d   1      55.314   0.679  34.648  0.00  0.00     0.000 A 
ATOM     10  C   UNL d   1      56.133   0.667  34.507  0.00  0.00     0.000 A 
ATOM     11  C   UNL d   1      56.428   0.274  33.845  0.00  0.00     0.005 A 
ENDBRANCH   4   6
ENDBRANCH   1   3
BRANCH   1  12
ATOM     12  N   UNL d   1      57.226  -0.058  30.823  0.00  0.00    -0.114 NA
BRANCH  12  13
ATOM     13  N   UNL d   1      58.016   0.013  30.603  0.00  0.00    -0.103 NA
ATOM     14  C   UNL d   1      58.223   0.383  29.896  0.00  0.00     0.303 C 
ATOM     15  O   UNL d   1      57.639   0.682  29.408  0.00  0.00    -0.263 OA
BRANCH  14  16
ATOM     16  C   UNL d   1      59.014   0.448  29.687  0.00  0.00     0.089 A 
ATOM     17  S   UNL d   1      59.342   0.302  28.902  0.00  0.00    -0.082 SA
ATOM     18  C   UNL d   1      60.202   0.438  28.940  0.00  0.00     0.036 A 
ATOM     19  C   UNL d   1      60.397   0.666  29.748  0.00  0.00     0.008 A 
ATOM     20  C   UNL d   1      59.672   0.673  30.210  0.00  0.00     0.012 A 
ENDBRANCH  14  16
ENDBRANCH  12  13
ENDBRANCH   1  12
TORSDOF 5
ENDMDL
MODEL 3
REMARK VINA RESULT:      -3.2      1.718      5.166
REMARK  5 active torsions:
REMARK  status: ('A' for Active; 'I' for Inactive)
REMARK       I    between atoms: C_2  and  N_1 
REMARK    1  A    between atoms: C_4  and  N_1 
REMARK    2  A    between atoms: C_14  and  C_2 
REMARK       I    between atoms: C_3  and  N_6 
REMARK    3  A    between atoms: C_5  and  C_3 
REMARK    4  A    between atoms: N_8  and  C_4 
REMARK    5  A    between atoms: N_6  and  N_8 
ROOT
ATOM      1  C   UNL d   1      57.225  -0.117  31.828  0.00  0.00     0.243 C 
ATOM      2  S   UNL d   1      57.679   0.406  32.262  0.00  0.00    -0.035 SA
ENDROOT
BRANCH   1   3
ATOM      3  N   UNL d   1      57.449  -0.328  31.060  0.00  0.00    -0.177 NA
ATOM      4  C   UNL d   1      58.157  -0.045  30.747  0.00  0.00     0.281 C 
ATOM      5  O   UNL d   1      58.642   0.450  31.203  0.00  0.00    -0.265 OA
BRANCH   4   6
ATOM      6  C   UNL d   1      58.378  -0.254  29.985  0.00  0.00     0.058 A 
ATOM      7  C   UNL d   1      58.716  -0.987  29.840  0.00  0.00     0.005 A 
ATOM      8  C   UNL d   1      58.939  -1.200  29.076  0.00  0.00     0.000 A 
ATOM      9  C   UNL d   1      58.818  -0.670  28.455  0.00  0.00     0.000 A 
ATOM     10  C   UNL d   1      58.475   0.073  28.600  0.00  0.00     0.000 A 
ATOM     11  C   UNL d   1      58.255   0.279  29.368  0.00  0.00     0.005 A 
ENDBRANCH   4   6
ENDBRANCH   1   3
BRANCH   1  12
ATOM     12  N   UNL d   1      56.540  -0.437  32.158  0.00  0.00    -0.114 NA
BRANCH  12  13
ATOM     13  N   UNL d   1      56.130  -0.032  32.745  0.00  0.00    -0.103 NA
ATOM     14  C   UNL d   1      55.596  -0.428  33.233  0.00  0.00     0.303 C 
ATOM     15  O   UNL d   1      55.473  -1.230  33.133  0.00  0.00    -0.263 OA
BRANCH  14  16
ATOM     16  C   UNL d   1      55.192  -0.014  33.815  0.00  0.00     0.089 A 
ATOM     17  S   UNL d   1      55.508   0.205  34.588  0.00  0.00    -0.082 SA
ATOM     18  C   UNL d   1      54.887   0.637  35.020  0.00  0.00     0.036 A 
ATOM     19  C   UNL d   1      54.193   0.682  34.509  0.00  0.00     0.008 A 
ATOM     20  C   UNL d   1      54.376   0.284  33.769  0.00  0.00     0.012 A 
ENDBRANCH  14  16
ENDBRANCH  12  13
ENDBRANCH   1  12
TORSDOF 5
ENDMDL
