MODEL 1
REMARK VINA RESULT:      -7.2      0.000      0.000
REMARK  5 active torsions:
REMARK  status: ('A' for Active; 'I' for Inactive)
REMARK    1  A    between atoms: C_8  and  C_1 
REMARK    2  A    between atoms: C_10  and  C_2 
REMARK    3  A    between atoms: N_6  and  C_9 
REMARK    4  A    between atoms: O_19  and  C_8 
REMARK    5  A    between atoms: C_21  and  O_19 
ROOT
ATOM      1  C   UNL d   1     -49.447  13.501  22.469  0.00  0.00     0.099 A 
ATOM      2  C   UNL d   1     -48.827  14.040  22.552  0.00  0.00     0.093 A 
ATOM      3  C   UNL d   1     -50.234  13.763  22.432  0.00  0.00     0.093 A 
ATOM      4  N   UNL d   1     -49.002  14.854  22.598  0.00  0.00    -0.191 NA
ATOM      5  C   UNL d   1     -49.789  15.116  22.561  0.00  0.00     0.369 A 
ATOM      6  N   UNL d   1     -50.403  14.565  22.478  0.00  0.00    -0.191 NA
ATOM      7  O   UNL d   1     -49.957  15.922  22.607  0.00  0.00    -0.242 OA
ATOM      8  C   UNL d   1     -50.843  13.216  22.349  0.00  0.00     0.021 C 
ENDROOT
BRANCH   2   9
ATOM      9  C   UNL d   1     -48.044  13.784  22.590  0.00  0.00     0.018 A 
ATOM     10  C   UNL d   1     -47.660  13.570  21.896  0.00  0.00     0.003 A 
ATOM     11  C   UNL d   1     -46.881  13.314  21.923  0.00  0.00     0.024 A 
ATOM     12  C   UNL d   1     -46.477  13.270  22.649  0.00  0.00     0.127 A 
ATOM     13  C   UNL d   1     -46.869  13.486  23.348  0.00  0.00     0.024 A 
ATOM     14  C   UNL d   1     -47.652  13.743  23.315  0.00  0.00     0.003 A 
BRANCH  12  15
ATOM     15  N   UNL d   1     -45.694  13.013  22.682  0.00  0.00    -0.114 N 
ATOM     16  O   UNL d   1     -45.139  13.310  22.147  0.00  0.00    -0.532 OA
ATOM     17  O   UNL d   1     -45.464  12.459  23.249  0.00  0.00    -0.532 OA
ENDBRANCH  12  15
ENDBRANCH   2   9
BRANCH   1  18
ATOM     18  C   UNL d   1     -49.283  12.696  22.423  0.00  0.00     0.303 C 
ATOM     19  O   UNL d   1     -49.067  12.359  21.701  0.00  0.00    -0.259 OA
BRANCH  18  20
ATOM     20  O   UNL d   1     -49.334  12.221  23.097  0.00  0.00    -0.271 OA
BRANCH  20  21
ATOM     21  C   UNL d   1     -49.548  11.427  23.027  0.00  0.00     0.126 C 
ATOM     22  C   UNL d   1     -49.607  10.963  23.698  0.00  0.00     0.029 C 
ENDBRANCH  20  21
ENDBRANCH  18  20
ENDBRANCH   1  18
TORSDOF 5
ENDMDL
MODEL 2
REMARK VINA RESULT:      -6.5      0.777      1.102
REMARK  5 active torsions:
REMARK  status: ('A' for Active; 'I' for Inactive)
REMARK    1  A    between atoms: C_8  and  C_1 
REMARK    2  A    between atoms: C_10  and  C_2 
REMARK    3  A    between atoms: N_6  and  C_9 
REMARK    4  A    between atoms: O_19  and  C_8 
REMARK    5  A    between atoms: C_21  and  O_19 
ROOT
ATOM      1  C   UNL d   1     -48.727  13.449  22.442  0.00  0.00     0.099 A 
ATOM      2  C   UNL d   1     -47.994  13.808  22.564  0.00  0.00     0.093 A 
ATOM      3  C   UNL d   1     -49.408  13.907  22.319  0.00  0.00     0.093 A 
ATOM      4  N   UNL d   1     -47.946  14.641  22.562  0.00  0.00    -0.191 NA
ATOM      5  C   UNL d   1     -48.627  15.099  22.439  0.00  0.00     0.369 A 
ATOM      6  N   UNL d   1     -49.358  14.726  22.318  0.00  0.00    -0.191 NA
ATOM      7  O   UNL d   1     -48.575  15.922  22.438  0.00  0.00    -0.242 OA
ATOM      8  C   UNL d   1     -50.133  13.537  22.199  0.00  0.00     0.021 C 
ENDROOT
BRANCH   2   9
ATOM      9  C   UNL d   1     -47.315  13.356  22.686  0.00  0.00     0.018 A 
ATOM     10  C   UNL d   1     -47.062  13.215  23.454  0.00  0.00     0.003 A 
ATOM     11  C   UNL d   1     -46.387  12.767  23.586  0.00  0.00     0.024 A 
ATOM     12  C   UNL d   1     -45.957  12.455  22.945  0.00  0.00     0.127 A 
ATOM     13  C   UNL d   1     -46.216  12.600  22.171  0.00  0.00     0.024 A 
ATOM     14  C   UNL d   1     -46.895  13.051  22.043  0.00  0.00     0.003 A 
BRANCH  12  15
ATOM     15  N   UNL d   1     -45.278  12.004  23.072  0.00  0.00    -0.114 N 
ATOM     16  O   UNL d   1     -44.625  12.091  22.574  0.00  0.00    -0.532 OA
ATOM     17  O   UNL d   1     -45.251  11.466  23.698  0.00  0.00    -0.532 OA
ENDBRANCH  12  15
ENDBRANCH   2   9
BRANCH   1  18
ATOM     18  C   UNL d   1     -48.783  12.627  22.442  0.00  0.00     0.303 C 
ATOM     19  O   UNL d   1     -48.552  12.197  21.777  0.00  0.00    -0.259 OA
BRANCH  18  20
ATOM     20  O   UNL d   1     -49.070  12.230  23.107  0.00  0.00    -0.271 OA
BRANCH  20  21
ATOM     21  C   UNL d   1     -49.300  11.439  23.047  0.00  0.00     0.126 C 
ATOM     22  C   UNL d   1     -49.750  11.103  23.641  0.00  0.00     0.029 C 
ENDBRANCH  20  21
ENDBRANCH  18  20
ENDBRANCH   1  18
TORSDOF 5
ENDMDL
MODEL 3
REMARK VINA RESULT:      -5.6      1.416      2.466
REMARK  5 active torsions:
REMARK  status: ('A' for Active; 'I' for Inactive)
REMARK    1  A    between atoms: C_8  and  C_1 
REMARK    2  A    between atoms: C_10  and  C_2 
REMARK    3  A    between atoms: N_6  and  C_9 
REMARK    4  A    between atoms: O_19  and  C_8 
REMARK    5  A    between atoms: C_21  and  O_19 
ROOT
ATOM      1  C   UNL d   1     -49.607  13.610  22.314  0.00  0.00     0.099 A 
ATOM      2  C   UNL d   1     -49.327  12.836  22.253  0.00  0.00     0.093 A 
ATOM      3  C   UNL d   1     -50.344  13.820  21.996  0.00  0.00     0.093 A 
ATOM      4  N   UNL d   1     -49.796  12.265  21.867  0.00  0.00    -0.191 NA
ATOM      5  C   UNL d   1     -50.534  12.475  21.549  0.00  0.00     0.369 A 
ATOM      6  N   UNL d   1     -50.804  13.256  21.616  0.00  0.00    -0.191 NA
ATOM      7  O   UNL d   1     -50.995  11.907  21.167  0.00  0.00    -0.242 OA
ATOM      8  C   UNL d   1     -50.612  14.595  22.064  0.00  0.00     0.021 C 
ENDROOT
BRANCH   2   9
ATOM      9  C   UNL d   1     -48.595  12.622  22.568  0.00  0.00     0.018 A 
ATOM     10  C   UNL d   1     -48.545  12.417  23.361  0.00  0.00     0.003 A 
ATOM     11  C   UNL d   1     -47.821  12.204  23.683  0.00  0.00     0.024 A 
ATOM     12  C   UNL d   1     -47.137  12.194  23.210  0.00  0.00     0.127 A 
ATOM     13  C   UNL d   1     -47.191  12.402  22.409  0.00  0.00     0.024 A 
ATOM     14  C   UNL d   1     -47.921  12.616  22.090  0.00  0.00     0.003 A 
BRANCH  12  15
ATOM     15  N   UNL d   1     -46.406  11.980  23.529  0.00  0.00    -0.114 N 
ATOM     16  O   UNL d   1     -46.238  11.185  23.680  0.00  0.00    -0.532 OA
ATOM     17  O   UNL d   1     -45.843  12.560  23.698  0.00  0.00    -0.532 OA
ENDBRANCH  12  15
ENDBRANCH   2   9
BRANCH   1  18
ATOM     18  C   UNL d   1     -49.150  14.179  22.695  0.00  0.00     0.303 C 
ATOM     19  O   UNL d   1     -49.144  14.222  23.518  0.00  0.00    -0.259 OA
BRANCH  18  20
ATOM     20  O   UNL d   1     -48.695  14.710  22.255  0.00  0.00    -0.271 OA
BRANCH  20  21
ATOM     21  C   UNL d   1     -48.512  15.452  22.566  0.00  0.00     0.126 C 
ATOM     22  C   UNL d   1     -47.830  15.835  22.325  0.00  0.00     0.029 C 
ENDBRANCH  20  21
ENDBRANCH  18  20
ENDBRANCH   1  18
TORSDOF 5
ENDMDL
MODEL 4
REMARK VINA RESULT:      -4.9      1.487      3.970
REMARK  5 active torsions:
REMARK  status: ('A' for Active; 'I' for Inactive)
REMARK    1  A    between atoms: C_8  and  C_1 
REMARK    2  A    between atoms: C_10  and  C_2 
REMARK    3  A    between atoms: N_6  and  C_9 
REMARK    4  A    between atoms: O_19  and  C_8 
REMARK    5  A    between atoms: C_21  and  O_19 
ROOT
ATOM      1  C   UNL d   1     -47.825  12.883  23.085  0.00  0.00     0.099 A 
ATOM      2  C   UNL d   1     -48.606  12.696  22.895  0.00  0.00     0.093 A 
ATOM      3  C   UNL d   1     -47.280  12.285  23.272  0.00  0.00     0.093 A 
ATOM      4  N   UNL d   1     -48.841  11.896  22.893  0.00  0.00    -0.191 NA
ATOM      5  C   UNL d   1     -48.297  11.298  23.080  0.00  0.00     0.369 A 
ATOM      6  N   UNL d   1     -47.514  11.498  23.270  0.00  0.00    -0.191 NA
ATOM      7  O   UNL d   1     -48.534  10.509  23.076  0.00  0.00    -0.242 OA
ATOM      8  C   UNL d   1     -46.504  12.485  23.461  0.00  0.00     0.021 C 
ENDROOT
BRANCH   2   9
ATOM      9  C   UNL d   1     -49.151  13.286  22.708  0.00  0.00     0.018 A 
ATOM     10  C   UNL d   1     -49.570  13.649  23.314  0.00  0.00     0.003 A 
ATOM     11  C   UNL d   1     -50.114  14.237  23.138  0.00  0.00     0.024 A 
ATOM     12  C   UNL d   1     -50.244  14.469  22.349  0.00  0.00     0.127 A 
ATOM     13  C   UNL d   1     -49.819  14.100  21.740  0.00  0.00     0.024 A 
ATOM     14  C   UNL d   1     -49.273  13.509  21.922  0.00  0.00     0.003 A 
BRANCH  12  15
ATOM     15  N   UNL d   1     -50.790  15.060  22.168  0.00  0.00    -0.114 N 
ATOM     16  O   UNL d   1     -51.064  15.146  21.393  0.00  0.00    -0.532 OA
ATOM     17  O   UNL d   1     -51.064  15.566  22.760  0.00  0.00    -0.532 OA
ENDBRANCH  12  15
ENDBRANCH   2   9
BRANCH   1  18
ATOM     18  C   UNL d   1     -47.584  13.670  23.090  0.00  0.00     0.303 C 
ATOM     19  O   UNL d   1     -47.853  14.181  23.679  0.00  0.00    -0.259 OA
BRANCH  18  20
ATOM     20  O   UNL d   1     -47.074  13.953  22.505  0.00  0.00    -0.271 OA
BRANCH  20  21
ATOM     21  C   UNL d   1     -46.593  14.606  22.659  0.00  0.00     0.126 C 
ATOM     22  C   UNL d   1     -46.369  15.097  22.044  0.00  0.00     0.029 C 
ENDBRANCH  20  21
ENDBRANCH  18  20
ENDBRANCH   1  18
TORSDOF 5
ENDMDL
MODEL 5
REMARK VINA RESULT:      -4.5      1.620      2.836
REMARK  5 active torsions:
REMARK  status: ('A' for Active; 'I' for Inactive)
REMARK    1  A    between atoms: C_8  and  C_1 
REMARK    2  A    between atoms: C_10  and  C_2 
REMARK    3  A    between atoms: N_6  and  C_9 
REMARK    4  A    between atoms: O_19  and  C_8 
REMARK    5  A    between atoms: C_21  and  O_19 
ROOT
ATOM      1  C   UNL d   1     -48.897  12.189  23.255  0.00  0.00     0.099 A 
ATOM      2  C   UNL d   1     -48.109  12.414  23.155  0.00  0.00     0.093 A 
ATOM      3  C   UNL d   1     -49.089  11.420  23.502  0.00  0.00     0.093 A 
ATOM      4  N   UNL d   1     -47.507  11.857  23.304  0.00  0.00    -0.191 NA
ATOM      5  C   UNL d   1     -47.699  11.088  23.551  0.00  0.00     0.369 A 
ATOM      6  N   UNL d   1     -48.494  10.873  23.649  0.00  0.00    -0.191 NA
ATOM      7  O   UNL d   1     -47.100  10.541  23.698  0.00  0.00    -0.242 OA
ATOM      8  C   UNL d   1     -49.878  11.207  23.599  0.00  0.00     0.021 C 
ENDROOT
BRANCH   2   9
ATOM      9  C   UNL d   1     -47.913  13.177  22.910  0.00  0.00     0.018 A 
ATOM     10  C   UNL d   1     -47.654  13.295  22.140  0.00  0.00     0.003 A 
ATOM     11  C   UNL d   1     -47.457  14.050  21.887  0.00  0.00     0.024 A 
ATOM     12  C   UNL d   1     -47.518  14.698  22.406  0.00  0.00     0.127 A 
ATOM     13  C   UNL d   1     -47.781  14.574  23.184  0.00  0.00     0.024 A 
ATOM     14  C   UNL d   1     -47.978  13.813  23.433  0.00  0.00     0.003 A 
BRANCH  12  15
ATOM     15  N   UNL d   1     -47.322  15.459  22.157  0.00  0.00    -0.114 N 
ATOM     16  O   UNL d   1     -46.719  15.876  22.538  0.00  0.00    -0.532 OA
ATOM     17  O   UNL d   1     -47.727  15.805  21.526  0.00  0.00    -0.532 OA
ENDBRANCH  12  15
ENDBRANCH   2   9
BRANCH   1  18
ATOM     18  C   UNL d   1     -49.498  12.732  23.110  0.00  0.00     0.303 C 
ATOM     19  O   UNL d   1     -49.671  13.315  23.667  0.00  0.00    -0.259 OA
BRANCH  18  20
ATOM     20  O   UNL d   1     -49.929  12.698  22.406  0.00  0.00    -0.271 OA
BRANCH  20  21
ATOM     21  C   UNL d   1     -50.688  13.020  22.372  0.00  0.00     0.126 C 
ATOM     22  C   UNL d   1     -51.064  13.093  21.649  0.00  0.00     0.029 C 
ENDBRANCH  20  21
ENDBRANCH  18  20
ENDBRANCH   1  18
TORSDOF 5
ENDMDL
