MODEL 1
REMARK VINA RESULT:      39.1      0.000      0.000
REMARK  1 active torsions:
REMARK  status: ('A' for Active; 'I' for Inactive)
REMARK    1  A    between atoms: C_9  and  C_3 
ROOT
ATOM      1  C   UNL d   1      58.879  49.672  50.481  0.00  0.00     0.035 A 
ATOM      2  N   UNL d   1      58.361  49.653  51.882  0.00  0.00    -0.239 NA
ATOM      3  C   UNL d   1      58.960  49.666  51.288  0.00  0.00     0.083 A 
ATOM      4  N   UNL d   1      57.373  49.652  50.295  0.00  0.00    -0.207 NA
ATOM      5  C   UNL d   1      58.168  49.665  50.033  0.00  0.00     0.086 A 
ATOM      6  C   UNL d   1      57.097  49.642  51.072  0.00  0.00     0.298 A 
ATOM      7  C   UNL d   1      59.590  49.684  50.114  0.00  0.00     0.003 A 
ATOM      8  C   UNL d   1      57.550  49.643  51.782  0.00  0.00     0.161 A 
ATOM      9  C   UNL d   1      58.202  49.672  49.211  0.00  0.00     0.019 A 
ATOM     10  O   UNL d   1      56.260  49.630  51.161  0.00  0.00    -0.263 OA
ATOM     11  C   UNL d   1      59.628  49.691  49.278  0.00  0.00     0.000 A 
ATOM     12  C   UNL d   1      58.925  49.685  48.830  0.00  0.00     0.002 A 
ATOM     13  C   UNL d   1      60.402  49.705  48.911  0.00  0.00     0.000 C 
ENDROOT
BRANCH   3  14
ATOM     14  C   UNL d   1      59.726  49.674  51.563  0.00  0.00     0.018 A 
ATOM     15  C   UNL d   1      59.886  49.688  52.364  0.00  0.00     0.002 A 
ATOM     16  C   UNL d   1      60.686  49.696  52.643  0.00  0.00     0.000 A 
ATOM     17  C   UNL d   1      61.296  49.691  52.087  0.00  0.00     0.000 A 
ATOM     18  C   UNL d   1      61.128  49.678  51.285  0.00  0.00     0.000 A 
ATOM     19  C   UNL d   1      60.334  49.669  51.021  0.00  0.00     0.002 A 
ENDBRANCH   3  14
TORSDOF 1
ENDMDL
