MODEL 1
REMARK VINA RESULT:       6.8      0.000      0.000
REMARK  4 active torsions:
REMARK  status: ('A' for Active; 'I' for Inactive)
REMARK    1  A    between atoms: S_2  and  N_1 
REMARK    2  A    between atoms: C_7  and  S_2 
REMARK    3  A    between atoms: C_10  and  C_3 
REMARK    4  A    between atoms: C_14  and  C_10 
ROOT
ATOM      1  N   UNL d   1     -41.839-121.797 -51.727  0.00  0.00    -0.214 N 
ATOM      2  C   UNL d   1     -41.732-122.141 -52.478  0.00  0.00     0.157 A 
ATOM      3  N   UNL d   1     -41.449-121.547 -52.980  0.00  0.00    -0.226 NA
ATOM      4  C   UNL d   1     -41.622-121.001 -51.776  0.00  0.00     0.094 A 
ATOM      5  C   UNL d   1     -41.380-120.838 -52.547  0.00  0.00     0.100 A 
ATOM      6  C   UNL d   1     -41.615-120.395 -51.207  0.00  0.00     0.020 A 
ATOM      7  C   UNL d   1     -41.127-120.073 -52.763  0.00  0.00     0.021 A 
ATOM      8  C   UNL d   1     -41.363-119.628 -51.417  0.00  0.00     0.002 A 
ATOM      9  C   UNL d   1     -41.123-119.487 -52.200  0.00  0.00     0.002 A 
ENDROOT
BRANCH   1  10
ATOM     10  S   UNL d   1     -42.116-122.202 -51.064  0.00  0.00     0.272 S 
ATOM     11  O   UNL d   1     -41.329-122.309 -50.831  0.00  0.00    -0.200 OA
ATOM     12  O   UNL d   1     -42.897-122.094 -51.299  0.00  0.00    -0.200 OA
BRANCH  10  13
ATOM     13  C   UNL d   1     -42.380-122.608 -50.399  0.00  0.00     0.104 A 
ATOM     14  C   UNL d   1     -43.107-122.400 -50.066  0.00  0.00     0.013 A 
ATOM     15  C   UNL d   1     -43.375-122.806 -49.399  0.00  0.00     0.007 A 
ATOM     16  C   UNL d   1     -42.920-123.398 -49.085  0.00  0.00     0.035 A 
ATOM     17  C   UNL d   1     -42.203-123.605 -49.410  0.00  0.00     0.007 A 
ATOM     18 BR   UNL d   1     -43.194-123.814 -48.401  0.00  0.00    -0.049 Br
ATOM     19  C   UNL d   1     -41.936-123.203 -50.074  0.00  0.00     0.013 A 
ENDBRANCH  10  13
ENDBRANCH   1  10
BRANCH   2  20
ATOM     20  C   UNL d   1     -41.886-122.944 -52.681  0.00  0.00     0.038 C 
BRANCH  20  21
ATOM     21  C   UNL d   1     -41.855-123.190 -53.468  0.00  0.00     0.003 A 
ATOM     22  C   UNL d   1     -41.156-123.529 -53.773  0.00  0.00     0.000 A 
ATOM     23  C   UNL d   1     -41.124-123.773 -54.555  0.00  0.00     0.000 A 
ATOM     24  C   UNL d   1     -41.778-123.688 -55.048  0.00  0.00     0.000 A 
ATOM     25  C   UNL d   1     -42.472-123.351 -54.745  0.00  0.00     0.000 A 
ATOM     26  C   UNL d   1     -42.510-123.104 -53.960  0.00  0.00     0.000 A 
ENDBRANCH  20  21
ENDBRANCH   2  20
TORSDOF 4
ENDMDL
