MODEL 1
REMARK VINA RESULT:      25.8      0.000      0.000
REMARK  5 active torsions:
REMARK  status: ('A' for Active; 'I' for Inactive)
REMARK    1  A    between atoms: C_4  and  S_1 
REMARK    2  A    between atoms: N_6  and  S_1 
REMARK    3  A    between atoms: C_3  and  C_2 
REMARK    4  A    between atoms: C_10  and  N_6 
REMARK    5  A    between atoms: C_17  and  C_10 
ROOT
ATOM      1  C   UNL d   1     -58.308 -99.005 -44.378  0.00  0.00     0.083 A 
ATOM      2  C   UNL d   1     -56.875 -98.931 -44.330  0.00  0.00     0.105 A 
ATOM      3  C   UNL d   1     -57.599 -99.039 -43.945  0.00  0.00     0.018 A 
ATOM      4  C   UNL d   1     -58.288 -98.864 -45.192  0.00  0.00     0.062 A 
ATOM      5  C   UNL d   1     -56.858 -98.790 -45.139  0.00  0.00     0.014 A 
ATOM      6  C   UNL d   1     -57.567 -98.757 -45.572  0.00  0.00     0.012 A 
ATOM      7 CL   UNL d   1     -58.991 -98.831 -45.621  0.00  0.00    -0.082 Cl
ENDROOT
BRANCH   2   8
ATOM      8  S   UNL d   1     -56.169 -98.962 -43.908  0.00  0.00     0.285 S 
ATOM      9  O   UNL d   1     -55.466 -98.996 -43.496  0.00  0.00    -0.198 OA
ATOM     10  O   UNL d   1     -56.559 -98.755 -43.223  0.00  0.00    -0.198 OA
BRANCH   8  11
ATOM     11  N   UNL d   1     -55.770 -99.172 -44.598  0.00  0.00    -0.155 NA
BRANCH  11  12
ATOM     12  C   UNL d   1     -55.008 -99.497 -44.555  0.00  0.00     0.137 C 
BRANCH  12  13
ATOM     13  C   UNL d   1     -54.908-100.313 -44.605  0.00  0.00     0.120 A 
ATOM     14  O   UNL d   1     -54.802-100.762 -45.294  0.00  0.00    -0.304 OA
ATOM     15  C   UNL d   1     -54.726-101.547 -45.076  0.00  0.00     0.123 A 
ATOM     16  C   UNL d   1     -54.782-101.599 -44.259  0.00  0.00     0.029 A 
ATOM     17  C   UNL d   1     -54.895-100.837 -43.963  0.00  0.00     0.028 A 
ENDBRANCH  12  13
ENDBRANCH  11  12
ENDBRANCH   8  11
ENDBRANCH   2   8
BRANCH   1  18
ATOM     18  C   UNL d   1     -59.028 -99.112 -43.998  0.00  0.00     0.420 C 
ATOM     19  F   UNL d   1     -59.789 -99.357 -44.330  0.00  0.00    -0.166 F 
ATOM     20  F   UNL d   1     -59.695 -99.212 -43.648  0.00  0.00    -0.166 F 
ATOM     21  F   UNL d   1     -59.226 -99.012 -43.167  0.00  0.00    -0.166 F 
ENDBRANCH   1  18
TORSDOF 5
ENDMDL
MODEL 2
REMARK VINA RESULT:      27.2      2.463      3.873
REMARK  5 active torsions:
REMARK  status: ('A' for Active; 'I' for Inactive)
REMARK    1  A    between atoms: C_4  and  S_1 
REMARK    2  A    between atoms: N_6  and  S_1 
REMARK    3  A    between atoms: C_3  and  C_2 
REMARK    4  A    between atoms: C_10  and  N_6 
REMARK    5  A    between atoms: C_17  and  C_10 
ROOT
ATOM      1  C   UNL d   1     -56.029-100.320 -44.386  0.00  0.00     0.083 A 
ATOM      2  C   UNL d   1     -56.945 -99.336 -44.887  0.00  0.00     0.105 A 
ATOM      3  C   UNL d   1     -56.778-100.119 -44.687  0.00  0.00     0.018 A 
ATOM      4  C   UNL d   1     -55.454 -99.735 -44.289  0.00  0.00     0.062 A 
ATOM      5  C   UNL d   1     -56.372 -98.755 -44.789  0.00  0.00     0.014 A 
ATOM      6  C   UNL d   1     -55.622 -98.956 -44.489  0.00  0.00     0.012 A 
ATOM      7 CL   UNL d   1     -54.712 -99.934 -43.991  0.00  0.00    -0.082 Cl
ENDROOT
BRANCH   2   8
ATOM      8  S   UNL d   1     -57.685 -99.129 -45.185  0.00  0.00     0.285 S 
ATOM      9  O   UNL d   1     -58.420 -98.926 -45.473  0.00  0.00    -0.198 OA
ATOM     10  O   UNL d   1     -57.373 -99.059 -45.935  0.00  0.00    -0.198 OA
BRANCH   8  11
ATOM     11  N   UNL d   1     -58.005 -99.199 -44.429  0.00  0.00    -0.155 NA
BRANCH  11  12
ATOM     12  C   UNL d   1     -58.706 -98.799 -44.236  0.00  0.00     0.137 C 
BRANCH  12  13
ATOM     13  C   UNL d   1     -59.001 -98.838 -43.468  0.00  0.00     0.120 A 
ATOM     14  O   UNL d   1     -58.567 -98.965 -42.772  0.00  0.00    -0.304 OA
ATOM     15  C   UNL d   1     -59.091 -98.961 -42.143  0.00  0.00     0.123 A 
ATOM     16  C   UNL d   1     -59.847 -98.832 -42.432  0.00  0.00     0.029 A 
ATOM     17  C   UNL d   1     -59.797 -98.756 -43.252  0.00  0.00     0.028 A 
ENDBRANCH  12  13
ENDBRANCH  11  12
ENDBRANCH   8  11
ENDBRANCH   2   8
BRANCH   1  18
ATOM     18  C   UNL d   1     -55.860-101.099 -44.186  0.00  0.00     0.420 C 
ATOM     19  F   UNL d   1     -55.975-101.505 -43.432  0.00  0.00    -0.166 F 
ATOM     20  F   UNL d   1     -55.705-101.819 -44.000  0.00  0.00    -0.166 F 
ATOM     21  F   UNL d   1     -55.524-101.725 -44.670  0.00  0.00    -0.166 F 
ENDBRANCH   1  18
TORSDOF 5
ENDMDL
