MODEL 1
REMARK VINA RESULT:      45.3      0.000      0.000
REMARK  4 active torsions:
REMARK  status: ('A' for Active; 'I' for Inactive)
REMARK    1  A    between atoms: C_9  and  C_2 
REMARK    2  A    between atoms: S_8  and  C_4 
REMARK       I    between atoms: N_6  and  C_7 
REMARK    3  A    between atoms: C_7  and  C_10 
REMARK    4  A    between atoms: C_10  and  S_8 
ROOT
ATOM      1  N   UNL d   1      58.963  49.669  50.188  0.00  0.00    -0.212 NA
ATOM      2  C   UNL d   1      58.216  49.689  50.516  0.00  0.00     0.171 A 
ATOM      3  N   UNL d   1      58.294  49.706  51.337  0.00  0.00    -0.188 NA
ATOM      4  C   UNL d   1      59.517  49.674  50.797  0.00  0.00     0.160 A 
ATOM      5  S   UNL d   1      59.100  49.697  51.510  0.00  0.00     0.041 SA
ENDROOT
BRANCH   4   6
ATOM      6  S   UNL d   1      60.338  49.658  50.718  0.00  0.00    -0.054 SA
BRANCH   6   7
ATOM      7  C   UNL d   1      60.712  48.978  50.462  0.00  0.00     0.098 C 
BRANCH   7   8
ATOM      8  C   UNL d   1      60.943  48.394  51.002  0.00  0.00     0.272 C 
ATOM      9  N   UNL d   1      61.222  47.661  50.747  0.00  0.00    -0.267 N 
ATOM     10  C   UNL d   1      61.446  47.098  51.299  0.00  0.00     0.110 A 
ATOM     11  C   UNL d   1      61.273  47.506  49.939  0.00  0.00     0.110 A 
ATOM     12  C   UNL d   1      61.727  46.361  51.037  0.00  0.00     0.142 A 
ATOM     13  O   UNL d   1      61.782  46.195  50.235  0.00  0.00    -0.300 OA
ATOM     14  C   UNL d   1      61.555  46.769  49.677  0.00  0.00     0.142 A 
ATOM     15  O   UNL d   1      60.890  48.553  51.818  0.00  0.00    -0.266 OA
ENDBRANCH   7   8
ENDBRANCH   6   7
ENDBRANCH   4   6
BRANCH   2  16
ATOM     16  C   UNL d   1      57.500  49.692  50.106  0.00  0.00     0.036 A 
ATOM     17  C   UNL d   1      56.797  49.705  50.515  0.00  0.00     0.003 A 
ATOM     18  C   UNL d   1      56.081  49.708  50.123  0.00  0.00     0.000 A 
ATOM     19  C   UNL d   1      56.071  49.697  49.295  0.00  0.00     0.000 A 
ATOM     20  C   UNL d   1      56.775  49.684  48.875  0.00  0.00     0.000 A 
ATOM     21  C   UNL d   1      57.483  49.681  49.275  0.00  0.00     0.003 A 
ENDBRANCH   2  16
TORSDOF 4
ENDMDL
MODEL 2
REMARK VINA RESULT:      46.3      1.487      4.600
REMARK  4 active torsions:
REMARK  status: ('A' for Active; 'I' for Inactive)
REMARK    1  A    between atoms: C_9  and  C_2 
REMARK    2  A    between atoms: S_8  and  C_4 
REMARK       I    between atoms: N_6  and  C_7 
REMARK    3  A    between atoms: C_7  and  C_10 
REMARK    4  A    between atoms: C_10  and  S_8 
ROOT
ATOM      1  N   UNL d   1      60.428  48.146  50.769  0.00  0.00    -0.212 NA
ATOM      2  C   UNL d   1      61.145  47.978  50.419  0.00  0.00     0.171 A 
ATOM      3  N   UNL d   1      61.555  48.687  50.316  0.00  0.00    -0.188 NA
ATOM      4  C   UNL d   1      60.377  48.959  50.889  0.00  0.00     0.160 A 
ATOM      5  S   UNL d   1      61.079  49.293  50.607  0.00  0.00     0.041 SA
ENDROOT
BRANCH   4   6
ATOM      6  S   UNL d   1      59.748  49.371  51.227  0.00  0.00    -0.054 SA
BRANCH   6   7
ATOM      7  C   UNL d   1      59.134  49.636  50.758  0.00  0.00     0.098 C 
BRANCH   7   8
ATOM      8  C   UNL d   1      58.360  49.667  51.052  0.00  0.00     0.272 C 
ATOM      9  N   UNL d   1      57.709  49.657  50.545  0.00  0.00    -0.267 N 
ATOM     10  C   UNL d   1      56.952  49.688  50.858  0.00  0.00     0.110 A 
ATOM     11  C   UNL d   1      57.830  49.616  49.730  0.00  0.00     0.110 A 
ATOM     12  C   UNL d   1      56.299  49.677  50.343  0.00  0.00     0.142 A 
ATOM     13  O   UNL d   1      56.407  49.637  49.530  0.00  0.00    -0.300 OA
ATOM     14  C   UNL d   1      57.177  49.606  49.216  0.00  0.00     0.142 A 
ATOM     15  O   UNL d   1      58.241  49.708  51.874  0.00  0.00    -0.266 OA
ENDBRANCH   7   8
ENDBRANCH   6   7
ENDBRANCH   4   6
BRANCH   2  16
ATOM     16  C   UNL d   1      61.424  47.232  50.202  0.00  0.00     0.036 A 
ATOM     17  C   UNL d   1      62.039  47.165  49.676  0.00  0.00     0.003 A 
ATOM     18  C   UNL d   1      62.325  46.433  49.452  0.00  0.00     0.000 A 
ATOM     19  C   UNL d   1      61.981  45.749  49.767  0.00  0.00     0.000 A 
ATOM     20  C   UNL d   1      61.360  45.808  50.299  0.00  0.00     0.000 A 
ATOM     21  C   UNL d   1      61.083  46.541  50.515  0.00  0.00     0.003 A 
ENDBRANCH   2  16
TORSDOF 4
ENDMDL
MODEL 3
REMARK VINA RESULT:      46.7      1.467      2.112
REMARK  4 active torsions:
REMARK  status: ('A' for Active; 'I' for Inactive)
REMARK    1  A    between atoms: C_9  and  C_2 
REMARK    2  A    between atoms: S_8  and  C_4 
REMARK       I    between atoms: N_6  and  C_7 
REMARK    3  A    between atoms: C_7  and  C_10 
REMARK    4  A    between atoms: C_10  and  S_8 
ROOT
ATOM      1  N   UNL d   1      59.069  49.598  50.267  0.00  0.00    -0.212 NA
ATOM      2  C   UNL d   1      58.451  49.637  49.736  0.00  0.00     0.171 A 
ATOM      3  N   UNL d   1      58.767  49.705  48.977  0.00  0.00    -0.188 NA
ATOM      4  C   UNL d   1      59.778  49.640  49.850  0.00  0.00     0.160 A 
ATOM      5  S   UNL d   1      59.588  49.706  49.048  0.00  0.00     0.041 SA
ENDROOT
BRANCH   4   6
ATOM      6  S   UNL d   1      60.539  49.620  50.166  0.00  0.00    -0.054 SA
BRANCH   6   7
ATOM      7  C   UNL d   1      60.647  49.507  50.968  0.00  0.00     0.098 C 
BRANCH   7   8
ATOM      8  C   UNL d   1      61.302  49.088  51.252  0.00  0.00     0.272 C 
ATOM      9  N   UNL d   1      61.543  49.151  52.038  0.00  0.00    -0.267 N 
ATOM     10  C   UNL d   1      62.195  48.727  52.298  0.00  0.00     0.110 A 
ATOM     11  C   UNL d   1      61.124  49.641  52.552  0.00  0.00     0.110 A 
ATOM     12  C   UNL d   1      62.434  48.794  53.091  0.00  0.00     0.142 A 
ATOM     13  O   UNL d   1      62.024  49.278  53.612  0.00  0.00    -0.300 OA
ATOM     14  C   UNL d   1      61.363  49.708  53.345  0.00  0.00     0.142 A 
ATOM     15  O   UNL d   1      61.723  48.594  50.731  0.00  0.00    -0.266 OA
ENDBRANCH   7   8
ENDBRANCH   6   7
ENDBRANCH   4   6
BRANCH   2  16
ATOM     16  C   UNL d   1      57.646  49.614  49.916  0.00  0.00     0.036 A 
ATOM     17  C   UNL d   1      57.399  49.705  50.685  0.00  0.00     0.003 A 
ATOM     18  C   UNL d   1      56.606  49.684  50.879  0.00  0.00     0.000 A 
ATOM     19  C   UNL d   1      56.045  49.569  50.281  0.00  0.00     0.000 A 
ATOM     20  C   UNL d   1      56.285  49.477  49.502  0.00  0.00     0.000 A 
ATOM     21  C   UNL d   1      57.078  49.499  49.321  0.00  0.00     0.003 A 
ENDBRANCH   2  16
TORSDOF 4
ENDMDL
