MODEL 1
REMARK VINA RESULT:      -8.3      0.000      0.000
REMARK  5 active torsions:
REMARK  status: ('A' for Active; 'I' for Inactive)
REMARK    1  A    between atoms: C_7  and  C_1 
REMARK    2  A    between atoms: C_8  and  C_2 
REMARK    3  A    between atoms: O_22  and  C_8 
REMARK    4  A    between atoms: C_24  and  C_14 
REMARK    5  A    between atoms: C_27  and  O_22 
ROOT
ATOM      1  C   UNL d   1      51.841  33.264  53.060  0.00  0.00     0.067 A 
ATOM      2  C   UNL d   1      52.557  33.656  53.182  0.00  0.00     0.166 A 
ATOM      3  C   UNL d   1      51.823  32.435  53.044  0.00  0.00     0.200 A 
ATOM      4  C   UNL d   1      52.517  32.003  53.150  0.00  0.00     0.062 A 
ATOM      5  O   UNL d   1      53.254  33.218  53.288  0.00  0.00    -0.301 OA
ATOM      6  C   UNL d   1      53.232  32.395  53.272  0.00  0.00     0.106 A 
ATOM      7  C   UNL d   1      52.495  31.181  53.133  0.00  0.00     0.008 A 
ATOM      8  C   UNL d   1      53.926  31.965  53.378  0.00  0.00     0.067 A 
ATOM      9  C   UNL d   1      53.903  31.141  53.362  0.00  0.00     0.198 A 
ATOM     10  C   UNL d   1      53.188  30.749  53.239  0.00  0.00     0.039 A 
ATOM     11  O   UNL d   1      51.108  32.043  52.922  0.00  0.00    -0.286 OA
ATOM     12  O   UNL d   1      54.603  30.699  53.468  0.00  0.00    -0.286 OA
ENDROOT
BRANCH   1  13
ATOM     13  C   UNL d   1      51.148  33.695  52.954  0.00  0.00     0.007 A 
ATOM     14  C   UNL d   1      50.854  33.828  52.192  0.00  0.00     0.027 A 
ATOM     15  C   UNL d   1      50.162  34.259  52.087  0.00  0.00     0.123 A 
ATOM     16  O   UNL d   1      49.872  34.388  51.325  0.00  0.00    -0.301 OA
ATOM     17  C   UNL d   1      49.759  34.560  52.741  0.00  0.00     0.123 A 
ATOM     18  C   UNL d   1      49.165  34.829  51.222  0.00  0.00     0.149 A 
ATOM     19  C   UNL d   1      48.756  35.134  51.871  0.00  0.00     0.149 A 
ATOM     20  O   UNL d   1      49.053  35.000  52.635  0.00  0.00    -0.301 OA
ATOM     21  C   UNL d   1      50.052  34.428  53.503  0.00  0.00     0.027 A 
ATOM     22  C   UNL d   1      50.745  33.997  53.608  0.00  0.00     0.002 A 
ENDBRANCH   1  13
BRANCH   2  23
ATOM     23  C   UNL d   1      52.577  34.483  53.198  0.00  0.00     0.323 C 
ATOM     24  O   UNL d   1      52.556  34.909  52.492  0.00  0.00    -0.257 OA
BRANCH  23  25
ATOM     25  O   UNL d   1      52.619  34.879  53.919  0.00  0.00    -0.270 OA
BRANCH  25  26
ATOM     26  C   UNL d   1      53.137  35.513  54.009  0.00  0.00     0.126 C 
ATOM     27  C   UNL d   1      53.199  35.891  54.738  0.00  0.00     0.029 C 
ENDBRANCH  25  26
ENDBRANCH  23  25
ENDBRANCH   2  23
BRANCH  10  28
ATOM     28  C   UNL d   1      53.168  29.923  53.223  0.00  0.00     0.003 C 
ATOM     29  C   UNL d   1      52.806  29.501  53.833  0.00  0.00     0.000 C 
ENDBRANCH  10  28
TORSDOF 5
ENDMDL
MODEL 2
REMARK VINA RESULT:      -8.2      1.218      4.501
REMARK  5 active torsions:
REMARK  status: ('A' for Active; 'I' for Inactive)
REMARK    1  A    between atoms: C_7  and  C_1 
REMARK    2  A    between atoms: C_8  and  C_2 
REMARK    3  A    between atoms: O_22  and  C_8 
REMARK    4  A    between atoms: C_24  and  C_14 
REMARK    5  A    between atoms: C_27  and  O_22 
ROOT
ATOM      1  C   UNL d   1      52.775  32.264  53.465  0.00  0.00     0.067 A 
ATOM      2  C   UNL d   1      53.289  32.883  53.648  0.00  0.00     0.166 A 
ATOM      3  C   UNL d   1      51.998  32.431  53.228  0.00  0.00     0.200 A 
ATOM      4  C   UNL d   1      51.739  33.211  53.175  0.00  0.00     0.062 A 
ATOM      5  O   UNL d   1      53.026  33.668  53.594  0.00  0.00    -0.301 OA
ATOM      6  C   UNL d   1      52.254  33.830  53.358  0.00  0.00     0.106 A 
ATOM      7  C   UNL d   1      50.968  33.372  52.939  0.00  0.00     0.008 A 
ATOM      8  C   UNL d   1      51.996  34.610  53.305  0.00  0.00     0.067 A 
ATOM      9  C   UNL d   1      51.224  34.771  53.069  0.00  0.00     0.198 A 
ATOM     10  C   UNL d   1      50.709  34.152  52.886  0.00  0.00     0.039 A 
ATOM     11  O   UNL d   1      51.484  31.812  53.045  0.00  0.00    -0.286 OA
ATOM     12  O   UNL d   1      50.957  35.560  53.013  0.00  0.00    -0.286 OA
ENDROOT
BRANCH   1  13
ATOM     13  C   UNL d   1      53.034  31.484  53.518  0.00  0.00     0.007 A 
ATOM     14  C   UNL d   1      52.916  31.055  54.215  0.00  0.00     0.027 A 
ATOM     15  C   UNL d   1      53.174  30.276  54.268  0.00  0.00     0.123 A 
ATOM     16  O   UNL d   1      53.054  29.851  54.965  0.00  0.00    -0.301 OA
ATOM     17  C   UNL d   1      53.552  29.921  53.625  0.00  0.00     0.123 A 
ATOM     18  C   UNL d   1      53.320  29.056  55.015  0.00  0.00     0.149 A 
ATOM     19  C   UNL d   1      53.698  28.694  54.377  0.00  0.00     0.149 A 
ATOM     20  O   UNL d   1      53.815  29.127  53.678  0.00  0.00    -0.301 OA
ATOM     21  C   UNL d   1      53.670  30.350  52.928  0.00  0.00     0.027 A 
ATOM     22  C   UNL d   1      53.411  31.130  52.876  0.00  0.00     0.002 A 
ENDBRANCH   1  13
BRANCH   2  23
ATOM     23  C   UNL d   1      54.065  32.719  53.885  0.00  0.00     0.323 C 
ATOM     24  O   UNL d   1      54.614  32.444  53.334  0.00  0.00    -0.257 OA
BRANCH  23  25
ATOM     25  O   UNL d   1      54.288  32.830  54.671  0.00  0.00    -0.270 OA
BRANCH  25  26
ATOM     26  C   UNL d   1      54.968  33.258  54.846  0.00  0.00     0.126 C 
ATOM     27  C   UNL d   1      55.077  33.560  55.605  0.00  0.00     0.029 C 
ENDBRANCH  25  26
ENDBRANCH  23  25
ENDBRANCH   2  23
BRANCH  10  28
ATOM     28  C   UNL d   1      49.934  34.317  52.649  0.00  0.00     0.003 C 
ATOM     29  C   UNL d   1      49.694  34.170  51.874  0.00  0.00     0.000 C 
ENDBRANCH  10  28
TORSDOF 5
ENDMDL
MODEL 3
REMARK VINA RESULT:      -8.1      1.132      2.999
REMARK  5 active torsions:
REMARK  status: ('A' for Active; 'I' for Inactive)
REMARK    1  A    between atoms: C_7  and  C_1 
REMARK    2  A    between atoms: C_8  and  C_2 
REMARK    3  A    between atoms: O_22  and  C_8 
REMARK    4  A    between atoms: C_24  and  C_14 
REMARK    5  A    between atoms: C_27  and  O_22 
ROOT
ATOM      1  C   UNL d   1      52.889  32.840  53.435  0.00  0.00     0.067 A 
ATOM      2  C   UNL d   1      52.264  32.692  52.917  0.00  0.00     0.166 A 
ATOM      3  C   UNL d   1      53.309  32.205  53.765  0.00  0.00     0.200 A 
ATOM      4  C   UNL d   1      53.104  31.430  53.578  0.00  0.00     0.062 A 
ATOM      5  O   UNL d   1      52.059  31.910  52.730  0.00  0.00    -0.301 OA
ATOM      6  C   UNL d   1      52.478  31.283  53.060  0.00  0.00     0.106 A 
ATOM      7  C   UNL d   1      53.522  30.804  53.908  0.00  0.00     0.008 A 
ATOM      8  C   UNL d   1      52.272  30.508  52.872  0.00  0.00     0.067 A 
ATOM      9  C   UNL d   1      52.692  29.881  53.203  0.00  0.00     0.198 A 
ATOM     10  C   UNL d   1      53.317  30.029  53.720  0.00  0.00     0.039 A 
ATOM     11  O   UNL d   1      53.934  32.353  54.283  0.00  0.00    -0.286 OA
ATOM     12  O   UNL d   1      52.487  29.094  53.016  0.00  0.00    -0.286 OA
ENDROOT
BRANCH   1  13
ATOM     13  C   UNL d   1      53.094  33.615  53.622  0.00  0.00     0.007 A 
ATOM     14  C   UNL d   1      52.822  33.958  54.323  0.00  0.00     0.027 A 
ATOM     15  C   UNL d   1      53.027  34.733  54.510  0.00  0.00     0.123 A 
ATOM     16  O   UNL d   1      52.753  35.071  55.211  0.00  0.00    -0.301 OA
ATOM     17  C   UNL d   1      53.506  35.168  53.998  0.00  0.00     0.123 A 
ATOM     18  C   UNL d   1      52.965  35.862  55.398  0.00  0.00     0.149 A 
ATOM     19  C   UNL d   1      53.443  36.304  54.891  0.00  0.00     0.149 A 
ATOM     20  O   UNL d   1      53.716  35.957  54.187  0.00  0.00    -0.301 OA
ATOM     21  C   UNL d   1      53.779  34.825  53.296  0.00  0.00     0.027 A 
ATOM     22  C   UNL d   1      53.573  34.050  53.110  0.00  0.00     0.002 A 
ENDBRANCH   1  13
BRANCH   2  23
ATOM     23  C   UNL d   1      51.844  33.324  52.586  0.00  0.00     0.323 C 
ATOM     24  O   UNL d   1      52.157  33.736  51.944  0.00  0.00    -0.257 OA
BRANCH  23  25
ATOM     25  O   UNL d   1      51.112  33.540  52.898  0.00  0.00    -0.270 OA
BRANCH  25  26
ATOM     26  C   UNL d   1      50.528  33.841  52.402  0.00  0.00     0.126 C 
ATOM     27  C   UNL d   1      49.903  34.272  52.720  0.00  0.00     0.029 C 
ENDBRANCH  25  26
ENDBRANCH  23  25
ENDBRANCH   2  23
BRANCH  10  28
ATOM     28  C   UNL d   1      53.736  29.397  54.050  0.00  0.00     0.003 C 
ATOM     29  C   UNL d   1      53.515  29.085  54.781  0.00  0.00     0.000 C 
ENDBRANCH  10  28
TORSDOF 5
ENDMDL
MODEL 4
REMARK VINA RESULT:      -6.8      1.409      4.685
REMARK  5 active torsions:
REMARK  status: ('A' for Active; 'I' for Inactive)
REMARK    1  A    between atoms: C_7  and  C_1 
REMARK    2  A    between atoms: C_8  and  C_2 
REMARK    3  A    between atoms: O_22  and  C_8 
REMARK    4  A    between atoms: C_24  and  C_14 
REMARK    5  A    between atoms: C_27  and  O_22 
ROOT
ATOM      1  C   UNL d   1      52.099  33.906  53.310  0.00  0.00     0.067 A 
ATOM      2  C   UNL d   1      51.945  33.263  52.817  0.00  0.00     0.166 A 
ATOM      3  C   UNL d   1      51.527  34.499  53.404  0.00  0.00     0.200 A 
ATOM      4  C   UNL d   1      50.807  34.447  53.007  0.00  0.00     0.062 A 
ATOM      5  O   UNL d   1      51.219  33.212  52.418  0.00  0.00    -0.301 OA
ATOM      6  C   UNL d   1      50.653  33.803  52.514  0.00  0.00     0.106 A 
ATOM      7  C   UNL d   1      50.242  35.037  53.103  0.00  0.00     0.008 A 
ATOM      8  C   UNL d   1      49.934  33.750  52.117  0.00  0.00     0.067 A 
ATOM      9  C   UNL d   1      49.368  34.341  52.213  0.00  0.00     0.198 A 
ATOM     10  C   UNL d   1      49.522  34.984  52.706  0.00  0.00     0.039 A 
ATOM     11  O   UNL d   1      51.680  35.142  53.897  0.00  0.00    -0.286 OA
ATOM     12  O   UNL d   1      48.638  34.293  51.813  0.00  0.00    -0.286 OA
ENDROOT
BRANCH   1  13
ATOM     13  C   UNL d   1      52.819  33.958  53.707  0.00  0.00     0.007 A 
ATOM     14  C   UNL d   1      52.933  33.546  54.414  0.00  0.00     0.027 A 
ATOM     15  C   UNL d   1      53.652  33.598  54.810  0.00  0.00     0.123 A 
ATOM     16  O   UNL d   1      53.761  33.184  55.516  0.00  0.00    -0.301 OA
ATOM     17  C   UNL d   1      54.260  34.063  54.502  0.00  0.00     0.123 A 
ATOM     18  C   UNL d   1      54.497  33.241  55.917  0.00  0.00     0.149 A 
ATOM     19  C   UNL d   1      55.110  33.703  55.616  0.00  0.00     0.149 A 
ATOM     20  O   UNL d   1      54.994  34.117  54.905  0.00  0.00    -0.301 OA
ATOM     21  C   UNL d   1      54.147  34.476  53.794  0.00  0.00     0.027 A 
ATOM     22  C   UNL d   1      53.427  34.423  53.399  0.00  0.00     0.002 A 
ENDBRANCH   1  13
BRANCH   2  23
ATOM     23  C   UNL d   1      52.515  32.670  52.721  0.00  0.00     0.323 C 
ATOM     24  O   UNL d   1      53.195  32.819  52.278  0.00  0.00    -0.257 OA
BRANCH  23  25
ATOM     25  O   UNL d   1      52.403  31.931  53.069  0.00  0.00    -0.270 OA
BRANCH  25  26
ATOM     26  C   UNL d   1      52.693  31.256  52.699  0.00  0.00     0.126 C 
ATOM     27  C   UNL d   1      52.632  30.525  53.073  0.00  0.00     0.029 C 
ENDBRANCH  25  26
ENDBRANCH  23  25
ENDBRANCH   2  23
BRANCH  10  28
ATOM     28  C   UNL d   1      48.952  35.576  52.800  0.00  0.00     0.003 C 
ATOM     29  C   UNL d   1      48.592  35.696  53.533  0.00  0.00     0.000 C 
ENDBRANCH  10  28
TORSDOF 5
ENDMDL
