MODEL 1
REMARK VINA RESULT:      -3.5      0.000      0.000
REMARK  3 active torsions:
REMARK  status: ('A' for Active; 'I' for Inactive)
REMARK    1  A    between atoms: N_6  and  C_1 
REMARK       I    between atoms: C_8  and  N_6 
REMARK       I    between atoms: C_11  and  N_7 
REMARK    2  A    between atoms: C_14  and  C_8 
REMARK    3  A    between atoms: O_20  and  C_19 
ROOT
ATOM      1  C   UNL d   1      33.114  20.561 -22.358  0.00  0.00     0.124 A 
ATOM      2  C   UNL d   1      33.170  20.456 -23.182  0.00  0.00     0.093 A 
ATOM      3  C   UNL d   1      33.136  19.241 -22.619  0.00  0.00     0.049 A 
ATOM      4  C   UNL d   1      33.184  19.639 -23.338  0.00  0.00     0.021 A 
ATOM      5  S   UNL d   1      33.093  19.798 -22.010  0.00  0.00    -0.066 SA
ATOM      6  N   UNL d   1      33.188  17.984 -23.307  0.00  0.00    -0.272 N 
ATOM      7  C   UNL d   1      33.138  18.403 -22.603  0.00  0.00     0.089 A 
ATOM      8  C   UNL d   1      33.206  21.064 -23.739  0.00  0.00     0.103 C 
ATOM      9  C   UNL d   1      33.190  17.153 -23.301  0.00  0.00     0.265 C 
ATOM     10  N   UNL d   1      33.241  21.662 -24.288  0.00  0.00    -0.191 NA
ATOM     11  C   UNL d   1      33.234  19.219 -24.057  0.00  0.00     0.020 A 
ATOM     12  C   UNL d   1      33.236  18.392 -24.034  0.00  0.00     0.083 A 
ATOM     13  O   UNL d   1      33.143  16.751 -22.584  0.00  0.00    -0.267 OA
ATOM     14  C   UNL d   1      33.240  16.734 -24.005  0.00  0.00     0.066 C 
ENDROOT
BRANCH   1  15
ATOM     15  N   UNL d   1      33.084  21.282 -21.956  0.00  0.00    -0.201 NA
ATOM     16  C   UNL d   1      32.552  21.384 -21.333  0.00  0.00     0.280 C 
ATOM     17  O   UNL d   1      32.047  20.775 -21.106  0.00  0.00    -0.265 OA
BRANCH  16  18
ATOM     18  C   UNL d   1      32.522  22.091 -20.939  0.00  0.00     0.060 A 
ATOM     19  C   UNL d   1      32.893  22.179 -20.208  0.00  0.00     0.029 A 
ATOM     20  C   UNL d   1      32.863  22.897 -19.807  0.00  0.00     0.094 A 
ATOM     21  C   UNL d   1      32.462  23.533 -20.134  0.00  0.00     0.024 A 
ATOM     22  C   UNL d   1      32.088  23.455 -20.864  0.00  0.00     0.002 A 
ATOM     23  C   UNL d   1      32.119  22.726 -21.271  0.00  0.00     0.005 A 
BRANCH  20  24
ATOM     24  O   UNL d   1      33.241  22.994 -19.058  0.00  0.00    -0.328 OA
ATOM     25  C   UNL d   1      32.848  23.346 -18.427  0.00  0.00     0.181 C 
ENDBRANCH  20  24
ENDBRANCH  16  18
ENDBRANCH   1  15
TORSDOF 3
ENDMDL
MODEL 2
REMARK VINA RESULT:      -2.8      1.098      5.038
REMARK  3 active torsions:
REMARK  status: ('A' for Active; 'I' for Inactive)
REMARK    1  A    between atoms: N_6  and  C_1 
REMARK       I    between atoms: C_8  and  N_6 
REMARK       I    between atoms: C_11  and  N_7 
REMARK    2  A    between atoms: C_14  and  C_8 
REMARK    3  A    between atoms: O_20  and  C_19 
ROOT
ATOM      1  C   UNL d   1      33.155  21.508 -21.842  0.00  0.00     0.124 A 
ATOM      2  C   UNL d   1      33.021  22.330 -21.858  0.00  0.00     0.093 A 
ATOM      3  C   UNL d   1      33.154  21.965 -20.576  0.00  0.00     0.049 A 
ATOM      4  C   UNL d   1      33.022  22.607 -21.074  0.00  0.00     0.021 A 
ATOM      5  S   UNL d   1      33.237  21.284 -21.038  0.00  0.00    -0.066 SA
ATOM      6  N   UNL d   1      33.081  22.829 -19.435  0.00  0.00    -0.272 N 
ATOM      7  C   UNL d   1      33.184  22.077 -19.747  0.00  0.00     0.089 A 
ATOM      8  C   UNL d   1      32.909  22.782 -22.540  0.00  0.00     0.103 C 
ATOM      9  C   UNL d   1      33.109  22.950 -18.613  0.00  0.00     0.265 C 
ATOM     10  N   UNL d   1      32.799  23.228 -23.210  0.00  0.00    -0.191 NA
ATOM     11  C   UNL d   1      32.916  23.374 -20.763  0.00  0.00     0.020 A 
ATOM     12  C   UNL d   1      32.947  23.478 -19.944  0.00  0.00     0.083 A 
ATOM     13  O   UNL d   1      33.241  22.311 -18.112  0.00  0.00    -0.267 OA
ATOM     14  C   UNL d   1      33.006  23.702 -18.301  0.00  0.00     0.066 C 
ENDROOT
BRANCH   1  15
ATOM     15  N   UNL d   1      33.198  21.005 -22.496  0.00  0.00    -0.201 NA
ATOM     16  C   UNL d   1      33.060  20.197 -22.403  0.00  0.00     0.280 C 
ATOM     17  O   UNL d   1      32.880  19.883 -21.664  0.00  0.00    -0.265 OA
BRANCH  16  18
ATOM     18  C   UNL d   1      33.103  19.703 -23.044  0.00  0.00     0.060 A 
ATOM     19  C   UNL d   1      33.052  18.886 -22.948  0.00  0.00     0.029 A 
ATOM     20  C   UNL d   1      33.095  18.384 -23.599  0.00  0.00     0.094 A 
ATOM     21  C   UNL d   1      33.189  18.696 -24.352  0.00  0.00     0.024 A 
ATOM     22  C   UNL d   1      33.241  19.512 -24.458  0.00  0.00     0.002 A 
ATOM     23  C   UNL d   1      33.197  20.021 -23.797  0.00  0.00     0.005 A 
BRANCH  20  24
ATOM     24  O   UNL d   1      33.044  17.547 -23.508  0.00  0.00    -0.328 OA
ATOM     25  C   UNL d   1      32.413  17.123 -23.821  0.00  0.00     0.181 C 
ENDBRANCH  20  24
ENDBRANCH  16  18
ENDBRANCH   1  15
TORSDOF 3
ENDMDL
MODEL 3
REMARK VINA RESULT:      -0.8      1.622      5.340
REMARK  3 active torsions:
REMARK  status: ('A' for Active; 'I' for Inactive)
REMARK    1  A    between atoms: N_6  and  C_1 
REMARK       I    between atoms: C_8  and  N_6 
REMARK       I    between atoms: C_11  and  N_7 
REMARK    2  A    between atoms: C_14  and  C_8 
REMARK    3  A    between atoms: O_20  and  C_19 
ROOT
ATOM      1  C   UNL d   1      32.700  19.102 -23.242  0.00  0.00     0.124 A 
ATOM      2  C   UNL d   1      32.940  19.847 -23.525  0.00  0.00     0.093 A 
ATOM      3  C   UNL d   1      32.796  19.945 -22.197  0.00  0.00     0.049 A 
ATOM      4  C   UNL d   1      32.997  20.364 -22.876  0.00  0.00     0.021 A 
ATOM      5  S   UNL d   1      32.611  19.168 -22.411  0.00  0.00    -0.066 SA
ATOM      6  N   UNL d   1      33.014  21.118 -21.403  0.00  0.00    -0.272 N 
ATOM      7  C   UNL d   1      32.804  20.326 -21.451  0.00  0.00     0.089 A 
ATOM      8  C   UNL d   1      33.091  20.032 -24.316  0.00  0.00     0.103 C 
ATOM      9  C   UNL d   1      33.026  21.505 -20.667  0.00  0.00     0.265 C 
ATOM     10  N   UNL d   1      33.241  20.213 -25.094  0.00  0.00    -0.191 NA
ATOM     11  C   UNL d   1      33.212  21.170 -22.834  0.00  0.00     0.020 A 
ATOM     12  C   UNL d   1      33.218  21.539 -22.094  0.00  0.00     0.083 A 
ATOM     13  O   UNL d   1      32.825  21.089 -19.986  0.00  0.00    -0.267 OA
ATOM     14  C   UNL d   1      33.236  22.296 -20.619  0.00  0.00     0.066 C 
ENDROOT
BRANCH   1  15
ATOM     15  N   UNL d   1      32.572  18.423 -23.694  0.00  0.00    -0.201 NA
ATOM     16  C   UNL d   1      31.964  17.903 -23.493  0.00  0.00     0.280 C 
ATOM     17  O   UNL d   1      31.479  18.052 -22.845  0.00  0.00    -0.265 OA
BRANCH  16  18
ATOM     18  C   UNL d   1      31.839  17.236 -23.937  0.00  0.00     0.060 A 
ATOM     19  C   UNL d   1      31.080  16.926 -24.021  0.00  0.00     0.029 A 
ATOM     20  C   UNL d   1      30.953  16.249 -24.472  0.00  0.00     0.094 A 
ATOM     21  C   UNL d   1      31.583  15.877 -24.841  0.00  0.00     0.024 A 
ATOM     22  C   UNL d   1      32.346  16.180 -24.762  0.00  0.00     0.002 A 
ATOM     23  C   UNL d   1      32.475  16.867 -24.305  0.00  0.00     0.005 A 
BRANCH  20  24
ATOM     24  O   UNL d   1      30.178  15.925 -24.563  0.00  0.00    -0.328 OA
ATOM     25  C   UNL d   1      29.559  16.381 -24.854  0.00  0.00     0.181 C 
ENDBRANCH  20  24
ENDBRANCH  16  18
ENDBRANCH   1  15
TORSDOF 3
ENDMDL
