MODEL 1
REMARK VINA RESULT:       9.9      0.000      0.000
REMARK  2 active torsions:
REMARK  status: ('A' for Active; 'I' for Inactive)
REMARK    1  A    between atoms: C_6  and  N_1 
REMARK    2  A    between atoms: C_14  and  C_13 
ROOT
ATOM      1  C   UNL d   1     -51.940  25.218  33.307  0.00  0.00     0.070 A 
ATOM      2  C   UNL d   1     -51.116  25.232  33.306  0.00  0.00     0.018 A 
ATOM      3  C   UNL d   1     -52.363  25.926  33.308  0.00  0.00     0.018 A 
ATOM      4  C   UNL d   1     -50.709  25.955  33.306  0.00  0.00     0.002 A 
ATOM      5  C   UNL d   1     -51.965  26.651  33.308  0.00  0.00     0.002 A 
ATOM      6  C   UNL d   1     -51.133  26.663  33.307  0.00  0.00     0.000 A 
ENDROOT
BRANCH   1   7
ATOM      7  N   UNL d   1     -52.331  24.499  33.307  0.00  0.00    -0.242 N 
ATOM      8  C   UNL d   1     -53.149  24.400  33.307  0.00  0.00     0.267 A 
ATOM      9  C   UNL d   1     -53.301  23.588  33.308  0.00  0.00     0.066 A 
ATOM     10  O   UNL d   1     -53.711  25.002  33.306  0.00  0.00    -0.267 OA
ATOM     11  C   UNL d   1     -52.586  23.188  33.308  0.00  0.00     0.066 A 
ATOM     12  C   UNL d   1     -51.984  23.750  33.308  0.00  0.00     0.267 A 
ATOM     13  O   UNL d   1     -51.172  23.588  33.309  0.00  0.00    -0.267 OA
ENDBRANCH   1   7
BRANCH   6  14
ATOM     14  C   UNL d   1     -50.739  27.385  33.306  0.00  0.00     0.000 C 
ATOM     15  C   UNL d   1     -49.911  27.394  33.322  0.00  0.00     0.000 C 
ENDBRANCH   6  14
TORSDOF 2
ENDMDL
