MODEL 1
REMARK VINA RESULT:      -5.3      0.000      0.000
REMARK  5 active torsions:
REMARK  status: ('A' for Active; 'I' for Inactive)
REMARK    1  A    between atoms: C_2  and  N_1 
REMARK    2  A    between atoms: O_4  and  N_1 
REMARK    3  A    between atoms: C_8  and  C_2 
REMARK    4  A    between atoms: C_3  and  O_4 
REMARK    5  A    between atoms: C_5  and  C_3 
ROOT
ATOM      1  O   UNL d   1      56.981  -0.201  31.360  0.00  0.00    -0.168 OA
ENDROOT
BRANCH   1   2
ATOM      2  C   UNL d   1      56.624  -0.721  32.019  0.00  0.00     0.319 C 
ATOM      3  O   UNL d   1      56.624  -1.617  31.944  0.00  0.00    -0.257 OA
BRANCH   2   4
ATOM      4  C   UNL d   1      56.296  -0.368  32.695  0.00  0.00     0.065 A 
ATOM      5  C   UNL d   1      56.736   0.161  33.145  0.00  0.00     0.006 A 
ATOM      6  C   UNL d   1      56.409   0.500  33.801  0.00  0.00     0.007 A 
ATOM      7  C   UNL d   1      55.637   0.333  34.040  0.00  0.00     0.035 A 
ATOM      8  C   UNL d   1      55.196  -0.196  33.589  0.00  0.00     0.007 A 
ATOM      9 BR   UNL d   1      55.304   0.682  34.711  0.00  0.00    -0.049 Br
ATOM     10  C   UNL d   1      55.515  -0.556  32.909  0.00  0.00     0.006 A 
ENDBRANCH   2   4
ENDBRANCH   1   2
BRANCH   1  11
ATOM     11  N   UNL d   1      57.474  -0.518  30.792  0.00  0.00    -0.102 NA
BRANCH  11  12
ATOM     12  C   UNL d   1      57.827  -0.047  30.220  0.00  0.00     0.210 C 
ATOM     13  N   UNL d   1      57.485   0.680  30.030  0.00  0.00    -0.125 N 
BRANCH  12  14
ATOM     14  C   UNL d   1      58.510  -0.280  29.833  0.00  0.00     0.043 A 
ATOM     15  C   UNL d   1      59.186   0.177  29.850  0.00  0.00     0.024 A 
ATOM     16  C   UNL d   1      59.871  -0.056  29.462  0.00  0.00     0.099 A 
ATOM     17  N   UNL d   1      59.862  -0.774  29.050  0.00  0.00    -0.242 NA
ATOM     18  C   UNL d   1      59.194  -1.246  29.022  0.00  0.00     0.099 A 
ATOM     19  C   UNL d   1      58.515  -0.995  29.417  0.00  0.00     0.024 A 
ENDBRANCH  12  14
ENDBRANCH  11  12
ENDBRANCH   1  11
TORSDOF 5
ENDMDL
MODEL 2
REMARK VINA RESULT:      -5.0      2.295      4.818
REMARK  5 active torsions:
REMARK  status: ('A' for Active; 'I' for Inactive)
REMARK    1  A    between atoms: C_2  and  N_1 
REMARK    2  A    between atoms: O_4  and  N_1 
REMARK    3  A    between atoms: C_8  and  C_2 
REMARK    4  A    between atoms: C_3  and  O_4 
REMARK    5  A    between atoms: C_5  and  C_3 
ROOT
ATOM      1  O   UNL d   1      58.025   0.370  30.900  0.00  0.00    -0.168 OA
ENDROOT
BRANCH   1   2
ATOM      2  C   UNL d   1      58.090   0.376  29.990  0.00  0.00     0.319 C 
ATOM      3  O   UNL d   1      57.412   0.682  29.485  0.00  0.00    -0.257 OA
BRANCH   2   4
ATOM      4  C   UNL d   1      58.780   0.096  29.622  0.00  0.00     0.065 A 
ATOM      5  C   UNL d   1      58.845  -0.692  29.400  0.00  0.00     0.006 A 
ATOM      6  C   UNL d   1      59.519  -0.955  29.042  0.00  0.00     0.007 A 
ATOM      7  C   UNL d   1      60.156  -0.454  28.888  0.00  0.00     0.035 A 
ATOM      8  C   UNL d   1      60.091   0.337  29.111  0.00  0.00     0.007 A 
ATOM      9 BR   UNL d   1      60.845  -0.725  28.522  0.00  0.00    -0.049 Br
ATOM     10  C   UNL d   1      59.404   0.627  29.481  0.00  0.00     0.006 A 
ENDBRANCH   2   4
ENDBRANCH   1   2
BRANCH   1  11
ATOM     11  N   UNL d   1      57.301   0.317  31.271  0.00  0.00    -0.102 NA
BRANCH  11  12
ATOM     12  C   UNL d   1      57.237   0.320  32.090  0.00  0.00     0.210 C 
ATOM     13  N   UNL d   1      57.840   0.662  32.538  0.00  0.00    -0.125 N 
BRANCH  12  14
ATOM     14  C   UNL d   1      56.591  -0.007  32.472  0.00  0.00     0.043 A 
ATOM     15  C   UNL d   1      56.477  -0.815  32.499  0.00  0.00     0.024 A 
ATOM     16  C   UNL d   1      55.829  -1.144  32.882  0.00  0.00     0.099 A 
ATOM     17  N   UNL d   1      55.288  -0.633  33.243  0.00  0.00    -0.242 NA
ATOM     18  C   UNL d   1      55.385   0.179  33.226  0.00  0.00     0.099 A 
ATOM     19  C   UNL d   1      56.042   0.492  32.837  0.00  0.00     0.024 A 
ENDBRANCH  12  14
ENDBRANCH  11  12
ENDBRANCH   1  11
TORSDOF 5
ENDMDL
MODEL 3
REMARK VINA RESULT:      -4.4      2.158      4.683
REMARK  5 active torsions:
REMARK  status: ('A' for Active; 'I' for Inactive)
REMARK    1  A    between atoms: C_2  and  N_1 
REMARK    2  A    between atoms: O_4  and  N_1 
REMARK    3  A    between atoms: C_8  and  C_2 
REMARK    4  A    between atoms: C_3  and  O_4 
REMARK    5  A    between atoms: C_5  and  C_3 
ROOT
ATOM      1  O   UNL d   1      57.127  -0.207  31.500  0.00  0.00    -0.168 OA
ENDROOT
BRANCH   1   2
ATOM      2  C   UNL d   1      57.357   0.236  30.737  0.00  0.00     0.319 C 
ATOM      3  O   UNL d   1      56.736   0.682  30.263  0.00  0.00    -0.257 OA
BRANCH   2   4
ATOM      4  C   UNL d   1      58.144   0.230  30.475  0.00  0.00     0.065 A 
ATOM      5  C   UNL d   1      58.736   0.584  30.922  0.00  0.00     0.006 A 
ATOM      6  C   UNL d   1      59.500   0.573  30.659  0.00  0.00     0.007 A 
ATOM      7  C   UNL d   1      59.712   0.215  29.947  0.00  0.00     0.035 A 
ATOM      8  C   UNL d   1      59.119  -0.140  29.499  0.00  0.00     0.007 A 
ATOM      9 BR   UNL d   1      60.494   0.205  29.680  0.00  0.00    -0.049 Br
ATOM     10  C   UNL d   1      58.326  -0.140  29.752  0.00  0.00     0.006 A 
ENDBRANCH   2   4
ENDBRANCH   1   2
BRANCH   1  11
ATOM     11  N   UNL d   1      56.448  -0.018  31.910  0.00  0.00    -0.102 NA
BRANCH  11  12
ATOM     12  C   UNL d   1      56.218  -0.439  32.577  0.00  0.00     0.210 C 
ATOM     13  N   UNL d   1      56.294  -1.260  32.580  0.00  0.00    -0.125 N 
BRANCH  12  14
ATOM     14  C   UNL d   1      55.915  -0.063  33.239  0.00  0.00     0.043 A 
ATOM     15  C   UNL d   1      56.404   0.300  33.783  0.00  0.00     0.024 A 
ATOM     16  C   UNL d   1      56.101   0.677  34.446  0.00  0.00     0.099 A 
ATOM     17  N   UNL d   1      55.281   0.682  34.553  0.00  0.00    -0.242 NA
ATOM     18  C   UNL d   1      54.775   0.324  34.019  0.00  0.00     0.099 A 
ATOM     19  C   UNL d   1      55.097  -0.051  33.358  0.00  0.00     0.024 A 
ENDBRANCH  12  14
ENDBRANCH  11  12
ENDBRANCH   1  11
TORSDOF 5
ENDMDL
