MODEL 1
REMARK VINA RESULT:      52.6      0.000      0.000
REMARK  3 active torsions:
REMARK  status: ('A' for Active; 'I' for Inactive)
REMARK    1  A    between atoms: C_8  and  C_6 
REMARK    2  A    between atoms: C_9  and  C_8 
REMARK       I    between atoms: N_10  and  C_9 
REMARK    3  A    between atoms: C_14  and  N_10 
ROOT
ATOM      1  N   UNL d   1     -51.807  26.581  33.375  0.00  0.00    -0.207 NA
ATOM      2  N   UNL d   1     -50.868  25.259  33.799  0.00  0.00    -0.240 NA
ATOM      3  C   UNL d   1     -51.984  25.791  33.465  0.00  0.00     0.297 A 
ATOM      4  C   UNL d   1     -51.082  26.972  33.472  0.00  0.00     0.086 A 
ATOM      5  C   UNL d   1     -50.289  25.838  33.832  0.00  0.00     0.083 A 
ATOM      6  C   UNL d   1     -51.662  25.346  33.609  0.00  0.00     0.144 A 
ATOM      7  C   UNL d   1     -50.355  26.646  33.685  0.00  0.00     0.035 A 
ATOM      8  O   UNL d   1     -52.770  25.592  33.324  0.00  0.00    -0.264 OA
ATOM      9  C   UNL d   1     -49.690  27.133  33.753  0.00  0.00     0.003 A 
ATOM     10  C   UNL d   1     -49.565  25.510  34.045  0.00  0.00     0.019 A 
ATOM     11  C   UNL d   1     -51.143  27.789  33.325  0.00  0.00     0.019 A 
ATOM     12  C   UNL d   1     -48.893  26.001  34.113  0.00  0.00     0.002 A 
ATOM     13  C   UNL d   1     -50.477  28.271  33.393  0.00  0.00     0.002 A 
ATOM     14  C   UNL d   1     -48.956  26.812  33.967  0.00  0.00     0.000 A 
ATOM     15  C   UNL d   1     -49.755  27.946  33.605  0.00  0.00     0.000 A 
ENDROOT
BRANCH   6  16
ATOM     16  C   UNL d   1     -52.087  24.640  33.630  0.00  0.00     0.086 C 
BRANCH  16  17
ATOM     17  C   UNL d   1     -51.683  23.925  33.529  0.00  0.00     0.281 C 
ATOM     18  N   UNL d   1     -52.083  23.214  33.653  0.00  0.00    -0.208 NA
ATOM     19  O   UNL d   1     -50.886  23.916  33.307  0.00  0.00    -0.265 OA
BRANCH  18  20
ATOM     20  C   UNL d   1     -52.879  23.208  33.876  0.00  0.00     0.085 A 
ATOM     21  C   UNL d   1     -53.469  23.194  33.311  0.00  0.00     0.019 A 
ATOM     22  C   UNL d   1     -54.258  23.189  33.536  0.00  0.00     0.002 A 
ATOM     23  C   UNL d   1     -54.462  23.198  34.338  0.00  0.00     0.000 A 
ATOM     24  C   UNL d   1     -53.855  23.212  34.910  0.00  0.00     0.002 A 
ATOM     25  C   UNL d   1     -53.072  23.217  34.674  0.00  0.00     0.019 A 
ENDBRANCH  18  20
ENDBRANCH  16  17
ENDBRANCH   6  16
TORSDOF 3
ENDMDL
