MODEL 1
REMARK VINA RESULT:      -5.6      0.000      0.000
REMARK  5 active torsions:
REMARK  status: ('A' for Active; 'I' for Inactive)
REMARK    1  A    between atoms: N_2  and  C_1 
REMARK    2  A    between atoms: C_4  and  C_8 
REMARK       I    between atoms: N_7  and  C_4 
REMARK    3  A    between atoms: C_9  and  C_6 
REMARK    4  A    between atoms: C_14  and  N_7 
REMARK    5  A    between atoms: C_8  and  C_9 
ROOT
ATOM      1  C   UNL d   1     -41.501-122.451 -52.968  0.00  0.00     0.265 C 
ATOM      2  N   UNL d   1     -41.621-122.922 -53.615  0.00  0.00    -0.272 N 
ATOM      3  O   UNL d   1     -41.487-121.627 -53.010  0.00  0.00    -0.267 OA
ATOM      4  C   UNL d   1     -41.632-123.738 -53.552  0.00  0.00     0.102 C 
ENDROOT
BRANCH   1   5
ATOM      5  C   UNL d   1     -41.387-122.812 -52.235  0.00  0.00     0.062 C 
BRANCH   5   6
ATOM      6  C   UNL d   1     -41.451-122.337 -51.538  0.00  0.00     0.011 C 
BRANCH   6   7
ATOM      7  C   UNL d   1     -41.590-122.700 -50.774  0.00  0.00     0.031 A 
ATOM      8  S   UNL d   1     -42.216-122.554 -50.275  0.00  0.00    -0.064 SA
ATOM      9  C   UNL d   1     -42.143-123.019 -49.591  0.00  0.00     0.156 A 
ATOM     10  C   UNL d   1     -41.442-123.460 -49.692  0.00  0.00     0.031 A 
ATOM     11  C   UNL d   1     -41.123-123.262 -50.395  0.00  0.00     0.009 A 
BRANCH   9  12
ATOM     12  N   UNL d   1     -42.646-123.056 -48.936  0.00  0.00    -0.107 N 
ATOM     13  O   UNL d   1     -42.493-122.579 -48.235  0.00  0.00    -0.531 OA
ATOM     14  O   UNL d   1     -43.341-123.553 -48.893  0.00  0.00    -0.531 OA
ENDBRANCH   9  12
ENDBRANCH   6   7
ENDBRANCH   5   6
ENDBRANCH   1   5
BRANCH   2  15
ATOM     15  C   UNL d   1     -41.736-122.572 -54.354  0.00  0.00     0.067 A 
ATOM     16  C   UNL d   1     -41.125-122.519 -54.884  0.00  0.00     0.018 A 
ATOM     17  C   UNL d   1     -41.269-122.166 -55.611  0.00  0.00     0.002 A 
ATOM     18  C   UNL d   1     -42.009-121.867 -55.812  0.00  0.00     0.000 A 
ATOM     19  C   UNL d   1     -42.624-121.937 -55.239  0.00  0.00     0.002 A 
ATOM     20  C   UNL d   1     -42.494-122.280 -54.527  0.00  0.00     0.018 A 
ENDBRANCH   2  15
TORSDOF 5
ENDMDL
MODEL 2
REMARK VINA RESULT:      -5.5      1.678      4.911
REMARK  5 active torsions:
REMARK  status: ('A' for Active; 'I' for Inactive)
REMARK    1  A    between atoms: N_2  and  C_1 
REMARK    2  A    between atoms: C_4  and  C_8 
REMARK       I    between atoms: N_7  and  C_4 
REMARK    3  A    between atoms: C_9  and  C_6 
REMARK    4  A    between atoms: C_14  and  N_7 
REMARK    5  A    between atoms: C_8  and  C_9 
ROOT
ATOM      1  C   UNL d   1     -41.594-122.999 -51.360  0.00  0.00     0.265 C 
ATOM      2  N   UNL d   1     -41.644-122.482 -50.739  0.00  0.00    -0.272 N 
ATOM      3  O   UNL d   1     -41.648-123.817 -51.267  0.00  0.00    -0.267 OA
ATOM      4  C   UNL d   1     -41.588-121.673 -50.853  0.00  0.00     0.102 C 
ENDROOT
BRANCH   1   5
ATOM      5  C   UNL d   1     -41.484-122.694 -52.119  0.00  0.00     0.062 C 
BRANCH   5   6
ATOM      6  C   UNL d   1     -41.285-123.228 -52.742  0.00  0.00     0.011 C 
BRANCH   6   7
ATOM      7  C   UNL d   1     -41.416-123.010 -53.561  0.00  0.00     0.031 A 
ATOM      8  S   UNL d   1     -41.855-122.380 -53.832  0.00  0.00    -0.064 SA
ATOM      9  C   UNL d   1     -41.841-122.366 -54.661  0.00  0.00     0.156 A 
ATOM     10  C   UNL d   1     -41.373-123.017 -54.891  0.00  0.00     0.031 A 
ATOM     11  C   UNL d   1     -41.127-123.391 -54.231  0.00  0.00     0.009 A 
BRANCH   9  12
ATOM     12  N   UNL d   1     -42.206-121.829 -55.175  0.00  0.00    -0.107 N 
ATOM     13  O   UNL d   1     -43.029-121.601 -55.061  0.00  0.00    -0.531 OA
ATOM     14  O   UNL d   1     -41.816-121.464 -55.842  0.00  0.00    -0.531 OA
ENDBRANCH   9  12
ENDBRANCH   6   7
ENDBRANCH   5   6
ENDBRANCH   1   5
BRANCH   2  15
ATOM     15  C   UNL d   1     -41.753-122.776 -49.976  0.00  0.00     0.067 A 
ATOM     16  C   UNL d   1     -41.123-123.049 -49.545  0.00  0.00     0.018 A 
ATOM     17  C   UNL d   1     -41.263-123.335 -48.789  0.00  0.00     0.002 A 
ATOM     18  C   UNL d   1     -42.018-123.353 -48.461  0.00  0.00     0.000 A 
ATOM     19  C   UNL d   1     -42.652-123.062 -48.934  0.00  0.00     0.002 A 
ATOM     20  C   UNL d   1     -42.527-122.780 -49.674  0.00  0.00     0.018 A 
ENDBRANCH   2  15
TORSDOF 5
ENDMDL
MODEL 3
REMARK VINA RESULT:      -4.9      1.497      5.100
REMARK  5 active torsions:
REMARK  status: ('A' for Active; 'I' for Inactive)
REMARK    1  A    between atoms: N_2  and  C_1 
REMARK    2  A    between atoms: C_4  and  C_8 
REMARK       I    between atoms: N_7  and  C_4 
REMARK    3  A    between atoms: C_9  and  C_6 
REMARK    4  A    between atoms: C_14  and  N_7 
REMARK    5  A    between atoms: C_8  and  C_9 
ROOT
ATOM      1  C   UNL d   1     -41.772-123.091 -50.325  0.00  0.00     0.265 C 
ATOM      2  N   UNL d   1     -42.340-123.402 -49.840  0.00  0.00    -0.272 N 
ATOM      3  O   UNL d   1     -41.123-122.669 -50.040  0.00  0.00    -0.267 OA
ATOM      4  C   UNL d   1     -42.977-123.817 -50.143  0.00  0.00     0.102 C 
ENDROOT
BRANCH   1   5
ATOM      5  C   UNL d   1     -41.846-123.201 -51.140  0.00  0.00     0.062 C 
BRANCH   5   6
ATOM      6  C   UNL d   1     -41.194-122.990 -51.635  0.00  0.00     0.011 C 
BRANCH   6   7
ATOM      7  C   UNL d   1     -41.261-123.039 -52.488  0.00  0.00     0.031 A 
ATOM      8  S   UNL d   1     -41.477-122.437 -52.993  0.00  0.00    -0.064 SA
ATOM      9  C   UNL d   1     -41.474-122.715 -53.775  0.00  0.00     0.156 A 
ATOM     10  C   UNL d   1     -41.246-123.516 -53.731  0.00  0.00     0.031 A 
ATOM     11  C   UNL d   1     -41.123-123.696 -52.963  0.00  0.00     0.009 A 
BRANCH   9  12
ATOM     12  N   UNL d   1     -41.655-122.303 -54.470  0.00  0.00    -0.107 N 
ATOM     13  O   UNL d   1     -42.221-121.654 -54.463  0.00  0.00    -0.531 OA
ATOM     14  O   UNL d   1     -41.310-122.477 -55.233  0.00  0.00    -0.531 OA
ENDBRANCH   9  12
ENDBRANCH   6   7
ENDBRANCH   5   6
ENDBRANCH   1   5
BRANCH   2  15
ATOM     15  C   UNL d   1     -42.276-123.298 -49.024  0.00  0.00     0.067 A 
ATOM     16  C   UNL d   1     -42.728-122.744 -48.643  0.00  0.00     0.018 A 
ATOM     17  C   UNL d   1     -42.642-122.664 -47.830  0.00  0.00     0.002 A 
ATOM     18  C   UNL d   1     -42.116-123.127 -47.399  0.00  0.00     0.000 A 
ATOM     19  C   UNL d   1     -41.661-123.695 -47.824  0.00  0.00     0.002 A 
ATOM     20  C   UNL d   1     -41.737-123.781 -48.617  0.00  0.00     0.018 A 
ENDBRANCH   2  15
TORSDOF 5
ENDMDL
MODEL 4
REMARK VINA RESULT:      -4.3      1.551      5.263
REMARK  5 active torsions:
REMARK  status: ('A' for Active; 'I' for Inactive)
REMARK    1  A    between atoms: N_2  and  C_1 
REMARK    2  A    between atoms: C_4  and  C_8 
REMARK       I    between atoms: N_7  and  C_4 
REMARK    3  A    between atoms: C_9  and  C_6 
REMARK    4  A    between atoms: C_14  and  N_7 
REMARK    5  A    between atoms: C_8  and  C_9 
ROOT
ATOM      1  C   UNL d   1     -41.896-123.081 -49.831  0.00  0.00     0.265 C 
ATOM      2  N   UNL d   1     -42.408-122.801 -49.270  0.00  0.00    -0.272 N 
ATOM      3  O   UNL d   1     -41.294-123.618 -49.659  0.00  0.00    -0.267 OA
ATOM      4  C   UNL d   1     -42.999-122.267 -49.462  0.00  0.00     0.102 C 
ENDROOT
BRANCH   1   5
ATOM      5  C   UNL d   1     -41.980-122.817 -50.608  0.00  0.00     0.062 C 
BRANCH   5   6
ATOM      6  C   UNL d   1     -41.367-122.994 -51.162  0.00  0.00     0.011 C 
BRANCH   6   7
ATOM      7  C   UNL d   1     -41.368-122.640 -51.943  0.00  0.00     0.031 A 
ATOM      8  S   UNL d   1     -41.560-123.010 -52.643  0.00  0.00    -0.064 SA
ATOM      9  C   UNL d   1     -41.491-122.471 -53.271  0.00  0.00     0.156 A 
ATOM     10  C   UNL d   1     -41.248-121.752 -52.926  0.00  0.00     0.031 A 
ATOM     11  C   UNL d   1     -41.179-121.864 -52.139  0.00  0.00     0.009 A 
BRANCH   9  12
ATOM     12  N   UNL d   1     -41.628-122.598 -54.077  0.00  0.00    -0.107 N 
ATOM     13  O   UNL d   1     -41.876-121.950 -54.588  0.00  0.00    -0.531 OA
ATOM     14  O   UNL d   1     -41.541-123.355 -54.464  0.00  0.00    -0.531 OA
ENDBRANCH   9  12
ENDBRANCH   6   7
ENDBRANCH   5   6
ENDBRANCH   1   5
BRANCH   2  15
ATOM     15  C   UNL d   1     -42.333-123.058 -48.490  0.00  0.00     0.067 A 
ATOM     16  C   UNL d   1     -41.701-122.826 -48.039  0.00  0.00     0.018 A 
ATOM     17  C   UNL d   1     -41.653-123.098 -47.265  0.00  0.00     0.002 A 
ATOM     18  C   UNL d   1     -42.225-123.593 -46.941  0.00  0.00     0.000 A 
ATOM     19  C   UNL d   1     -42.870-123.816 -47.436  0.00  0.00     0.002 A 
ATOM     20  C   UNL d   1     -42.926-123.557 -48.191  0.00  0.00     0.018 A 
ENDBRANCH   2  15
TORSDOF 5
ENDMDL
