MODEL 1
REMARK VINA RESULT:      -3.5      0.000      0.000
REMARK  6 active torsions:
REMARK  status: ('A' for Active; 'I' for Inactive)
REMARK    1  A    between atoms: C_5  and  N_1 
REMARK    2  A    between atoms: C_8  and  C_2 
REMARK    3  A    between atoms: C_3  and  O_4 
REMARK    4  A    between atoms: O_4  and  C_9 
REMARK    5  A    between atoms: C_7  and  C_5 
REMARK    6  A    between atoms: C_9  and  C_7 
ROOT
ATOM      1  O   UNL d   1     -42.085-123.174 -50.562  0.00  0.00    -0.302 OA
ENDROOT
BRANCH   1   2
ATOM      2  C   UNL d   1     -41.984-123.149 -49.748  0.00  0.00     0.100 A 
ATOM      3  C   UNL d   1     -42.639-123.089 -49.252  0.00  0.00     0.023 A 
ATOM      4  C   UNL d   1     -42.538-123.064 -48.437  0.00  0.00     0.002 A 
ATOM      5  C   UNL d   1     -41.778-123.098 -48.113  0.00  0.00     0.000 A 
ATOM      6  C   UNL d   1     -41.123-123.157 -48.606  0.00  0.00     0.002 A 
ATOM      7  C   UNL d   1     -41.223-123.183 -49.425  0.00  0.00     0.025 A 
BRANCH   3   8
ATOM      8  C   UNL d   1     -43.396-123.056 -49.574  0.00  0.00     0.002 C 
ATOM      9  C   UNL d   1     -43.823-123.751 -49.696  0.00  0.00     0.000 C 
ATOM     10  C   UNL d   1     -43.727-122.331 -49.774  0.00  0.00     0.000 C 
ENDBRANCH   3   8
ENDBRANCH   1   2
BRANCH   1  11
ATOM     11  C   UNL d   1     -41.427-123.229 -51.053  0.00  0.00     0.166 C 
BRANCH  11  12
ATOM     12  C   UNL d   1     -41.520-123.185 -51.875  0.00  0.00     0.238 C 
ATOM     13  O   UNL d   1     -41.854-123.817 -52.283  0.00  0.00    -0.283 OA
BRANCH  12  14
ATOM     14  C   UNL d   1     -41.279-122.513 -52.283  0.00  0.00     0.125 C 
BRANCH  14  15
ATOM     15  N   UNL d   1     -41.463-122.427 -53.082  0.00  0.00    -0.296 N 
ATOM     16  C   UNL d   1     -41.991-121.837 -53.318  0.00  0.00     0.107 A 
ATOM     17  C   UNL d   1     -42.176-121.748 -54.114  0.00  0.00     0.142 A 
ATOM     18  O   UNL d   1     -41.834-122.249 -54.674  0.00  0.00    -0.300 OA
ATOM     19  C   UNL d   1     -41.309-122.835 -54.435  0.00  0.00     0.142 A 
ATOM     20  C   UNL d   1     -41.123-122.924 -53.635  0.00  0.00     0.107 A 
ENDBRANCH  14  15
ENDBRANCH  12  14
ENDBRANCH  11  12
ENDBRANCH   1  11
TORSDOF 6
ENDMDL
MODEL 2
REMARK VINA RESULT:      -1.9      1.223      4.482
REMARK  6 active torsions:
REMARK  status: ('A' for Active; 'I' for Inactive)
REMARK    1  A    between atoms: C_5  and  N_1 
REMARK    2  A    between atoms: C_8  and  C_2 
REMARK    3  A    between atoms: C_3  and  O_4 
REMARK    4  A    between atoms: O_4  and  C_9 
REMARK    5  A    between atoms: C_7  and  C_5 
REMARK    6  A    between atoms: C_9  and  C_7 
ROOT
ATOM      1  O   UNL d   1     -41.900-122.829 -52.316  0.00  0.00    -0.302 OA
ENDROOT
BRANCH   1   2
ATOM      2  C   UNL d   1     -41.650-122.951 -53.088  0.00  0.00     0.100 A 
ATOM      3  C   UNL d   1     -41.672-122.332 -53.632  0.00  0.00     0.023 A 
ATOM      4  C   UNL d   1     -41.422-122.454 -54.405  0.00  0.00     0.002 A 
ATOM      5  C   UNL d   1     -41.147-123.198 -54.638  0.00  0.00     0.000 A 
ATOM      6  C   UNL d   1     -41.123-123.817 -54.098  0.00  0.00     0.002 A 
ATOM      7  C   UNL d   1     -41.375-123.695 -53.321  0.00  0.00     0.025 A 
BRANCH   3   8
ATOM      8  C   UNL d   1     -41.946-121.592 -53.400  0.00  0.00     0.002 C 
ATOM      9  C   UNL d   1     -42.706-121.348 -53.613  0.00  0.00     0.000 C 
ATOM     10  C   UNL d   1     -41.465-121.095 -52.957  0.00  0.00     0.000 C 
ENDBRANCH   3   8
ENDBRANCH   1   2
BRANCH   1  11
ATOM     11  C   UNL d   1     -41.584-123.285 -51.708  0.00  0.00     0.166 C 
BRANCH  11  12
ATOM     12  C   UNL d   1     -41.949-123.295 -50.965  0.00  0.00     0.238 C 
ATOM     13  O   UNL d   1     -42.570-123.816 -50.822  0.00  0.00    -0.283 OA
BRANCH  12  14
ATOM     14  C   UNL d   1     -41.695-122.787 -50.373  0.00  0.00     0.125 C 
BRANCH  14  15
ATOM     15  N   UNL d   1     -41.894-122.935 -49.586  0.00  0.00    -0.296 N 
ATOM     16  C   UNL d   1     -41.371-123.358 -49.105  0.00  0.00     0.107 A 
ATOM     17  C   UNL d   1     -41.568-123.507 -48.321  0.00  0.00     0.142 A 
ATOM     18  O   UNL d   1     -42.285-123.236 -48.017  0.00  0.00    -0.300 OA
ATOM     19  C   UNL d   1     -42.803-122.817 -48.499  0.00  0.00     0.142 A 
ATOM     20  C   UNL d   1     -42.606-122.666 -49.288  0.00  0.00     0.107 A 
ENDBRANCH  14  15
ENDBRANCH  12  14
ENDBRANCH  11  12
ENDBRANCH   1  11
TORSDOF 6
ENDMDL
