MODEL 1
REMARK VINA RESULT:      31.4      0.000      0.000
REMARK  7 active torsions:
REMARK  status: ('A' for Active; 'I' for Inactive)
REMARK    1  A    between atoms: C_6  and  C_1 
REMARK    2  A    between atoms: C_7  and  C_3 
REMARK    3  A    between atoms: O_14  and  C_6 
REMARK    4  A    between atoms: C_8  and  C_7 
REMARK    5  A    between atoms: S_10  and  C_8 
REMARK    6  A    between atoms: C_13  and  S_10 
REMARK    7  A    between atoms: C_22  and  O_14 
ROOT
ATOM      1  C   UNL d   1      15.126  14.543  -0.573  0.00  0.00     0.083 A 
ATOM      2  C   UNL d   1      14.532  13.995  -0.732  0.00  0.00     0.028 A 
ATOM      3  C   UNL d   1      14.871  13.282  -0.771  0.00  0.00     0.121 A 
ATOM      4  N   UNL d   1      15.684  13.368  -0.637  0.00  0.00    -0.242 NA
ATOM      5  C   UNL d   1      15.804  14.139  -0.521  0.00  0.00     0.087 A 
ATOM      6  C   UNL d   1      13.749  14.198  -0.825  0.00  0.00     0.002 C 
ATOM      7  C   UNL d   1      16.555  14.522  -0.359  0.00  0.00     0.021 C 
ENDROOT
BRANCH   3   8
ATOM      8  C   UNL d   1      14.396  12.614  -0.927  0.00  0.00     0.220 C 
ATOM      9  O   UNL d   1      14.021  12.224  -0.327  0.00  0.00    -0.284 OA
BRANCH   8  10
ATOM     10  C   UNL d   1      14.312  12.350  -1.710  0.00  0.00     0.079 C 
BRANCH  10  11
ATOM     11  S   UNL d   1      13.576  12.186  -2.010  0.00  0.00    -0.083 SA
BRANCH  11  12
ATOM     12  C   UNL d   1      13.458  12.233  -2.840  0.00  0.00     0.030 A 
ATOM     13  C   UNL d   1      13.928  12.739  -3.299  0.00  0.00     0.007 A 
ATOM     14  C   UNL d   1      13.799  12.770  -4.090  0.00  0.00     0.012 A 
ATOM     15  C   UNL d   1      13.219  12.320  -4.468  0.00  0.00     0.058 A 
ATOM     16  C   UNL d   1      12.777  11.840  -4.012  0.00  0.00     0.012 A 
ATOM     17 CL   UNL d   1      13.069  12.338  -5.289  0.00  0.00    -0.082 Cl
ATOM     18  C   UNL d   1      12.875  11.779  -3.206  0.00  0.00     0.007 A 
ENDBRANCH  11  12
ENDBRANCH  10  11
ENDBRANCH   8  10
ENDBRANCH   3   8
BRANCH   1  19
ATOM     19  C   UNL d   1      15.018  15.375  -0.485  0.00  0.00     0.302 C 
ATOM     20  O   UNL d   1      14.384  15.663  -0.015  0.00  0.00    -0.259 OA
BRANCH  19  21
ATOM     21  O   UNL d   1      15.525  15.927  -0.852  0.00  0.00    -0.271 OA
BRANCH  21  22
ATOM     22  C   UNL d   1      15.199  16.649  -1.094  0.00  0.00     0.126 C 
ATOM     23  C   UNL d   1      15.697  17.261  -1.390  0.00  0.00     0.029 C 
ENDBRANCH  21  22
ENDBRANCH  19  21
ENDBRANCH   1  19
TORSDOF 7
ENDMDL
