MODEL 1
REMARK VINA RESULT:      65.1      0.000      0.000
REMARK  5 active torsions:
REMARK  status: ('A' for Active; 'I' for Inactive)
REMARK    1  A    between atoms: C_9  and  C_1 
REMARK    2  A    between atoms: S_2  and  N_8 
REMARK    3  A    between atoms: C_10  and  S_2 
REMARK    4  A    between atoms: C_14  and  C_3 
REMARK    5  A    between atoms: N_8  and  C_9 
ROOT
ATOM      1  C   UNL d   1     -50.433  25.397  33.387  0.00  0.00     0.078 A 
ATOM      2  C   UNL d   1     -51.265  25.413  33.363  0.00  0.00     0.008 A 
ATOM      3  C   UNL d   1     -50.035  24.680  33.406  0.00  0.00     0.281 A 
ATOM      4  C   UNL d   1     -51.680  24.704  33.359  0.00  0.00     0.019 A 
ATOM      5  N   UNL d   1     -50.461  23.964  33.402  0.00  0.00    -0.208 NA
ATOM      6  C   UNL d   1     -51.282  23.987  33.378  0.00  0.00     0.085 A 
ATOM      7  C   UNL d   1     -52.504  24.724  33.336  0.00  0.00     0.013 A 
ATOM      8  O   UNL d   1     -49.193  24.668  33.430  0.00  0.00    -0.265 OA
ATOM      9  C   UNL d   1     -51.700  23.275  33.374  0.00  0.00     0.020 A 
ATOM     10  C   UNL d   1     -52.932  24.009  33.332  0.00  0.00     0.058 A 
ATOM     11  C   UNL d   1     -52.533  23.291  33.351  0.00  0.00     0.013 A 
ATOM     12 CL   UNL d   1     -53.772  24.020  33.308  0.00  0.00    -0.082 Cl
ENDROOT
BRANCH   1  13
ATOM     13  C   UNL d   1     -50.006  26.113  33.391  0.00  0.00     0.117 C 
BRANCH  13  14
ATOM     14  N   UNL d   1     -49.200  26.108  33.585  0.00  0.00    -0.157 NA
BRANCH  14  15
ATOM     15  S   UNL d   1     -49.027  26.861  33.904  0.00  0.00     0.285 S 
ATOM     16  O   UNL d   1     -48.560  26.506  34.491  0.00  0.00    -0.198 OA
ATOM     17  O   UNL d   1     -49.497  27.209  33.311  0.00  0.00    -0.198 OA
BRANCH  15  18
ATOM     18  C   UNL d   1     -48.855  27.609  34.220  0.00  0.00     0.105 A 
ATOM     19  C   UNL d   1     -48.385  27.680  34.897  0.00  0.00     0.013 A 
ATOM     20  C   UNL d   1     -48.210  28.414  35.216  0.00  0.00     0.001 A 
ATOM     21  C   UNL d   1     -48.513  29.105  34.851  0.00  0.00     0.000 A 
ATOM     22  C   UNL d   1     -48.984  29.035  34.174  0.00  0.00     0.001 A 
ATOM     23  C   UNL d   1     -48.344  29.846  35.163  0.00  0.00     0.000 C 
ATOM     24  C   UNL d   1     -49.155  28.287  33.858  0.00  0.00     0.013 A 
ENDBRANCH  15  18
ENDBRANCH  14  15
ENDBRANCH  13  14
ENDBRANCH   1  13
BRANCH   2  25
ATOM     25  C   UNL d   1     -51.664  26.131  33.344  0.00  0.00     0.000 A 
ATOM     26  C   UNL d   1     -51.250  26.840  33.344  0.00  0.00     0.000 A 
ATOM     27  C   UNL d   1     -51.649  27.558  33.324  0.00  0.00     0.000 A 
ATOM     28  C   UNL d   1     -52.469  27.581  33.306  0.00  0.00     0.000 A 
ATOM     29  C   UNL d   1     -52.900  26.863  33.306  0.00  0.00     0.000 A 
ATOM     30  C   UNL d   1     -52.497  26.147  33.325  0.00  0.00     0.000 A 
ENDBRANCH   2  25
TORSDOF 5
ENDMDL
