MODEL 1
REMARK VINA RESULT:      15.0      0.000      0.000
REMARK  4 active torsions:
REMARK  status: ('A' for Active; 'I' for Inactive)
REMARK    1  A    between atoms: S_6  and  C_1 
REMARK    2  A    between atoms: C_7  and  S_6 
REMARK    3  A    between atoms: C_10  and  C_7 
REMARK    4  A    between atoms: C_11  and  C_10 
ROOT
ATOM      1  C   UNL d   1      59.020  49.703  50.694  0.00  0.00     0.194 A 
ATOM      2  N   UNL d   1      59.215  49.699  51.514  0.00  0.00    -0.220 NA
ATOM      3  N   UNL d   1      59.728  49.707  50.269  0.00  0.00    -0.220 NA
ATOM      4  C   UNL d   1      60.020  49.701  51.580  0.00  0.00     0.101 A 
ATOM      5  C   UNL d   1      60.344  49.706  50.794  0.00  0.00     0.101 A 
ATOM      6  C   UNL d   1      60.561  49.699  52.211  0.00  0.00     0.021 A 
ATOM      7  C   UNL d   1      61.161  49.708  50.685  0.00  0.00     0.021 A 
ATOM      8  C   UNL d   1      61.665  49.706  51.338  0.00  0.00     0.002 A 
ATOM      9  C   UNL d   1      61.352  49.701  52.097  0.00  0.00     0.002 A 
ENDROOT
BRANCH   1  10
ATOM     10  S   UNL d   1      58.203  49.701  50.799  0.00  0.00    -0.048 SA
BRANCH  10  11
ATOM     11  C   UNL d   1      57.695  49.653  50.149  0.00  0.00     0.038 C 
BRANCH  11  12
ATOM     12  C   UNL d   1      56.879  49.697  50.267  0.00  0.00     0.007 C 
BRANCH  12  13
ATOM     13  C   UNL d   1      56.392  49.290  49.758  0.00  0.00     0.001 C 
ATOM     14  C   UNL d   1      56.059  48.580  50.014  0.00  0.00     0.000 C 
ATOM     15  C   UNL d   1      56.101  49.378  48.994  0.00  0.00     0.000 C 
ENDBRANCH  12  13
ENDBRANCH  11  12
ENDBRANCH  10  11
ENDBRANCH   1  10
TORSDOF 4
ENDMDL
MODEL 2
REMARK VINA RESULT:      17.8      0.823      4.064
REMARK  4 active torsions:
REMARK  status: ('A' for Active; 'I' for Inactive)
REMARK    1  A    between atoms: S_6  and  C_1 
REMARK    2  A    between atoms: C_7  and  S_6 
REMARK    3  A    between atoms: C_10  and  C_7 
REMARK    4  A    between atoms: C_11  and  C_10 
ROOT
ATOM      1  C   UNL d   1      58.610  49.700  50.522  0.00  0.00     0.194 A 
ATOM      2  N   UNL d   1      57.858  49.684  50.900  0.00  0.00    -0.220 NA
ATOM      3  N   UNL d   1      58.479  49.708  49.706  0.00  0.00    -0.220 NA
ATOM      4  C   UNL d   1      57.289  49.683  50.327  0.00  0.00     0.101 A 
ATOM      5  C   UNL d   1      57.681  49.698  49.573  0.00  0.00     0.101 A 
ATOM      6  C   UNL d   1      56.457  49.671  50.320  0.00  0.00     0.021 A 
ATOM      7  C   UNL d   1      57.238  49.700  48.878  0.00  0.00     0.021 A 
ATOM      8  C   UNL d   1      56.414  49.688  48.913  0.00  0.00     0.002 A 
ATOM      9  C   UNL d   1      56.035  49.673  49.641  0.00  0.00     0.002 A 
ENDROOT
BRANCH   1  10
ATOM     10  S   UNL d   1      59.056  49.698  51.214  0.00  0.00    -0.048 SA
BRANCH  10  11
ATOM     11  C   UNL d   1      59.789  49.317  51.243  0.00  0.00     0.038 C 
BRANCH  11  12
ATOM     12  C   UNL d   1      60.438  49.707  51.570  0.00  0.00     0.007 C 
BRANCH  12  13
ATOM     13  C   UNL d   1      61.158  49.327  51.575  0.00  0.00     0.001 C 
ATOM     14  C   UNL d   1      61.707  49.532  52.155  0.00  0.00     0.000 C 
ATOM     15  C   UNL d   1      61.542  48.748  51.137  0.00  0.00     0.000 C 
ENDBRANCH  12  13
ENDBRANCH  11  12
ENDBRANCH  10  11
ENDBRANCH   1  10
TORSDOF 4
ENDMDL
