MODEL 1
REMARK VINA RESULT:      18.7      0.000      0.000
REMARK  1 active torsions:
REMARK  status: ('A' for Active; 'I' for Inactive)
REMARK    1  A    between atoms: O_15  and  C_11 
ROOT
ATOM      1  C   UNL d   1     -58.541 -98.757 -44.704  0.00  0.00     0.139 A 
ATOM      2  N   UNL d   1     -58.056 -98.757 -45.393  0.00  0.00    -0.241 NA
ATOM      3  C   UNL d   1     -58.045 -98.757 -44.053  0.00  0.00     0.025 A 
ATOM      4  C   UNL d   1     -57.260 -98.758 -44.313  0.00  0.00     0.021 A 
ATOM      5  C   UNL d   1     -57.277 -98.758 -45.134  0.00  0.00     0.082 A 
ATOM      6  C   UNL d   1     -59.384 -98.756 -44.618  0.00  0.00     0.297 A 
ATOM      7  N   UNL d   1     -59.707 -98.756 -43.862  0.00  0.00    -0.205 NA
ATOM      8  C   UNL d   1     -56.543 -98.758 -43.920  0.00  0.00     0.026 A 
ATOM      9  O   UNL d   1     -59.881 -98.756 -45.297  0.00  0.00    -0.264 OA
ATOM     10  C   UNL d   1     -56.577 -98.758 -45.566  0.00  0.00     0.021 A 
ATOM     11  C   UNL d   1     -55.841 -98.759 -44.355  0.00  0.00     0.094 A 
ATOM     12  C   UNL d   1     -58.389 -98.757 -43.269  0.00  0.00     0.022 A 
ATOM     13  C   UNL d   1     -59.210 -98.757 -43.184  0.00  0.00     0.102 A 
ATOM     14  C   UNL d   1     -55.848 -98.759 -45.151  0.00  0.00     0.026 A 
ENDROOT
BRANCH  11  15
ATOM     15  O   UNL d   1     -55.097 -98.759 -43.986  0.00  0.00    -0.328 OA
ATOM     16  C   UNL d   1     -54.717 -99.476 -43.787  0.00  0.00     0.181 C 
ENDBRANCH  11  15
TORSDOF 1
ENDMDL
MODEL 2
REMARK VINA RESULT:      20.5      7.052      8.153
REMARK  1 active torsions:
REMARK  status: ('A' for Active; 'I' for Inactive)
REMARK    1  A    between atoms: O_15  and  C_11 
ROOT
ATOM      1  C   UNL d   1     -55.003-102.150 -36.706  0.00  0.00     0.139 A 
ATOM      2  N   UNL d   1     -54.973-102.805 -37.235  0.00  0.00    -0.241 NA
ATOM      3  C   UNL d   1     -54.954-101.468 -37.155  0.00  0.00     0.025 A 
ATOM      4  C   UNL d   1     -54.894-101.674 -37.953  0.00  0.00     0.021 A 
ATOM      5  C   UNL d   1     -54.906-102.495 -37.993  0.00  0.00     0.082 A 
ATOM      6  C   UNL d   1     -55.071-102.120 -35.862  0.00  0.00     0.297 A 
ATOM      7  N   UNL d   1     -55.088-101.387 -35.490  0.00  0.00    -0.205 NA
ATOM      8  C   UNL d   1     -54.830-101.235 -38.640  0.00  0.00     0.026 A 
ATOM      9  O   UNL d   1     -55.121-102.831 -35.414  0.00  0.00    -0.264 OA
ATOM     10  C   UNL d   1     -54.854-102.880 -38.718  0.00  0.00     0.021 A 
ATOM     11  C   UNL d   1     -54.778-101.622 -39.368  0.00  0.00     0.094 A 
ATOM     12  C   UNL d   1     -54.972-100.709 -36.761  0.00  0.00     0.022 A 
ATOM     13  C   UNL d   1     -55.038-100.678 -35.938  0.00  0.00     0.102 A 
ATOM     14  C   UNL d   1     -54.789-102.417 -39.415  0.00  0.00     0.026 A 
ENDROOT
BRANCH  11  15
ATOM     15  O   UNL d   1     -54.713-101.205 -40.082  0.00  0.00    -0.328 OA
ATOM     16  C   UNL d   1     -54.713-101.606 -40.816  0.00  0.00     0.181 C 
ENDBRANCH  11  15
TORSDOF 1
ENDMDL
