MODEL 1
REMARK VINA RESULT:      -2.8      0.000      0.000
REMARK  3 active torsions:
REMARK  status: ('A' for Active; 'I' for Inactive)
REMARK    1  A    between atoms: C_6  and  N_1 
REMARK    2  A    between atoms: C_2  and  C_8 
REMARK    3  A    between atoms: N_3  and  C_2 
REMARK       I    between atoms: C_5  and  N_4 
ROOT
ATOM      1  C   UNL d   1      32.411  17.611 -24.333  0.00  0.00     0.120 C 
ATOM      2  S   UNL d   1      33.002  17.284 -24.807  0.00  0.00    -0.059 SA
ENDROOT
BRANCH   1   3
ATOM      3  C   UNL d   1      31.638  17.337 -24.390  0.00  0.00     0.027 A 
ATOM      4  C   UNL d   1      31.399  16.680 -23.952  0.00  0.00     0.004 A 
ATOM      5  C   UNL d   1      30.621  16.405 -24.010  0.00  0.00     0.024 A 
ATOM      6  C   UNL d   1      30.085  16.787 -24.507  0.00  0.00     0.127 A 
ATOM      7  C   UNL d   1      30.324  17.444 -24.945  0.00  0.00     0.024 A 
ATOM      8  C   UNL d   1      31.098  17.719 -24.887  0.00  0.00     0.004 A 
BRANCH   6   9
ATOM      9  N   UNL d   1      29.311  16.512 -24.564  0.00  0.00    -0.114 N 
ATOM     10  O   UNL d   1      28.739  16.937 -24.143  0.00  0.00    -0.532 OA
ATOM     11  O   UNL d   1      29.086  15.851 -25.010  0.00  0.00    -0.532 OA
ENDBRANCH   6   9
ENDBRANCH   1   3
BRANCH   1  12
ATOM     12  N   UNL d   1      32.595  18.213 -23.802  0.00  0.00    -0.293 N 
ATOM     13  C   UNL d   1      32.688  18.994 -24.071  0.00  0.00     0.100 A 
ATOM     14  C   UNL d   1      32.872  19.595 -23.540  0.00  0.00     0.102 A 
ATOM     15  N   UNL d   1      32.964  19.424 -22.738  0.00  0.00    -0.269 N 
ATOM     16  C   UNL d   1      32.871  18.645 -22.468  0.00  0.00     0.102 A 
ATOM     17  C   UNL d   1      33.148  20.026 -22.206  0.00  0.00     0.265 C 
ATOM     18  C   UNL d   1      32.687  18.043 -23.000  0.00  0.00     0.100 A 
ATOM     19  O   UNL d   1      33.241  19.855 -21.404  0.00  0.00    -0.267 OA
ATOM     20  C   UNL d   1      33.241  20.802 -22.473  0.00  0.00     0.066 C 
ENDBRANCH   1  12
TORSDOF 3
ENDMDL
MODEL 2
REMARK VINA RESULT:      -2.8      1.106      4.329
REMARK  3 active torsions:
REMARK  status: ('A' for Active; 'I' for Inactive)
REMARK    1  A    between atoms: C_6  and  N_1 
REMARK    2  A    between atoms: C_2  and  C_8 
REMARK    3  A    between atoms: N_3  and  C_2 
REMARK       I    between atoms: C_5  and  N_4 
ROOT
ATOM      1  C   UNL d   1      31.828  16.627 -24.356  0.00  0.00     0.120 C 
ATOM      2  S   UNL d   1      32.320  16.111 -24.773  0.00  0.00    -0.059 SA
ENDROOT
BRANCH   1   3
ATOM      3  C   UNL d   1      32.141  17.306 -24.012  0.00  0.00     0.027 A 
ATOM      4  C   UNL d   1      32.104  18.027 -24.412  0.00  0.00     0.004 A 
ATOM      5  C   UNL d   1      32.420  18.708 -24.064  0.00  0.00     0.024 A 
ATOM      6  C   UNL d   1      32.770  18.667 -23.319  0.00  0.00     0.127 A 
ATOM      7  C   UNL d   1      32.806  17.946 -22.919  0.00  0.00     0.024 A 
ATOM      8  C   UNL d   1      32.493  17.267 -23.264  0.00  0.00     0.004 A 
BRANCH   6   9
ATOM      9  N   UNL d   1      33.083  19.347 -22.975  0.00  0.00    -0.114 N 
ATOM     10  O   UNL d   1      33.241  19.976 -23.487  0.00  0.00    -0.532 OA
ATOM     11  O   UNL d   1      33.241  19.424 -22.165  0.00  0.00    -0.532 OA
ENDBRANCH   6   9
ENDBRANCH   1   3
BRANCH   1  12
ATOM     12  N   UNL d   1      31.025  16.463 -24.283  0.00  0.00    -0.293 N 
ATOM     13  C   UNL d   1      30.753  15.959 -23.682  0.00  0.00     0.100 A 
ATOM     14  C   UNL d   1      29.950  15.795 -23.611  0.00  0.00     0.102 A 
ATOM     15  N   UNL d   1      29.411  16.132 -24.136  0.00  0.00    -0.269 N 
ATOM     16  C   UNL d   1      29.681  16.637 -24.738  0.00  0.00     0.102 A 
ATOM     17  C   UNL d   1      28.607  15.969 -24.065  0.00  0.00     0.265 C 
ATOM     18  C   UNL d   1      30.486  16.800 -24.809  0.00  0.00     0.100 A 
ATOM     19  O   UNL d   1      28.068  16.306 -24.591  0.00  0.00    -0.267 OA
ATOM     20  C   UNL d   1      28.336  15.467 -23.468  0.00  0.00     0.066 C 
ENDBRANCH   1  12
TORSDOF 3
ENDMDL
MODEL 3
REMARK VINA RESULT:      -1.7      4.277      6.093
REMARK  3 active torsions:
REMARK  status: ('A' for Active; 'I' for Inactive)
REMARK    1  A    between atoms: C_6  and  N_1 
REMARK    2  A    between atoms: C_2  and  C_8 
REMARK    3  A    between atoms: N_3  and  C_2 
REMARK       I    between atoms: C_5  and  N_4 
ROOT
ATOM      1  C   UNL d   1      32.447  22.983 -20.659  0.00  0.00     0.120 C 
ATOM      2  S   UNL d   1      32.283  23.611 -21.169  0.00  0.00    -0.059 SA
ENDROOT
BRANCH   1   3
ATOM      3  C   UNL d   1      32.591  22.232 -20.963  0.00  0.00     0.027 A 
ATOM      4  C   UNL d   1      32.230  21.573 -20.622  0.00  0.00     0.004 A 
ATOM      5  C   UNL d   1      32.376  20.818 -20.929  0.00  0.00     0.024 A 
ATOM      6  C   UNL d   1      32.880  20.726 -21.574  0.00  0.00     0.127 A 
ATOM      7  C   UNL d   1      33.241  21.386 -21.914  0.00  0.00     0.024 A 
ATOM      8  C   UNL d   1      33.097  22.137 -21.610  0.00  0.00     0.004 A 
BRANCH   6   9
ATOM      9  N   UNL d   1      33.024  19.974 -21.878  0.00  0.00    -0.114 N 
ATOM     10  O   UNL d   1      33.233  19.391 -21.330  0.00  0.00    -0.532 OA
ATOM     11  O   UNL d   1      32.970  19.782 -22.683  0.00  0.00    -0.532 OA
ENDBRANCH   6   9
ENDBRANCH   1   3
BRANCH   1  12
ATOM     12  N   UNL d   1      32.467  23.107 -19.845  0.00  0.00    -0.293 N 
ATOM     13  C   UNL d   1      33.181  23.027 -19.427  0.00  0.00     0.100 A 
ATOM     14  C   UNL d   1      33.200  23.151 -18.614  0.00  0.00     0.102 A 
ATOM     15  N   UNL d   1      32.511  23.357 -18.211  0.00  0.00    -0.269 N 
ATOM     16  C   UNL d   1      31.797  23.438 -18.627  0.00  0.00     0.102 A 
ATOM     17  C   UNL d   1      32.530  23.482 -17.397  0.00  0.00     0.265 C 
ATOM     18  C   UNL d   1      31.778  23.313 -19.441  0.00  0.00     0.100 A 
ATOM     19  O   UNL d   1      31.840  23.687 -16.993  0.00  0.00    -0.267 OA
ATOM     20  C   UNL d   1      33.239  23.401 -16.981  0.00  0.00     0.066 C 
ENDBRANCH   1  12
TORSDOF 3
ENDMDL
MODEL 4
REMARK VINA RESULT:      -1.4      1.422      4.429
REMARK  3 active torsions:
REMARK  status: ('A' for Active; 'I' for Inactive)
REMARK    1  A    between atoms: C_6  and  N_1 
REMARK    2  A    between atoms: C_2  and  C_8 
REMARK    3  A    between atoms: N_3  and  C_2 
REMARK       I    between atoms: C_5  and  N_4 
ROOT
ATOM      1  C   UNL d   1      32.866  19.229 -23.449  0.00  0.00     0.120 C 
ATOM      2  S   UNL d   1      33.238  19.543 -24.116  0.00  0.00    -0.059 SA
ENDROOT
BRANCH   1   3
ATOM      3  C   UNL d   1      32.837  19.663 -22.751  0.00  0.00     0.027 A 
ATOM      4  C   UNL d   1      32.406  20.365 -22.718  0.00  0.00     0.004 A 
ATOM      5  C   UNL d   1      32.378  20.801 -22.015  0.00  0.00     0.024 A 
ATOM      6  C   UNL d   1      32.781  20.532 -21.348  0.00  0.00     0.127 A 
ATOM      7  C   UNL d   1      33.211  19.829 -21.381  0.00  0.00     0.024 A 
ATOM      8  C   UNL d   1      33.240  19.395 -22.080  0.00  0.00     0.004 A 
BRANCH   6   9
ATOM      9  N   UNL d   1      32.751  20.966 -20.649  0.00  0.00    -0.114 N 
ATOM     10  O   UNL d   1      32.205  21.586 -20.626  0.00  0.00    -0.532 OA
ATOM     11  O   UNL d   1      33.230  20.815 -19.989  0.00  0.00    -0.532 OA
ENDBRANCH   6   9
ENDBRANCH   1   3
BRANCH   1  12
ATOM     12  N   UNL d   1      32.523  18.481 -23.482  0.00  0.00    -0.293 N 
ATOM     13  C   UNL d   1      32.981  17.804 -23.335  0.00  0.00     0.100 A 
ATOM     14  C   UNL d   1      32.639  17.057 -23.368  0.00  0.00     0.102 A 
ATOM     15  N   UNL d   1      31.838  16.978 -23.549  0.00  0.00    -0.269 N 
ATOM     16  C   UNL d   1      31.379  17.653 -23.697  0.00  0.00     0.102 A 
ATOM     17  C   UNL d   1      31.494  16.229 -23.582  0.00  0.00     0.265 C 
ATOM     18  C   UNL d   1      31.722  18.401 -23.663  0.00  0.00     0.100 A 
ATOM     19  O   UNL d   1      30.693  16.150 -23.763  0.00  0.00    -0.267 OA
ATOM     20  C   UNL d   1      31.949  15.556 -23.436  0.00  0.00     0.066 C 
ENDBRANCH   1  12
TORSDOF 3
ENDMDL
MODEL 5
REMARK VINA RESULT:      -1.3      1.455      1.974
REMARK  3 active torsions:
REMARK  status: ('A' for Active; 'I' for Inactive)
REMARK    1  A    between atoms: C_6  and  N_1 
REMARK    2  A    between atoms: C_2  and  C_8 
REMARK    3  A    between atoms: N_3  and  C_2 
REMARK       I    between atoms: C_5  and  N_4 
ROOT
ATOM      1  C   UNL d   1      32.911  19.067 -23.898  0.00  0.00     0.120 C 
ATOM      2  S   UNL d   1      33.241  19.315 -24.614  0.00  0.00    -0.059 SA
ENDROOT
BRANCH   1   3
ATOM      3  C   UNL d   1      32.568  18.322 -23.839  0.00  0.00     0.027 A 
ATOM      4  C   UNL d   1      33.021  17.676 -23.598  0.00  0.00     0.004 A 
ATOM      5  C   UNL d   1      32.675  16.927 -23.539  0.00  0.00     0.024 A 
ATOM      6  C   UNL d   1      31.877  16.827 -23.721  0.00  0.00     0.127 A 
ATOM      7  C   UNL d   1      31.424  17.473 -23.963  0.00  0.00     0.024 A 
ATOM      8  C   UNL d   1      31.768  18.218 -24.022  0.00  0.00     0.004 A 
BRANCH   6   9
ATOM      9  N   UNL d   1      31.534  16.080 -23.662  0.00  0.00    -0.114 N 
ATOM     10  O   UNL d   1      31.905  15.546 -23.151  0.00  0.00    -0.532 OA
ATOM     11  O   UNL d   1      30.855  15.849 -24.078  0.00  0.00    -0.532 OA
ENDBRANCH   6   9
ENDBRANCH   1   3
BRANCH   1  12
ATOM     12  N   UNL d   1      32.927  19.565 -23.243  0.00  0.00    -0.293 N 
ATOM     13  C   UNL d   1      33.196  19.284 -22.510  0.00  0.00     0.100 A 
ATOM     14  C   UNL d   1      33.211  19.782 -21.856  0.00  0.00     0.102 A 
ATOM     15  N   UNL d   1      32.958  20.564 -21.926  0.00  0.00    -0.269 N 
ATOM     16  C   UNL d   1      32.688  20.847 -22.658  0.00  0.00     0.102 A 
ATOM     17  C   UNL d   1      32.973  21.064 -21.271  0.00  0.00     0.265 C 
ATOM     18  C   UNL d   1      32.673  20.347 -23.313  0.00  0.00     0.100 A 
ATOM     19  O   UNL d   1      32.719  21.846 -21.341  0.00  0.00    -0.267 OA
ATOM     20  C   UNL d   1      33.241  20.784 -20.541  0.00  0.00     0.066 C 
ENDBRANCH   1  12
TORSDOF 3
ENDMDL
MODEL 6
REMARK VINA RESULT:      -0.9      2.631      5.061
REMARK  3 active torsions:
REMARK  status: ('A' for Active; 'I' for Inactive)
REMARK    1  A    between atoms: C_6  and  N_1 
REMARK    2  A    between atoms: C_2  and  C_8 
REMARK    3  A    between atoms: N_3  and  C_2 
REMARK       I    between atoms: C_5  and  N_4 
ROOT
ATOM      1  C   UNL d   1      32.965  20.060 -21.361  0.00  0.00     0.120 C 
ATOM      2  S   UNL d   1      33.240  19.594 -20.736  0.00  0.00    -0.059 SA
ENDROOT
BRANCH   1   3
ATOM      3  C   UNL d   1      32.720  20.833 -21.222  0.00  0.00     0.027 A 
ATOM      4  C   UNL d   1      33.233  21.461 -21.370  0.00  0.00     0.004 A 
ATOM      5  C   UNL d   1      32.986  22.238 -21.229  0.00  0.00     0.024 A 
ATOM      6  C   UNL d   1      32.228  22.383 -20.942  0.00  0.00     0.127 A 
ATOM      7  C   UNL d   1      31.714  21.755 -20.794  0.00  0.00     0.024 A 
ATOM      8  C   UNL d   1      31.960  20.981 -20.933  0.00  0.00     0.004 A 
BRANCH   6   9
ATOM      9  N   UNL d   1      31.983  23.158 -20.803  0.00  0.00    -0.114 N 
ATOM     10  O   UNL d   1      32.577  23.701 -20.614  0.00  0.00    -0.532 OA
ATOM     11  O   UNL d   1      31.194  23.408 -20.842  0.00  0.00    -0.532 OA
ENDBRANCH   6   9
ENDBRANCH   1   3
BRANCH   1  12
ATOM     12  N   UNL d   1      32.935  19.750 -22.123  0.00  0.00    -0.293 N 
ATOM     13  C   UNL d   1      33.235  20.186 -22.763  0.00  0.00     0.100 A 
ATOM     14  C   UNL d   1      33.205  19.877 -23.525  0.00  0.00     0.102 A 
ATOM     15  N   UNL d   1      32.876  19.131 -23.655  0.00  0.00    -0.269 N 
ATOM     16  C   UNL d   1      32.576  18.695 -23.017  0.00  0.00     0.102 A 
ATOM     17  C   UNL d   1      32.846  18.821 -24.418  0.00  0.00     0.265 C 
ATOM     18  C   UNL d   1      32.606  19.005 -22.254  0.00  0.00     0.100 A 
ATOM     19  O   UNL d   1      32.517  18.076 -24.549  0.00  0.00    -0.267 OA
ATOM     20  C   UNL d   1      33.144  19.254 -25.055  0.00  0.00     0.066 C 
ENDBRANCH   1  12
TORSDOF 3
ENDMDL
MODEL 7
REMARK VINA RESULT:       0.0      1.418      4.297
REMARK  3 active torsions:
REMARK  status: ('A' for Active; 'I' for Inactive)
REMARK    1  A    between atoms: C_6  and  N_1 
REMARK    2  A    between atoms: C_2  and  C_8 
REMARK    3  A    between atoms: N_3  and  C_2 
REMARK       I    between atoms: C_5  and  N_4 
ROOT
ATOM      1  C   UNL d   1      32.722  18.156 -23.174  0.00  0.00     0.120 C 
ATOM      2  S   UNL d   1      33.240  17.725 -22.697  0.00  0.00    -0.059 SA
ENDROOT
BRANCH   1   3
ATOM      3  C   UNL d   1      32.836  18.964 -23.281  0.00  0.00     0.027 A 
ATOM      4  C   UNL d   1      32.997  19.262 -24.033  0.00  0.00     0.004 A 
ATOM      5  C   UNL d   1      33.111  20.075 -24.139  0.00  0.00     0.024 A 
ATOM      6  C   UNL d   1      33.064  20.585 -23.494  0.00  0.00     0.127 A 
ATOM      7  C   UNL d   1      32.903  20.286 -22.742  0.00  0.00     0.024 A 
ATOM      8  C   UNL d   1      32.789  19.478 -22.635  0.00  0.00     0.004 A 
BRANCH   6   9
ATOM      9  N   UNL d   1      33.178  21.394 -23.601  0.00  0.00    -0.114 N 
ATOM     10  O   UNL d   1      33.241  21.654 -24.384  0.00  0.00    -0.532 OA
ATOM     11  O   UNL d   1      33.232  21.940 -22.980  0.00  0.00    -0.532 OA
ENDBRANCH   6   9
ENDBRANCH   1   3
BRANCH   1  12
ATOM     12  N   UNL d   1      32.091  17.778 -23.544  0.00  0.00    -0.293 N 
ATOM     13  C   UNL d   1      31.324  18.092 -23.486  0.00  0.00     0.100 A 
ATOM     14  C   UNL d   1      30.693  17.713 -23.855  0.00  0.00     0.102 A 
ATOM     15  N   UNL d   1      30.821  17.020 -24.284  0.00  0.00    -0.269 N 
ATOM     16  C   UNL d   1      31.587  16.706 -24.342  0.00  0.00     0.102 A 
ATOM     17  C   UNL d   1      30.190  16.641 -24.654  0.00  0.00     0.265 C 
ATOM     18  C   UNL d   1      32.218  17.085 -23.973  0.00  0.00     0.100 A 
ATOM     19  O   UNL d   1      30.317  15.948 -25.083  0.00  0.00    -0.267 OA
ATOM     20  C   UNL d   1      29.427  16.953 -24.597  0.00  0.00     0.066 C 
ENDBRANCH   1  12
TORSDOF 3
ENDMDL
MODEL 8
REMARK VINA RESULT:       0.0      4.101      7.064
REMARK  3 active torsions:
REMARK  status: ('A' for Active; 'I' for Inactive)
REMARK    1  A    between atoms: C_6  and  N_1 
REMARK    2  A    between atoms: C_2  and  C_8 
REMARK    3  A    between atoms: N_3  and  C_2 
REMARK       I    between atoms: C_5  and  N_4 
ROOT
ATOM      1  C   UNL d   1      33.006  23.025 -20.370  0.00  0.00     0.120 C 
ATOM      2  S   UNL d   1      33.178  23.701 -20.812  0.00  0.00    -0.059 SA
ENDROOT
BRANCH   1   3
ATOM      3  C   UNL d   1      32.848  23.088 -19.565  0.00  0.00     0.027 A 
ATOM      4  C   UNL d   1      32.299  23.640 -19.293  0.00  0.00     0.004 A 
ATOM      5  C   UNL d   1      32.141  23.702 -18.483  0.00  0.00     0.024 A 
ATOM      6  C   UNL d   1      32.534  23.213 -17.949  0.00  0.00     0.127 A 
ATOM      7  C   UNL d   1      33.083  22.661 -18.220  0.00  0.00     0.024 A 
ATOM      8  C   UNL d   1      33.241  22.598 -19.026  0.00  0.00     0.004 A 
BRANCH   6   9
ATOM      9  N   UNL d   1      32.376  23.277 -17.143  0.00  0.00    -0.114 N 
ATOM     10  O   UNL d   1      31.677  22.922 -16.878  0.00  0.00    -0.532 OA
ATOM     11  O   UNL d   1      32.869  23.667 -16.604  0.00  0.00    -0.532 OA
ENDBRANCH   6   9
ENDBRANCH   1   3
BRANCH   1  12
ATOM     12  N   UNL d   1      32.992  22.287 -20.734  0.00  0.00    -0.293 N 
ATOM     13  C   UNL d   1      33.237  21.610 -20.319  0.00  0.00     0.100 A 
ATOM     14  C   UNL d   1      33.223  20.873 -20.683  0.00  0.00     0.102 A 
ATOM     15  N   UNL d   1      32.966  20.803 -21.464  0.00  0.00    -0.269 N 
ATOM     16  C   UNL d   1      32.721  21.478 -21.881  0.00  0.00     0.102 A 
ATOM     17  C   UNL d   1      32.951  20.065 -21.830  0.00  0.00     0.265 C 
ATOM     18  C   UNL d   1      32.735  22.217 -21.515  0.00  0.00     0.100 A 
ATOM     19  O   UNL d   1      32.694  19.995 -22.611  0.00  0.00    -0.267 OA
ATOM     20  C   UNL d   1      33.194  19.392 -21.417  0.00  0.00     0.066 C 
ENDBRANCH   1  12
TORSDOF 3
ENDMDL
