MODEL 1
REMARK VINA RESULT:       1.1      0.000      0.000
REMARK  4 active torsions:
REMARK  status: ('A' for Active; 'I' for Inactive)
REMARK    1  A    between atoms: S_4  and  C_3 
REMARK    2  A    between atoms: C_12  and  S_4 
REMARK    3  A    between atoms: C_23  and  N_6 
REMARK    4  A    between atoms: C_27  and  C_23 
ROOT
ATOM      1  C   UNL d   1     -41.602-121.739 -52.877  0.00  0.00     0.155 A 
ATOM      2  C   UNL d   1     -41.873-122.503 -52.755  0.00  0.00     0.092 A 
ATOM      3  C   UNL d   1     -41.729-122.320 -51.350  0.00  0.00     0.124 A 
ATOM      4  N   UNL d   1     -41.537-121.442 -53.643  0.00  0.00    -0.210 NA
ATOM      5  N   UNL d   1     -41.396-121.267 -52.240  0.00  0.00    -0.273 N 
ATOM      6  C   UNL d   1     -41.460-121.560 -51.472  0.00  0.00     0.181 A 
ATOM      7  C   UNL d   1     -42.082-122.979 -53.397  0.00  0.00     0.269 A 
ATOM      8  N   UNL d   1     -42.016-122.683 -54.161  0.00  0.00    -0.258 N 
ATOM      9  C   UNL d   1     -41.939-122.800 -51.990  0.00  0.00     0.022 A 
ATOM     10  C   UNL d   1     -41.744-121.914 -54.285  0.00  0.00     0.152 A 
ATOM     11  N   UNL d   1     -41.250-121.080 -50.831  0.00  0.00    -0.128 N 
ATOM     12  C   UNL d   1     -42.226-123.162 -54.803  0.00  0.00     0.084 A 
ATOM     13  O   UNL d   1     -42.354-123.747 -53.266  0.00  0.00    -0.266 OA
ATOM     14  C   UNL d   1     -41.681-121.625 -55.049  0.00  0.00     0.038 A 
ATOM     15  C   UNL d   1     -42.157-122.857 -55.560  0.00  0.00     0.019 A 
ATOM     16  C   UNL d   1     -41.884-122.089 -55.684  0.00  0.00     0.005 A 
ENDROOT
BRANCH   3  17
ATOM     17  S   UNL d   1     -41.794-122.616 -50.576  0.00  0.00     0.213 S 
ATOM     18  O   UNL d   1     -42.454-122.145 -50.456  0.00  0.00    -0.217 OA
ATOM     19  O   UNL d   1     -41.123-123.091 -50.709  0.00  0.00    -0.217 OA
BRANCH  17  20
ATOM     20  C   UNL d   1     -41.851-122.917 -49.808  0.00  0.00     0.088 A 
ATOM     21  C   UNL d   1     -42.584-123.162 -49.519  0.00  0.00     0.011 A 
ATOM     22  C   UNL d   1     -42.642-123.460 -48.759  0.00  0.00     0.001 A 
ATOM     23  C   UNL d   1     -43.375-123.705 -48.469  0.00  0.00     0.000 C 
ATOM     24  C   UNL d   1     -41.967-123.515 -48.279  0.00  0.00     0.000 A 
ATOM     25  C   UNL d   1     -41.234-123.270 -48.568  0.00  0.00     0.001 A 
ATOM     26  C   UNL d   1     -42.028-123.817 -47.508  0.00  0.00     0.000 C 
ATOM     27  C   UNL d   1     -41.173-122.968 -49.339  0.00  0.00     0.011 A 
ENDBRANCH  17  20
ENDBRANCH   3  17
BRANCH   5  28
ATOM     28  C   UNL d   1     -41.124-120.499 -52.372  0.00  0.00     0.083 C 
BRANCH  28  29
ATOM     29  C   UNL d   1     -41.271-119.912 -51.811  0.00  0.00     0.019 C 
ATOM     30  C   UNL d   1     -41.279-119.117 -52.033  0.00  0.00     0.002 C 
ENDBRANCH  28  29
ENDBRANCH   5  28
TORSDOF 4
ENDMDL
