MODEL 1
REMARK VINA RESULT:      -3.8      0.000      0.000
REMARK  7 active torsions:
REMARK  status: ('A' for Active; 'I' for Inactive)
REMARK    1  A    between atoms: S_7  and  C_1 
REMARK    2  A    between atoms: C_6  and  C_8 
REMARK       I    between atoms: N_10  and  C_6 
REMARK    3  A    between atoms: C_13  and  S_7 
REMARK    4  A    between atoms: C_21  and  N_10 
REMARK    5  A    between atoms: C_14  and  C_13 
REMARK    6  A    between atoms: C_17  and  C_21 
REMARK    7  A    between atoms: C_22  and  C_17 
ROOT
ATOM      1  C   UNL d   1      32.392  22.351 -21.059  0.00  0.00     0.058 A 
ATOM      2  C   UNL d   1      32.971  22.262 -21.627  0.00  0.00     0.005 A 
ATOM      3  C   UNL d   1      32.032  21.667 -20.730  0.00  0.00     0.005 A 
ATOM      4  C   UNL d   1      32.848  20.829 -21.552  0.00  0.00     0.007 A 
ATOM      5  C   UNL d   1      32.251  20.935 -20.967  0.00  0.00     0.001 A 
ATOM      6  C   UNL d   1      33.196  21.511 -21.870  0.00  0.00     0.001 A 
ENDROOT
BRANCH   4   7
ATOM      7  C   UNL d   1      33.067  20.097 -21.789  0.00  0.00     0.038 C 
BRANCH   7   8
ATOM      8  S   UNL d   1      33.112  19.913 -22.610  0.00  0.00    -0.048 SA
BRANCH   8   9
ATOM      9  C   UNL d   1      32.956  19.139 -22.874  0.00  0.00     0.194 A 
ATOM     10  N   UNL d   1      33.241  18.449 -22.521  0.00  0.00    -0.220 NA
ATOM     11  C   UNL d   1      32.956  17.817 -22.956  0.00  0.00     0.101 A 
ATOM     12  C   UNL d   1      33.044  17.014 -22.884  0.00  0.00     0.021 A 
ATOM     13  C   UNL d   1      32.498  18.120 -23.573  0.00  0.00     0.101 A 
ATOM     14  C   UNL d   1      32.695  16.523 -23.399  0.00  0.00     0.002 A 
ATOM     15  C   UNL d   1      32.237  16.827 -24.016  0.00  0.00     0.002 A 
ATOM     16  C   UNL d   1      32.128  17.621 -24.119  0.00  0.00     0.021 A 
ATOM     17  N   UNL d   1      32.505  18.937 -23.513  0.00  0.00    -0.220 NA
ENDBRANCH   8   9
ENDBRANCH   7   8
ENDBRANCH   4   7
BRANCH   1  18
ATOM     18  C   UNL d   1      32.186  23.120 -20.835  0.00  0.00     0.279 C 
ATOM     19  O   UNL d   1      31.724  23.577 -21.346  0.00  0.00    -0.265 OA
ATOM     20  N   UNL d   1      32.435  23.433 -20.114  0.00  0.00    -0.206 NA
BRANCH  20  21
ATOM     21  C   UNL d   1      32.896  22.981 -19.603  0.00  0.00     0.106 C 
BRANCH  21  22
ATOM     22  C   UNL d   1      33.209  23.322 -18.913  0.00  0.00     0.066 C 
BRANCH  22  23
ATOM     23  C   UNL d   1      32.922  23.097 -18.180  0.00  0.00     0.236 C 
ATOM     24  O   UNL d   1      33.241  23.424 -17.489  0.00  0.00    -0.283 OA
ENDBRANCH  22  23
ENDBRANCH  21  22
ENDBRANCH  20  21
ENDBRANCH   1  18
TORSDOF 7
ENDMDL
MODEL 2
REMARK VINA RESULT:      -3.8      2.852      5.946
REMARK  7 active torsions:
REMARK  status: ('A' for Active; 'I' for Inactive)
REMARK    1  A    between atoms: S_7  and  C_1 
REMARK    2  A    between atoms: C_6  and  C_8 
REMARK       I    between atoms: N_10  and  C_6 
REMARK    3  A    between atoms: C_13  and  S_7 
REMARK    4  A    between atoms: C_21  and  N_10 
REMARK    5  A    between atoms: C_14  and  C_13 
REMARK    6  A    between atoms: C_17  and  C_21 
REMARK    7  A    between atoms: C_22  and  C_17 
ROOT
ATOM      1  C   UNL d   1      32.633  17.538 -24.046  0.00  0.00     0.058 A 
ATOM      2  C   UNL d   1      32.715  17.548 -23.235  0.00  0.00     0.005 A 
ATOM      3  C   UNL d   1      32.734  18.251 -24.478  0.00  0.00     0.005 A 
ATOM      4  C   UNL d   1      32.996  18.960 -23.264  0.00  0.00     0.007 A 
ATOM      5  C   UNL d   1      32.909  18.935 -24.102  0.00  0.00     0.001 A 
ATOM      6  C   UNL d   1      32.894  18.250 -22.849  0.00  0.00     0.001 A 
ENDROOT
BRANCH   4   7
ATOM      7  C   UNL d   1      33.170  19.644 -22.888  0.00  0.00     0.038 C 
BRANCH   7   8
ATOM      8  S   UNL d   1      32.892  19.781 -22.105  0.00  0.00    -0.048 SA
BRANCH   8   9
ATOM      9  C   UNL d   1      32.849  20.555 -21.805  0.00  0.00     0.194 A 
ATOM     10  N   UNL d   1      32.452  20.778 -21.116  0.00  0.00    -0.220 NA
ATOM     11  C   UNL d   1      32.551  21.585 -21.027  0.00  0.00     0.101 A 
ATOM     12  C   UNL d   1      32.295  22.113 -20.467  0.00  0.00     0.021 A 
ATOM     13  C   UNL d   1      33.008  21.856 -21.660  0.00  0.00     0.101 A 
ATOM     14  C   UNL d   1      32.480  22.881 -20.524  0.00  0.00     0.002 A 
ATOM     15  C   UNL d   1      32.937  23.152 -21.157  0.00  0.00     0.002 A 
ATOM     16  C   UNL d   1      33.209  22.654 -21.733  0.00  0.00     0.021 A 
ATOM     17  N   UNL d   1      33.186  21.212 -22.133  0.00  0.00    -0.220 NA
ENDBRANCH   8   9
ENDBRANCH   7   8
ENDBRANCH   4   7
BRANCH   1  18
ATOM     18  C   UNL d   1      32.453  16.815 -24.407  0.00  0.00     0.279 C 
ATOM     19  O   UNL d   1      33.067  16.291 -24.586  0.00  0.00    -0.265 OA
ATOM     20  N   UNL d   1      31.674  16.613 -24.587  0.00  0.00    -0.206 NA
BRANCH  20  21
ATOM     21  C   UNL d   1      31.060  17.132 -24.410  0.00  0.00     0.106 C 
BRANCH  21  22
ATOM     22  C   UNL d   1      30.271  16.875 -24.458  0.00  0.00     0.066 C 
BRANCH  22  23
ATOM     23  C   UNL d   1      29.688  17.390 -24.713  0.00  0.00     0.236 C 
ATOM     24  O   UNL d   1      28.941  17.384 -24.356  0.00  0.00    -0.283 OA
ENDBRANCH  22  23
ENDBRANCH  21  22
ENDBRANCH  20  21
ENDBRANCH   1  18
TORSDOF 7
ENDMDL
MODEL 3
REMARK VINA RESULT:      -1.8      1.218      2.356
REMARK  7 active torsions:
REMARK  status: ('A' for Active; 'I' for Inactive)
REMARK    1  A    between atoms: S_7  and  C_1 
REMARK    2  A    between atoms: C_6  and  C_8 
REMARK       I    between atoms: N_10  and  C_6 
REMARK    3  A    between atoms: C_13  and  S_7 
REMARK    4  A    between atoms: C_21  and  N_10 
REMARK    5  A    between atoms: C_14  and  C_13 
REMARK    6  A    between atoms: C_17  and  C_21 
REMARK    7  A    between atoms: C_22  and  C_17 
ROOT
ATOM      1  C   UNL d   1      32.734  21.719 -21.285  0.00  0.00     0.058 A 
ATOM      2  C   UNL d   1      32.462  21.078 -20.861  0.00  0.00     0.005 A 
ATOM      3  C   UNL d   1      33.120  21.590 -22.020  0.00  0.00     0.005 A 
ATOM      4  C   UNL d   1      32.946  20.179 -21.876  0.00  0.00     0.007 A 
ATOM      5  C   UNL d   1      33.223  20.850 -22.304  0.00  0.00     0.001 A 
ATOM      6  C   UNL d   1      32.566  20.318 -21.153  0.00  0.00     0.001 A 
ENDROOT
BRANCH   4   7
ATOM      7  C   UNL d   1      33.048  19.438 -22.160  0.00  0.00     0.038 C 
BRANCH   7   8
ATOM      8  S   UNL d   1      32.812  19.249 -22.946  0.00  0.00    -0.048 SA
BRANCH   8   9
ATOM      9  C   UNL d   1      32.700  18.456 -23.171  0.00  0.00     0.194 A 
ATOM     10  N   UNL d   1      32.130  18.189 -23.706  0.00  0.00    -0.220 NA
ATOM     11  C   UNL d   1      32.213  17.376 -23.765  0.00  0.00     0.101 A 
ATOM     12  C   UNL d   1      31.820  16.812 -24.195  0.00  0.00     0.021 A 
ATOM     13  C   UNL d   1      32.831  17.148 -23.266  0.00  0.00     0.101 A 
ATOM     14  C   UNL d   1      32.025  16.049 -24.140  0.00  0.00     0.002 A 
ATOM     15  C   UNL d   1      32.643  15.821 -23.642  0.00  0.00     0.002 A 
ATOM     16  C   UNL d   1      33.056  16.355 -23.198  0.00  0.00     0.021 A 
ATOM     17  N   UNL d   1      33.124  17.821 -22.905  0.00  0.00    -0.220 NA
ENDBRANCH   8   9
ENDBRANCH   7   8
ENDBRANCH   4   7
BRANCH   1  18
ATOM     18  C   UNL d   1      32.614  22.473 -20.966  0.00  0.00     0.279 C 
ATOM     19  O   UNL d   1      32.595  22.562 -20.144  0.00  0.00    -0.265 OA
ATOM     20  N   UNL d   1      32.513  23.129 -21.454  0.00  0.00    -0.206 NA
BRANCH  20  21
ATOM     21  C   UNL d   1      32.531  23.045 -22.272  0.00  0.00     0.106 C 
BRANCH  21  22
ATOM     22  C   UNL d   1      32.398  23.702 -22.762  0.00  0.00     0.066 C 
BRANCH  22  23
ATOM     23  C   UNL d   1      32.603  23.670 -23.554  0.00  0.00     0.236 C 
ATOM     24  O   UNL d   1      32.016  23.693 -24.138  0.00  0.00    -0.283 OA
ENDBRANCH  22  23
ENDBRANCH  21  22
ENDBRANCH  20  21
ENDBRANCH   1  18
TORSDOF 7
ENDMDL
MODEL 4
REMARK VINA RESULT:      -0.9      3.582      6.208
REMARK  7 active torsions:
REMARK  status: ('A' for Active; 'I' for Inactive)
REMARK    1  A    between atoms: S_7  and  C_1 
REMARK    2  A    between atoms: C_6  and  C_8 
REMARK       I    between atoms: N_10  and  C_6 
REMARK    3  A    between atoms: C_13  and  S_7 
REMARK    4  A    between atoms: C_21  and  N_10 
REMARK    5  A    between atoms: C_14  and  C_13 
REMARK    6  A    between atoms: C_17  and  C_21 
REMARK    7  A    between atoms: C_22  and  C_17 
ROOT
ATOM      1  C   UNL d   1      32.305  16.966 -24.465  0.00  0.00     0.058 A 
ATOM      2  C   UNL d   1      31.965  17.429 -25.044  0.00  0.00     0.005 A 
ATOM      3  C   UNL d   1      32.834  17.318 -23.917  0.00  0.00     0.005 A 
ATOM      4  C   UNL d   1      32.662  18.588 -24.550  0.00  0.00     0.007 A 
ATOM      5  C   UNL d   1      33.006  18.098 -23.957  0.00  0.00     0.001 A 
ATOM      6  C   UNL d   1      32.142  18.229 -25.086  0.00  0.00     0.001 A 
ENDROOT
BRANCH   4   7
ATOM      7  C   UNL d   1      32.834  19.368 -24.591  0.00  0.00     0.038 C 
BRANCH   7   8
ATOM      8  S   UNL d   1      32.963  19.811 -23.887  0.00  0.00    -0.048 SA
BRANCH   8   9
ATOM      9  C   UNL d   1      33.029  20.640 -23.920  0.00  0.00     0.194 A 
ATOM     10  N   UNL d   1      33.067  21.088 -24.613  0.00  0.00    -0.220 NA
ATOM     11  C   UNL d   1      33.129  21.873 -24.393  0.00  0.00     0.101 A 
ATOM     12  C   UNL d   1      33.185  22.562 -24.819  0.00  0.00     0.021 A 
ATOM     13  C   UNL d   1      33.128  21.906 -23.568  0.00  0.00     0.101 A 
ATOM     14  C   UNL d   1      33.239  23.260 -24.448  0.00  0.00     0.002 A 
ATOM     15  C   UNL d   1      33.239  23.293 -23.623  0.00  0.00     0.002 A 
ATOM     16  C   UNL d   1      33.184  22.627 -23.167  0.00  0.00     0.021 A 
ATOM     17  N   UNL d   1      33.066  21.140 -23.286  0.00  0.00    -0.220 NA
ENDBRANCH   8   9
ENDBRANCH   7   8
ENDBRANCH   4   7
BRANCH   1  18
ATOM     18  C   UNL d   1      32.108  16.162 -24.448  0.00  0.00     0.279 C 
ATOM     19  O   UNL d   1      32.634  15.613 -24.772  0.00  0.00    -0.265 OA
ATOM     20  N   UNL d   1      31.399  15.906 -24.115  0.00  0.00    -0.206 NA
BRANCH  20  21
ATOM     21  C   UNL d   1      30.873  16.449 -23.791  0.00  0.00     0.106 C 
BRANCH  21  22
ATOM     22  C   UNL d   1      30.113  16.206 -23.559  0.00  0.00     0.066 C 
BRANCH  22  23
ATOM     23  C   UNL d   1      29.452  16.567 -23.880  0.00  0.00     0.236 C 
ATOM     24  O   UNL d   1      28.708  16.461 -23.531  0.00  0.00    -0.283 OA
ENDBRANCH  22  23
ENDBRANCH  21  22
ENDBRANCH  20  21
ENDBRANCH   1  18
TORSDOF 7
ENDMDL
