MODEL 1
REMARK VINA RESULT:      -4.3      0.000      0.000
REMARK  6 active torsions:
REMARK  status: ('A' for Active; 'I' for Inactive)
REMARK    1  A    between atoms: N_15  and  C_1 
REMARK    2  A    between atoms: C_21  and  N_6 
REMARK    3  A    between atoms: C_16  and  C_8 
REMARK    4  A    between atoms: C_9  and  S_17 
REMARK       I    between atoms: C_20  and  N_15 
REMARK    5  A    between atoms: S_17  and  C_23 
REMARK    6  A    between atoms: C_23  and  C_20 
ROOT
ATOM      1  C   UNL d   1     -42.377  13.152  20.870  0.00  0.00     0.099 C 
ENDROOT
BRANCH   1   2
ATOM      2  S   UNL d   1     -41.739  13.744  21.034  0.00  0.00    -0.064 SA
BRANCH   2   3
ATOM      3  C   UNL d   1     -41.056  14.030  20.599  0.00  0.00     0.096 A 
ATOM      4  N   UNL d   1     -40.311  13.997  20.948  0.00  0.00    -0.285 N 
ATOM      5  C   UNL d   1     -39.641  14.277  20.522  0.00  0.00     0.150 A 
ATOM      6  C   UNL d   1     -39.451  13.662  22.062  0.00  0.00     0.084 A 
ATOM      7  N   UNL d   1     -38.882  14.247  20.869  0.00  0.00    -0.227 NA
ATOM      8  C   UNL d   1     -39.737  14.581  19.762  0.00  0.00     0.056 A 
ATOM      9  C   UNL d   1     -38.781  13.941  21.636  0.00  0.00     0.099 A 
ATOM     10  C   UNL d   1     -38.036  13.909  21.985  0.00  0.00     0.021 A 
ATOM     11  C   UNL d   1     -37.940  13.605  22.746  0.00  0.00     0.002 A 
ATOM     12  C   UNL d   1     -38.599  13.330  23.164  0.00  0.00     0.002 A 
ATOM     13  C   UNL d   1     -39.355  13.358  22.823  0.00  0.00     0.019 A 
ATOM     14  C   UNL d   1     -40.498  14.611  19.413  0.00  0.00     0.006 A 
ATOM     15  C   UNL d   1     -41.152  14.334  19.838  0.00  0.00     0.025 A 
ATOM     16  C   UNL d   1     -40.589  14.913  18.659  0.00  0.00     0.000 C 
BRANCH   8  17
ATOM     17  C   UNL d   1     -39.083  14.858  19.336  0.00  0.00     0.125 C 
ATOM     18  N   UNL d   1     -38.831  14.402  18.692  0.00  0.00    -0.146 N 
ENDBRANCH   8  17
ENDBRANCH   2   3
ENDBRANCH   1   2
BRANCH   1  19
ATOM     19  C   UNL d   1     -43.035  13.054  21.445  0.00  0.00     0.286 C 
ATOM     20  N   UNL d   1     -43.788  12.672  21.186  0.00  0.00    -0.201 NA
ATOM     21  O   UNL d   1     -42.950  13.334  22.278  0.00  0.00    -0.265 OA
BRANCH  20  22
ATOM     22  C   UNL d   1     -44.455  12.570  21.761  0.00  0.00     0.160 A 
ATOM     23  C   UNL d   1     -45.153  12.954  21.896  0.00  0.00     0.298 A 
ATOM     24  N   UNL d   1     -45.641  12.698  22.489  0.00  0.00    -0.209 N 
ATOM     25  O   UNL d   1     -45.360  13.582  21.445  0.00  0.00    -0.263 OA
ATOM     26  N   UNL d   1     -45.438  12.070  22.943  0.00  0.00    -0.238 N 
ATOM     27  C   UNL d   1     -44.737  11.687  22.806  0.00  0.00     0.104 A 
ATOM     28  C   UNL d   1     -45.921  11.817  23.531  0.00  0.00     0.120 C 
ATOM     29  C   UNL d   1     -44.327  10.999  23.169  0.00  0.00     0.022 C 
BRANCH  24  30
ATOM     30  C   UNL d   1     -46.340  13.082  22.624  0.00  0.00     0.085 A 
ATOM     31  C   UNL d   1     -47.013  12.819  22.269  0.00  0.00     0.019 A 
ATOM     32  C   UNL d   1     -47.711  13.203  22.404  0.00  0.00     0.002 A 
ATOM     33  C   UNL d   1     -47.724  13.848  22.894  0.00  0.00     0.000 A 
ATOM     34  C   UNL d   1     -47.044  14.096  23.239  0.00  0.00     0.002 A 
ATOM     35  C   UNL d   1     -46.353  13.713  23.103  0.00  0.00     0.019 A 
ENDBRANCH  24  30
ENDBRANCH  20  22
ENDBRANCH   1  19
TORSDOF 6
ENDMDL
MODEL 2
REMARK VINA RESULT:      -4.0      1.309      6.904
REMARK  6 active torsions:
REMARK  status: ('A' for Active; 'I' for Inactive)
REMARK    1  A    between atoms: N_15  and  C_1 
REMARK    2  A    between atoms: C_21  and  N_6 
REMARK    3  A    between atoms: C_16  and  C_8 
REMARK    4  A    between atoms: C_9  and  S_17 
REMARK       I    between atoms: C_20  and  N_15 
REMARK    5  A    between atoms: S_17  and  C_23 
REMARK    6  A    between atoms: C_23  and  C_20 
ROOT
ATOM      1  C   UNL d   1     -43.761  12.658  21.572  0.00  0.00     0.099 C 
ENDROOT
BRANCH   1   2
ATOM      2  S   UNL d   1     -44.378  12.927  22.148  0.00  0.00    -0.064 SA
BRANCH   2   3
ATOM      3  C   UNL d   1     -45.039  12.547  22.545  0.00  0.00     0.096 A 
ATOM      4  N   UNL d   1     -45.745  12.959  22.640  0.00  0.00    -0.285 N 
ATOM      5  C   UNL d   1     -46.393  12.586  23.029  0.00  0.00     0.150 A 
ATOM      6  C   UNL d   1     -46.549  14.147  22.461  0.00  0.00     0.084 A 
ATOM      7  N   UNL d   1     -47.112  12.996  23.130  0.00  0.00    -0.227 NA
ATOM      8  C   UNL d   1     -46.313  11.815  23.309  0.00  0.00     0.056 A 
ATOM      9  C   UNL d   1     -47.196  13.775  22.849  0.00  0.00     0.099 A 
ATOM     10  C   UNL d   1     -47.903  14.186  22.945  0.00  0.00     0.021 A 
ATOM     11  C   UNL d   1     -47.983  14.959  22.664  0.00  0.00     0.002 A 
ATOM     12  C   UNL d   1     -47.345  15.324  22.282  0.00  0.00     0.002 A 
ATOM     13  C   UNL d   1     -46.629  14.919  22.180  0.00  0.00     0.019 A 
ATOM     14  C   UNL d   1     -45.592  11.402  23.209  0.00  0.00     0.006 A 
ATOM     15  C   UNL d   1     -44.959  11.774  22.825  0.00  0.00     0.025 A 
ATOM     16  C   UNL d   1     -45.517  10.637  23.488  0.00  0.00     0.000 C 
BRANCH   8  17
ATOM     17  C   UNL d   1     -46.945  11.442  23.693  0.00  0.00     0.125 C 
ATOM     18  N   UNL d   1     -47.234  10.744  23.352  0.00  0.00    -0.146 N 
ENDBRANCH   8  17
ENDBRANCH   2   3
ENDBRANCH   1   2
BRANCH   1  19
ATOM     19  C   UNL d   1     -43.100  13.198  21.364  0.00  0.00     0.286 C 
ATOM     20  N   UNL d   1     -42.434  12.901  20.866  0.00  0.00    -0.201 NA
ATOM     21  O   UNL d   1     -43.095  14.034  21.648  0.00  0.00    -0.265 OA
BRANCH  20  22
ATOM     22  C   UNL d   1     -41.764  13.441  20.652  0.00  0.00     0.160 A 
ATOM     23  C   UNL d   1     -41.530  13.818  19.977  0.00  0.00     0.298 A 
ATOM     24  N   UNL d   1     -40.867  14.282  19.988  0.00  0.00    -0.209 N 
ATOM     25  O   UNL d   1     -41.952  13.732  19.303  0.00  0.00    -0.263 OA
ATOM     26  N   UNL d   1     -40.441  14.371  20.661  0.00  0.00    -0.238 N 
ATOM     27  C   UNL d   1     -40.678  13.991  21.337  0.00  0.00     0.104 A 
ATOM     28  C   UNL d   1     -39.784  14.831  20.672  0.00  0.00     0.120 C 
ATOM     29  C   UNL d   1     -40.373  13.948  22.161  0.00  0.00     0.022 C 
BRANCH  24  30
ATOM     30  C   UNL d   1     -40.633  14.660  19.312  0.00  0.00     0.085 A 
ATOM     31  C   UNL d   1     -40.252  14.245  18.737  0.00  0.00     0.019 A 
ATOM     32  C   UNL d   1     -40.019  14.622  18.062  0.00  0.00     0.002 A 
ATOM     33  C   UNL d   1     -40.172  15.413  17.973  0.00  0.00     0.000 A 
ATOM     34  C   UNL d   1     -40.553  15.810  18.556  0.00  0.00     0.002 A 
ATOM     35  C   UNL d   1     -40.782  15.433  19.225  0.00  0.00     0.019 A 
ENDBRANCH  24  30
ENDBRANCH  20  22
ENDBRANCH   1  19
TORSDOF 6
ENDMDL
MODEL 3
REMARK VINA RESULT:      -3.7      0.641      2.301
REMARK  6 active torsions:
REMARK  status: ('A' for Active; 'I' for Inactive)
REMARK    1  A    between atoms: N_15  and  C_1 
REMARK    2  A    between atoms: C_21  and  N_6 
REMARK    3  A    between atoms: C_16  and  C_8 
REMARK    4  A    between atoms: C_9  and  S_17 
REMARK       I    between atoms: C_20  and  N_15 
REMARK    5  A    between atoms: S_17  and  C_23 
REMARK    6  A    between atoms: C_23  and  C_20 
ROOT
ATOM      1  C   UNL d   1     -42.245  13.145  20.863  0.00  0.00     0.099 C 
ENDROOT
BRANCH   1   2
ATOM      2  S   UNL d   1     -41.728  13.865  20.870  0.00  0.00    -0.064 SA
BRANCH   2   3
ATOM      3  C   UNL d   1     -40.880  13.999  20.839  0.00  0.00     0.096 A 
ATOM      4  N   UNL d   1     -40.531  14.224  20.128  0.00  0.00    -0.285 N 
ATOM      5  C   UNL d   1     -39.700  14.355  20.098  0.00  0.00     0.150 A 
ATOM      6  C   UNL d   1     -40.625  14.553  18.723  0.00  0.00     0.084 A 
ATOM      7  N   UNL d   1     -39.339  14.584  19.382  0.00  0.00    -0.227 NA
ATOM      8  C   UNL d   1     -39.246  14.257  20.778  0.00  0.00     0.056 A 
ATOM      9  C   UNL d   1     -39.795  14.685  18.693  0.00  0.00     0.099 A 
ATOM     10  C   UNL d   1     -39.445  14.910  17.982  0.00  0.00     0.021 A 
ATOM     11  C   UNL d   1     -39.901  15.009  17.301  0.00  0.00     0.002 A 
ATOM     12  C   UNL d   1     -40.718  14.880  17.332  0.00  0.00     0.002 A 
ATOM     13  C   UNL d   1     -41.081  14.652  18.042  0.00  0.00     0.019 A 
ATOM     14  C   UNL d   1     -39.607  14.027  21.498  0.00  0.00     0.006 A 
ATOM     15  C   UNL d   1     -40.425  13.900  21.520  0.00  0.00     0.025 A 
ATOM     16  C   UNL d   1     -39.153  13.931  22.171  0.00  0.00     0.000 C 
BRANCH   8  17
ATOM     17  C   UNL d   1     -38.428  14.384  20.757  0.00  0.00     0.125 C 
ATOM     18  N   UNL d   1     -37.940  13.728  20.893  0.00  0.00    -0.146 N 
ENDBRANCH   8  17
ENDBRANCH   2   3
ENDBRANCH   1   2
BRANCH   1  19
ATOM     19  C   UNL d   1     -42.938  13.104  21.402  0.00  0.00     0.286 C 
ATOM     20  N   UNL d   1     -43.607  12.560  21.213  0.00  0.00    -0.201 NA
ATOM     21  O   UNL d   1     -42.971  13.602  22.130  0.00  0.00    -0.265 OA
BRANCH  20  22
ATOM     22  C   UNL d   1     -44.309  12.515  21.752  0.00  0.00     0.160 A 
ATOM     23  C   UNL d   1     -44.991  12.940  21.835  0.00  0.00     0.298 A 
ATOM     24  N   UNL d   1     -45.524  12.732  22.409  0.00  0.00    -0.209 N 
ATOM     25  O   UNL d   1     -45.138  13.561  21.353  0.00  0.00    -0.263 OA
ATOM     26  N   UNL d   1     -45.381  12.110  22.893  0.00  0.00    -0.238 N 
ATOM     27  C   UNL d   1     -44.695  11.686  22.808  0.00  0.00     0.104 A 
ATOM     28  C   UNL d   1     -45.908  11.904  23.461  0.00  0.00     0.120 C 
ATOM     29  C   UNL d   1     -44.344  10.990  23.216  0.00  0.00     0.022 C 
BRANCH  24  30
ATOM     30  C   UNL d   1     -46.207  13.157  22.491  0.00  0.00     0.085 A 
ATOM     31  C   UNL d   1     -46.878  12.907  22.124  0.00  0.00     0.019 A 
ATOM     32  C   UNL d   1     -47.560  13.332  22.207  0.00  0.00     0.002 A 
ATOM     33  C   UNL d   1     -47.559  14.004  22.659  0.00  0.00     0.000 A 
ATOM     34  C   UNL d   1     -46.881  14.238  23.018  0.00  0.00     0.002 A 
ATOM     35  C   UNL d   1     -46.207  13.814  22.933  0.00  0.00     0.019 A 
ENDBRANCH  24  30
ENDBRANCH  20  22
ENDBRANCH   1  19
TORSDOF 6
ENDMDL
MODEL 4
REMARK VINA RESULT:      -3.5      1.173      7.004
REMARK  6 active torsions:
REMARK  status: ('A' for Active; 'I' for Inactive)
REMARK    1  A    between atoms: N_15  and  C_1 
REMARK    2  A    between atoms: C_21  and  N_6 
REMARK    3  A    between atoms: C_16  and  C_8 
REMARK    4  A    between atoms: C_9  and  S_17 
REMARK       I    between atoms: C_20  and  N_15 
REMARK    5  A    between atoms: S_17  and  C_23 
REMARK    6  A    between atoms: C_23  and  C_20 
ROOT
ATOM      1  C   UNL d   1     -44.011  12.868  21.490  0.00  0.00     0.099 C 
ENDROOT
BRANCH   1   2
ATOM      2  S   UNL d   1     -44.613  13.121  22.089  0.00  0.00    -0.064 SA
BRANCH   2   3
ATOM      3  C   UNL d   1     -45.255  12.728  22.501  0.00  0.00     0.096 A 
ATOM      4  N   UNL d   1     -45.971  13.121  22.606  0.00  0.00    -0.285 N 
ATOM      5  C   UNL d   1     -46.601  12.736  23.010  0.00  0.00     0.150 A 
ATOM      6  C   UNL d   1     -46.810  14.285  22.428  0.00  0.00     0.084 A 
ATOM      7  N   UNL d   1     -47.329  13.127  23.121  0.00  0.00    -0.227 NA
ATOM      8  C   UNL d   1     -46.495  11.970  23.297  0.00  0.00     0.056 A 
ATOM      9  C   UNL d   1     -47.439  13.900  22.832  0.00  0.00     0.099 A 
ATOM     10  C   UNL d   1     -48.156  14.293  22.937  0.00  0.00     0.021 A 
ATOM     11  C   UNL d   1     -48.261  15.060  22.650  0.00  0.00     0.002 A 
ATOM     12  C   UNL d   1     -47.641  15.438  22.253  0.00  0.00     0.002 A 
ATOM     13  C   UNL d   1     -46.916  15.052  22.141  0.00  0.00     0.019 A 
ATOM     14  C   UNL d   1     -45.764  11.576  23.187  0.00  0.00     0.006 A 
ATOM     15  C   UNL d   1     -45.150  11.961  22.789  0.00  0.00     0.025 A 
ATOM     16  C   UNL d   1     -45.663  10.817  23.473  0.00  0.00     0.000 C 
BRANCH   8  17
ATOM     17  C   UNL d   1     -47.109  11.584  23.696  0.00  0.00     0.125 C 
ATOM     18  N   UNL d   1     -47.475  10.952  23.304  0.00  0.00    -0.146 N 
ENDBRANCH   8  17
ENDBRANCH   2   3
ENDBRANCH   1   2
BRANCH   1  19
ATOM     19  C   UNL d   1     -43.287  13.352  21.372  0.00  0.00     0.286 C 
ATOM     20  N   UNL d   1     -42.524  12.956  21.172  0.00  0.00    -0.201 NA
ATOM     21  O   UNL d   1     -43.316  14.231  21.453  0.00  0.00    -0.265 OA
BRANCH  20  22
ATOM     22  C   UNL d   1     -41.791  13.439  21.052  0.00  0.00     0.160 A 
ATOM     23  C   UNL d   1     -41.141  13.609  21.501  0.00  0.00     0.298 A 
ATOM     24  N   UNL d   1     -40.561  14.087  21.200  0.00  0.00    -0.209 N 
ATOM     25  O   UNL d   1     -41.072  13.305  22.238  0.00  0.00    -0.263 OA
ATOM     26  N   UNL d   1     -40.625  14.394  20.462  0.00  0.00    -0.238 N 
ATOM     27  C   UNL d   1     -41.279  14.222  20.014  0.00  0.00     0.104 A 
ATOM     28  C   UNL d   1     -40.051  14.867  20.164  0.00  0.00     0.120 C 
ATOM     29  C   UNL d   1     -41.549  14.442  19.206  0.00  0.00     0.022 C 
BRANCH  24  30
ATOM     30  C   UNL d   1     -39.910  14.256  21.650  0.00  0.00     0.085 A 
ATOM     31  C   UNL d   1     -39.359  13.685  21.781  0.00  0.00     0.019 A 
ATOM     32  C   UNL d   1     -38.709  13.855  22.231  0.00  0.00     0.002 A 
ATOM     33  C   UNL d   1     -38.622  14.597  22.543  0.00  0.00     0.000 A 
ATOM     34  C   UNL d   1     -39.182  15.154  22.401  0.00  0.00     0.002 A 
ATOM     35  C   UNL d   1     -39.825  14.982  21.955  0.00  0.00     0.019 A 
ENDBRANCH  24  30
ENDBRANCH  20  22
ENDBRANCH   1  19
TORSDOF 6
ENDMDL
MODEL 5
REMARK VINA RESULT:      -2.7      1.292      6.638
REMARK  6 active torsions:
REMARK  status: ('A' for Active; 'I' for Inactive)
REMARK    1  A    between atoms: N_15  and  C_1 
REMARK    2  A    between atoms: C_21  and  N_6 
REMARK    3  A    between atoms: C_16  and  C_8 
REMARK    4  A    between atoms: C_9  and  S_17 
REMARK       I    between atoms: C_20  and  N_15 
REMARK    5  A    between atoms: S_17  and  C_23 
REMARK    6  A    between atoms: C_23  and  C_20 
ROOT
ATOM      1  C   UNL d   1     -43.319  13.480  21.061  0.00  0.00     0.099 C 
ENDROOT
BRANCH   1   2
ATOM      2  S   UNL d   1     -43.637  13.213  21.843  0.00  0.00    -0.064 SA
BRANCH   2   3
ATOM      3  C   UNL d   1     -44.425  13.080  22.159  0.00  0.00     0.096 A 
ATOM      4  N   UNL d   1     -44.599  12.362  22.523  0.00  0.00    -0.285 N 
ATOM      5  C   UNL d   1     -45.371  12.232  22.834  0.00  0.00     0.150 A 
ATOM      6  C   UNL d   1     -44.211  11.040  22.960  0.00  0.00     0.084 A 
ATOM      7  N   UNL d   1     -45.556  11.508  23.204  0.00  0.00    -0.227 NA
ATOM      8  C   UNL d   1     -45.943  12.822  22.770  0.00  0.00     0.056 A 
ATOM      9  C   UNL d   1     -44.982  10.909  23.270  0.00  0.00     0.099 A 
ATOM     10  C   UNL d   1     -45.157  10.191  23.634  0.00  0.00     0.021 A 
ATOM     11  C   UNL d   1     -44.584   9.600  23.698  0.00  0.00     0.002 A 
ATOM     12  C   UNL d   1     -43.825   9.730  23.393  0.00  0.00     0.002 A 
ATOM     13  C   UNL d   1     -43.638  10.449  23.024  0.00  0.00     0.019 A 
ATOM     14  C   UNL d   1     -45.759  13.550  22.398  0.00  0.00     0.006 A 
ATOM     15  C   UNL d   1     -44.998  13.671  22.096  0.00  0.00     0.025 A 
ATOM     16  C   UNL d   1     -46.328  14.133  22.337  0.00  0.00     0.000 C 
BRANCH   8  17
ATOM     17  C   UNL d   1     -46.704  12.702  23.072  0.00  0.00     0.125 C 
ATOM     18  N   UNL d   1     -47.337  12.781  22.543  0.00  0.00    -0.146 N 
ENDBRANCH   8  17
ENDBRANCH   2   3
ENDBRANCH   1   2
BRANCH   1  19
ATOM     19  C   UNL d   1     -42.449  13.527  20.941  0.00  0.00     0.286 C 
ATOM     20  N   UNL d   1     -42.110  14.179  20.451  0.00  0.00    -0.201 NA
ATOM     21  O   UNL d   1     -41.912  12.928  21.305  0.00  0.00    -0.265 OA
BRANCH  20  22
ATOM     22  C   UNL d   1     -41.234  14.231  20.327  0.00  0.00     0.160 A 
ATOM     23  C   UNL d   1     -40.750  14.222  19.680  0.00  0.00     0.298 A 
ATOM     24  N   UNL d   1     -39.948  14.284  19.781  0.00  0.00    -0.209 N 
ATOM     25  O   UNL d   1     -41.061  14.151  18.947  0.00  0.00    -0.263 OA
ATOM     26  N   UNL d   1     -39.633  14.355  20.513  0.00  0.00    -0.238 N 
ATOM     27  C   UNL d   1     -40.121  14.365  21.160  0.00  0.00     0.104 A 
ATOM     28  C   UNL d   1     -38.839  14.417  20.613  0.00  0.00     0.120 C 
ATOM     29  C   UNL d   1     -39.996  14.432  22.029  0.00  0.00     0.022 C 
BRANCH  24  30
ATOM     30  C   UNL d   1     -39.464  14.275  19.133  0.00  0.00     0.085 A 
ATOM     31  C   UNL d   1     -39.108  13.587  18.914  0.00  0.00     0.019 A 
ATOM     32  C   UNL d   1     -38.624  13.578  18.267  0.00  0.00     0.002 A 
ATOM     33  C   UNL d   1     -38.503  14.261  17.848  0.00  0.00     0.000 A 
ATOM     34  C   UNL d   1     -38.867  14.938  18.082  0.00  0.00     0.002 A 
ATOM     35  C   UNL d   1     -39.346  14.943  18.724  0.00  0.00     0.019 A 
ENDBRANCH  24  30
ENDBRANCH  20  22
ENDBRANCH   1  19
TORSDOF 6
ENDMDL
