MODEL 1
REMARK VINA RESULT:      -4.5      0.000      0.000
REMARK  1 active torsions:
REMARK  status: ('A' for Active; 'I' for Inactive)
REMARK    1  A    between atoms: C_6  and  C_1 
ROOT
ATOM      1  C   UNL d   1     -41.598-122.651 -54.006  0.00  0.00     0.085 A 
ATOM      2  C   UNL d   1     -41.447-123.450 -54.171  0.00  0.00     0.137 A 
ATOM      3  S   UNL d   1     -41.253-123.813 -53.499  0.00  0.00    -0.066 SA
ATOM      4  C   UNL d   1     -41.487-122.543 -53.199  0.00  0.00     0.013 A 
ATOM      5  C   UNL d   1     -41.273-123.267 -52.884  0.00  0.00     0.031 A 
ATOM      6  N   UNL d   1     -41.490-123.817 -54.927  0.00  0.00    -0.141 N 
ATOM      7  C   UNL d   1     -41.553-121.884 -52.705  0.00  0.00     0.001 A 
ATOM      8  C   UNL d   1     -41.123-123.333 -52.074  0.00  0.00     0.006 A 
ATOM      9  C   UNL d   1     -41.403-121.951 -51.897  0.00  0.00     0.000 A 
ATOM     10  C   UNL d   1     -41.188-122.674 -51.582  0.00  0.00     0.001 A 
ENDROOT
BRANCH   1  11
ATOM     11  C   UNL d   1     -41.829-122.040 -54.569  0.00  0.00     0.299 C 
ATOM     12  O   UNL d   1     -41.246-121.655 -55.027  0.00  0.00    -0.264 OA
ATOM     13  N   UNL d   1     -42.628-121.832 -54.660  0.00  0.00    -0.102 N 
ENDBRANCH   1  11
TORSDOF 1
ENDMDL
MODEL 2
REMARK VINA RESULT:      -4.5      1.865      2.489
REMARK  1 active torsions:
REMARK  status: ('A' for Active; 'I' for Inactive)
REMARK    1  A    between atoms: C_6  and  C_1 
ROOT
ATOM      1  C   UNL d   1     -41.510-122.683 -52.182  0.00  0.00     0.085 A 
ATOM      2  C   UNL d   1     -41.245-123.458 -52.046  0.00  0.00     0.137 A 
ATOM      3  S   UNL d   1     -41.126-123.808 -52.743  0.00  0.00    -0.066 SA
ATOM      4  C   UNL d   1     -41.547-122.577 -52.996  0.00  0.00     0.013 A 
ATOM      5  C   UNL d   1     -41.308-123.277 -53.345  0.00  0.00     0.031 A 
ATOM      6  N   UNL d   1     -41.123-123.816 -51.295  0.00  0.00    -0.141 N 
ATOM      7  C   UNL d   1     -41.766-121.936 -53.469  0.00  0.00     0.001 A 
ATOM      8  C   UNL d   1     -41.287-123.339 -54.168  0.00  0.00     0.006 A 
ATOM      9  C   UNL d   1     -41.745-121.998 -54.292  0.00  0.00     0.000 A 
ATOM     10  C   UNL d   1     -41.506-122.699 -54.641  0.00  0.00     0.001 A 
ENDROOT
BRANCH   1  11
ATOM     11  C   UNL d   1     -41.711-122.093 -51.586  0.00  0.00     0.299 C 
ATOM     12  O   UNL d   1     -42.496-122.035 -51.307  0.00  0.00    -0.264 OA
ATOM     13  N   UNL d   1     -41.129-121.581 -51.287  0.00  0.00    -0.102 N 
ENDBRANCH   1  11
TORSDOF 1
ENDMDL
MODEL 3
REMARK VINA RESULT:      -3.1      3.125      3.826
REMARK  1 active torsions:
REMARK  status: ('A' for Active; 'I' for Inactive)
REMARK    1  A    between atoms: C_6  and  C_1 
ROOT
ATOM      1  C   UNL d   1     -41.982-122.781 -50.286  0.00  0.00     0.085 A 
ATOM      2  C   UNL d   1     -41.422-123.335 -50.548  0.00  0.00     0.137 A 
ATOM      3  S   UNL d   1     -41.214-123.790 -49.939  0.00  0.00    -0.066 SA
ATOM      4  C   UNL d   1     -42.106-122.920 -49.486  0.00  0.00     0.013 A 
ATOM      5  C   UNL d   1     -41.628-123.548 -49.270  0.00  0.00     0.031 A 
ATOM      6  N   UNL d   1     -41.123-123.405 -51.331  0.00  0.00    -0.141 N 
ATOM      7  C   UNL d   1     -42.589-122.560 -48.921  0.00  0.00     0.001 A 
ATOM      8  C   UNL d   1     -41.632-123.817 -48.489  0.00  0.00     0.006 A 
ATOM      9  C   UNL d   1     -42.594-122.830 -48.141  0.00  0.00     0.000 A 
ATOM     10  C   UNL d   1     -42.116-123.458 -47.926  0.00  0.00     0.001 A 
ENDROOT
BRANCH   1  11
ATOM     11  C   UNL d   1     -42.367-122.171 -50.757  0.00  0.00     0.299 C 
ATOM     12  O   UNL d   1     -43.167-122.260 -50.980  0.00  0.00    -0.264 OA
ATOM     13  N   UNL d   1     -41.948-121.493 -50.992  0.00  0.00    -0.102 N 
ENDBRANCH   1  11
TORSDOF 1
ENDMDL
MODEL 4
REMARK VINA RESULT:      -2.4      2.918      3.710
REMARK  1 active torsions:
REMARK  status: ('A' for Active; 'I' for Inactive)
REMARK    1  A    between atoms: C_6  and  C_1 
ROOT
ATOM      1  C   UNL d   1     -41.917-122.921 -50.461  0.00  0.00     0.085 A 
ATOM      2  C   UNL d   1     -42.072-122.105 -50.438  0.00  0.00     0.137 A 
ATOM      3  S   UNL d   1     -41.908-121.799 -51.146  0.00  0.00    -0.066 SA
ATOM      4  C   UNL d   1     -41.651-123.098 -51.218  0.00  0.00     0.013 A 
ATOM      5  C   UNL d   1     -41.646-122.399 -51.644  0.00  0.00     0.031 A 
ATOM      6  N   UNL d   1     -42.355-121.673 -49.775  0.00  0.00    -0.141 N 
ATOM      7  C   UNL d   1     -41.412-123.801 -51.580  0.00  0.00     0.001 A 
ATOM      8  C   UNL d   1     -41.401-122.403 -52.433  0.00  0.00     0.006 A 
ATOM      9  C   UNL d   1     -41.168-123.803 -52.368  0.00  0.00     0.000 A 
ATOM     10  C   UNL d   1     -41.163-123.105 -52.794  0.00  0.00     0.001 A 
ENDROOT
BRANCH   1  11
ATOM     11  C   UNL d   1     -42.014-123.485 -49.816  0.00  0.00     0.299 C 
ATOM     12  O   UNL d   1     -41.344-123.769 -49.407  0.00  0.00    -0.264 OA
ATOM     13  N   UNL d   1     -42.772-123.748 -49.598  0.00  0.00    -0.102 N 
ENDBRANCH   1  11
TORSDOF 1
ENDMDL
MODEL 5
REMARK VINA RESULT:      -2.2      3.511      4.149
REMARK  1 active torsions:
REMARK  status: ('A' for Active; 'I' for Inactive)
REMARK    1  A    between atoms: C_6  and  C_1 
ROOT
ATOM      1  C   UNL d   1     -42.417-122.946 -49.695  0.00  0.00     0.085 A 
ATOM      2  C   UNL d   1     -41.694-123.238 -49.408  0.00  0.00     0.137 A 
ATOM      3  S   UNL d   1     -41.123-123.026 -49.907  0.00  0.00    -0.066 SA
ATOM      4  C   UNL d   1     -42.258-122.545 -50.394  0.00  0.00     0.013 A 
ATOM      5  C   UNL d   1     -41.452-122.595 -50.526  0.00  0.00     0.031 A 
ATOM      6  N   UNL d   1     -41.584-123.685 -48.704  0.00  0.00    -0.141 N 
ATOM      7  C   UNL d   1     -42.737-122.140 -50.931  0.00  0.00     0.001 A 
ATOM      8  C   UNL d   1     -41.124-122.240 -51.196  0.00  0.00     0.006 A 
ATOM      9  C   UNL d   1     -42.409-121.786 -51.600  0.00  0.00     0.000 A 
ATOM     10  C   UNL d   1     -41.603-121.836 -51.732  0.00  0.00     0.001 A 
ENDROOT
BRANCH   1  11
ATOM     11  C   UNL d   1     -43.194-123.040 -49.333  0.00  0.00     0.299 C 
ATOM     12  O   UNL d   1     -43.743-123.577 -49.661  0.00  0.00    -0.264 OA
ATOM     13  N   UNL d   1     -43.401-122.601 -48.659  0.00  0.00    -0.102 N 
ENDBRANCH   1  11
TORSDOF 1
ENDMDL
