MODEL 1
REMARK VINA RESULT:       1.7      0.000      0.000
REMARK  9 active torsions:
REMARK  status: ('A' for Active; 'I' for Inactive)
REMARK    1  A    between atoms: C_11  and  C_3 
REMARK    2  A    between atoms: C_12  and  N_6 
REMARK    3  A    between atoms: C_15  and  C_7 
REMARK    4  A    between atoms: O_24  and  C_11 
REMARK    5  A    between atoms: C_23  and  C_12 
REMARK    6  A    between atoms: O_26  and  C_14 
REMARK    7  A    between atoms: O_28  and  C_17 
REMARK    8  A    between atoms: C_22  and  C_23 
REMARK    9  A    between atoms: C_32  and  O_24 
ROOT
ATOM      1  C   UNL d   1      32.909  21.270 -22.808  0.00  0.00     0.080 A 
ATOM      2  C   UNL d   1      33.015  20.455 -22.916  0.00  0.00     0.267 A 
ATOM      3  C   UNL d   1      32.696  22.366 -21.925  0.00  0.00     0.107 A 
ATOM      4  C   UNL d   1      32.912  21.783 -23.449  0.00  0.00     0.108 A 
ATOM      5  C   UNL d   1      32.699  22.879 -22.566  0.00  0.00     0.208 A 
ATOM      6  N   UNL d   1      33.123  20.159 -23.680  0.00  0.00    -0.273 N 
ATOM      7  C   UNL d   1      32.803  21.553 -22.045  0.00  0.00     0.017 A 
ATOM      8  O   UNL d   1      32.807  22.588 -23.334  0.00  0.00    -0.288 OA
ATOM      9  C   UNL d   1      33.021  21.479 -24.218  0.00  0.00     0.043 A 
ATOM     10  C   UNL d   1      33.127  20.665 -24.326  0.00  0.00     0.069 A 
ATOM     11  O   UNL d   1      33.012  19.941 -22.271  0.00  0.00    -0.267 OA
ATOM     12  N   UNL d   1      32.594  23.689 -22.450  0.00  0.00    -0.121 N 
ATOM     13  C   UNL d   1      33.235  20.369 -25.090  0.00  0.00     0.019 C 
ENDROOT
BRANCH   6  14
ATOM     14  C   UNL d   1      33.228  19.344 -23.788  0.00  0.00     0.083 C 
BRANCH  14  15
ATOM     15  C   UNL d   1      32.812  18.817 -23.306  0.00  0.00     0.019 C 
BRANCH  15  16
ATOM     16  C   UNL d   1      32.687  18.047 -23.587  0.00  0.00     0.004 A 
ATOM     17  C   UNL d   1      32.791  17.416 -23.088  0.00  0.00     0.026 A 
ATOM     18  C   UNL d   1      32.668  16.654 -23.365  0.00  0.00     0.116 A 
ATOM     19  C   UNL d   1      32.438  16.529 -24.157  0.00  0.00     0.116 A 
ATOM     20  C   UNL d   1      32.336  17.176 -24.653  0.00  0.00     0.026 A 
ATOM     21  C   UNL d   1      32.460  17.937 -24.372  0.00  0.00     0.002 A 
BRANCH  18  22
ATOM     22  O   UNL d   1      32.770  16.001 -22.865  0.00  0.00    -0.326 OA
ATOM     23  C   UNL d   1      32.179  15.807 -22.334  0.00  0.00     0.181 C 
ENDBRANCH  18  22
BRANCH  19  24
ATOM     24  O   UNL d   1      32.312  15.767 -24.442  0.00  0.00    -0.326 OA
ATOM     25  C   UNL d   1      31.586  15.560 -24.764  0.00  0.00     0.181 C 
ENDBRANCH  19  24
ENDBRANCH  15  16
ENDBRANCH  14  15
ENDBRANCH   6  14
BRANCH   7  26
ATOM     26  C   UNL d   1      32.800  21.040 -21.401  0.00  0.00     0.020 A 
ATOM     27  C   UNL d   1      32.364  20.349 -21.430  0.00  0.00     0.099 A 
ATOM     28  N   UNL d   1      32.359  19.837 -20.794  0.00  0.00    -0.242 NA
ATOM     29  C   UNL d   1      32.799  20.020 -20.112  0.00  0.00     0.099 A 
ATOM     30  C   UNL d   1      33.240  20.721 -20.087  0.00  0.00     0.021 A 
ATOM     31  C   UNL d   1      33.241  21.232 -20.730  0.00  0.00     0.003 A 
ENDBRANCH   7  26
BRANCH   3  32
ATOM     32  C   UNL d   1      32.588  22.657 -21.158  0.00  0.00     0.304 C 
ATOM     33  O   UNL d   1      33.207  22.641 -20.618  0.00  0.00    -0.259 OA
BRANCH  32  34
ATOM     34  O   UNL d   1      31.857  22.962 -20.941  0.00  0.00    -0.271 OA
BRANCH  34  35
ATOM     35  C   UNL d   1      31.791  23.625 -20.448  0.00  0.00     0.126 C 
ATOM     36  C   UNL d   1      31.161  23.677 -19.926  0.00  0.00     0.029 C 
ENDBRANCH  34  35
ENDBRANCH  32  34
ENDBRANCH   3  32
TORSDOF 9
ENDMDL
MODEL 2
REMARK VINA RESULT:       4.2      2.977      5.700
REMARK  9 active torsions:
REMARK  status: ('A' for Active; 'I' for Inactive)
REMARK    1  A    between atoms: C_11  and  C_3 
REMARK    2  A    between atoms: C_12  and  N_6 
REMARK    3  A    between atoms: C_15  and  C_7 
REMARK    4  A    between atoms: O_24  and  C_11 
REMARK    5  A    between atoms: C_23  and  C_12 
REMARK    6  A    between atoms: O_26  and  C_14 
REMARK    7  A    between atoms: O_28  and  C_17 
REMARK    8  A    between atoms: C_22  and  C_23 
REMARK    9  A    between atoms: C_32  and  O_24 
ROOT
ATOM      1  C   UNL d   1      30.299  16.935 -23.374  0.00  0.00     0.080 A 
ATOM      2  C   UNL d   1      30.884  17.441 -23.673  0.00  0.00     0.267 A 
ATOM      3  C   UNL d   1      28.919  16.610 -23.238  0.00  0.00     0.107 A 
ATOM      4  C   UNL d   1      30.500  16.276 -22.928  0.00  0.00     0.108 A 
ATOM      5  C   UNL d   1      29.121  15.951 -22.793  0.00  0.00     0.208 A 
ATOM      6  N   UNL d   1      31.678  17.275 -23.519  0.00  0.00    -0.273 N 
ATOM      7  C   UNL d   1      29.512  17.108 -23.532  0.00  0.00     0.017 A 
ATOM      8  O   UNL d   1      29.916  15.780 -22.635  0.00  0.00    -0.288 OA
ATOM      9  C   UNL d   1      31.304  16.113 -22.776  0.00  0.00     0.043 A 
ATOM     10  C   UNL d   1      31.888  16.618 -23.075  0.00  0.00     0.069 A 
ATOM     11  O   UNL d   1      30.679  18.103 -24.120  0.00  0.00    -0.267 OA
ATOM     12  N   UNL d   1      28.534  15.453 -22.498  0.00  0.00    -0.121 N 
ATOM     13  C   UNL d   1      32.684  16.453 -22.921  0.00  0.00     0.019 C 
ENDROOT
BRANCH   6  14
ATOM     14  C   UNL d   1      32.263  17.781 -23.819  0.00  0.00     0.083 C 
BRANCH  14  15
ATOM     15  C   UNL d   1      32.702  18.244 -23.294  0.00  0.00     0.019 C 
BRANCH  15  16
ATOM     16  C   UNL d   1      32.838  19.037 -23.493  0.00  0.00     0.004 A 
ATOM     17  C   UNL d   1      32.936  19.588 -22.907  0.00  0.00     0.026 A 
ATOM     18  C   UNL d   1      33.070  20.373 -23.104  0.00  0.00     0.116 A 
ATOM     19  C   UNL d   1      33.105  20.603 -23.904  0.00  0.00     0.116 A 
ATOM     20  C   UNL d   1      33.005  20.036 -24.491  0.00  0.00     0.026 A 
ATOM     21  C   UNL d   1      32.871  19.252 -24.290  0.00  0.00     0.002 A 
BRANCH  18  22
ATOM     22  O   UNL d   1      33.171  20.945 -22.513  0.00  0.00    -0.326 OA
ATOM     23  C   UNL d   1      32.682  20.934 -21.857  0.00  0.00     0.181 C 
ENDBRANCH  18  22
BRANCH  19  24
ATOM     24  O   UNL d   1      33.239  21.389 -24.110  0.00  0.00    -0.326 OA
ATOM     25  C   UNL d   1      33.109  21.643 -24.879  0.00  0.00     0.181 C 
ENDBRANCH  19  24
ENDBRANCH  15  16
ENDBRANCH  14  15
ENDBRANCH   6  14
BRANCH   7  26
ATOM     26  C   UNL d   1      29.308  17.770 -23.979  0.00  0.00     0.020 A 
ATOM     27  C   UNL d   1      28.670  18.231 -23.759  0.00  0.00     0.099 A 
ATOM     28  N   UNL d   1      28.464  18.888 -24.199  0.00  0.00    -0.242 NA
ATOM     29  C   UNL d   1      28.906  19.088 -24.875  0.00  0.00     0.099 A 
ATOM     30  C   UNL d   1      29.551  18.617 -25.095  0.00  0.00     0.021 A 
ATOM     31  C   UNL d   1      29.753  17.959 -24.649  0.00  0.00     0.003 A 
ENDBRANCH   7  26
BRANCH   3  32
ATOM     32  C   UNL d   1      28.125  16.780 -23.396  0.00  0.00     0.304 C 
ATOM     33  O   UNL d   1      27.854  16.815 -24.170  0.00  0.00    -0.259 OA
BRANCH  32  34
ATOM     34  O   UNL d   1      27.609  16.915 -22.771  0.00  0.00    -0.271 OA
BRANCH  34  35
ATOM     35  C   UNL d   1      26.811  17.097 -22.896  0.00  0.00     0.126 C 
ATOM     36  C   UNL d   1      26.285  17.055 -22.268  0.00  0.00     0.029 C 
ENDBRANCH  34  35
ENDBRANCH  32  34
ENDBRANCH   3  32
TORSDOF 9
ENDMDL
