MODEL 1
REMARK VINA RESULT:       2.1      0.000      0.000
REMARK  5 active torsions:
REMARK  status: ('A' for Active; 'I' for Inactive)
REMARK    1  A    between atoms: C_22  and  N_10 
REMARK    2  A    between atoms: C_19  and  N_13 
REMARK    3  A    between atoms: N_14  and  C_26 
REMARK    4  A    between atoms: C_25  and  C_22 
REMARK    5  A    between atoms: C_26  and  C_25 
ROOT
ATOM      1  C   UNL d   1      55.477   0.596  34.923  0.00  0.00     0.173 A 
ATOM      2  C   UNL d   1      55.344   0.625  34.133  0.00  0.00     0.191 A 
ATOM      3  C   UNL d   1      56.742   0.633  33.879  0.00  0.00     0.722 A 
ATOM      4  N   UNL d   1      56.890   0.602  34.691  0.00  0.00    -0.131 N 
ATOM      5  N   UNL d   1      55.970   0.644  33.601  0.00  0.00    -0.042 NA
ATOM      6  N   UNL d   1      54.581   0.638  33.841  0.00  0.00    -0.240 N 
ATOM      7  N   UNL d   1      54.108   0.587  35.218  0.00  0.00    -0.223 N 
ATOM      8  C   UNL d   1      53.957   0.618  34.385  0.00  0.00     0.343 A 
ATOM      9  C   UNL d   1      54.880   0.576  35.487  0.00  0.00     0.288 A 
ATOM     10  N   UNL d   1      57.375   0.651  33.346  0.00  0.00    -0.139 N 
ATOM     11  C   UNL d   1      58.299   0.610  34.435  0.00  0.00     0.116 A 
ATOM     12  C   UNL d   1      58.151   0.640  33.624  0.00  0.00     0.100 A 
ATOM     13  O   UNL d   1      53.166   0.632  34.063  0.00  0.00    -0.245 OA
ATOM     14  O   UNL d   1      55.027   0.546  36.297  0.00  0.00    -0.265 OA
ATOM     15  C   UNL d   1      54.434   0.668  33.030  0.00  0.00     0.105 C 
ATOM     16  C   UNL d   1      53.491   0.568  35.750  0.00  0.00     0.107 C 
ATOM     17  C   UNL d   1      58.769   0.659  33.070  0.00  0.00     0.021 C 
ENDROOT
BRANCH  10  18
ATOM     18  C   UNL d   1      57.232   0.682  32.534  0.00  0.00     0.100 C 
BRANCH  18  19
ATOM     19  C   UNL d   1      57.731   0.282  32.004  0.00  0.00     0.039 C 
BRANCH  19  20
ATOM     20  C   UNL d   1      57.472   0.108  31.253  0.00  0.00     0.082 C 
BRANCH  20  21
ATOM     21  N   UNL d   1      57.890  -0.424  30.785  0.00  0.00    -0.300 N 
ATOM     22  C   UNL d   1      58.660  -0.241  30.549  0.00  0.00     0.100 A 
ATOM     23  C   UNL d   1      59.074  -0.772  30.083  0.00  0.00     0.100 A 
ATOM     24  N   UNL d   1      58.725  -1.479  29.855  0.00  0.00    -0.301 N 
ATOM     25  C   UNL d   1      57.962  -1.653  30.093  0.00  0.00     0.100 A 
ATOM     26  C   UNL d   1      57.538  -1.123  30.563  0.00  0.00     0.100 A 
BRANCH  24  27
ATOM     27  C   UNL d   1      59.143  -2.011  29.387  0.00  0.00     0.064 A 
ATOM     28  C   UNL d   1      59.775  -1.756  28.938  0.00  0.00     0.018 A 
ATOM     29  C   UNL d   1      60.193  -2.280  28.471  0.00  0.00     0.002 A 
ATOM     30  C   UNL d   1      59.973  -3.075  28.456  0.00  0.00     0.000 A 
ATOM     31  C   UNL d   1      59.332  -3.337  28.911  0.00  0.00     0.002 A 
ATOM     32  C   UNL d   1      58.921  -2.806  29.373  0.00  0.00     0.018 A 
ENDBRANCH  24  27
ENDBRANCH  20  21
ENDBRANCH  19  20
ENDBRANCH  18  19
ENDBRANCH  10  18
TORSDOF 5
ENDMDL
MODEL 2
REMARK VINA RESULT:       3.7      1.147      1.963
REMARK  5 active torsions:
REMARK  status: ('A' for Active; 'I' for Inactive)
REMARK    1  A    between atoms: C_22  and  N_10 
REMARK    2  A    between atoms: C_19  and  N_13 
REMARK    3  A    between atoms: N_14  and  C_26 
REMARK    4  A    between atoms: C_25  and  C_22 
REMARK    5  A    between atoms: C_26  and  C_25 
ROOT
ATOM      1  C   UNL d   1      56.971   0.338  33.473  0.00  0.00     0.173 A 
ATOM      2  C   UNL d   1      56.722   0.288  32.712  0.00  0.00     0.191 A 
ATOM      3  C   UNL d   1      58.059   0.414  32.246  0.00  0.00     0.722 A 
ATOM      4  N   UNL d   1      58.326   0.467  33.025  0.00  0.00    -0.131 N 
ATOM      5  N   UNL d   1      57.258   0.324  32.090  0.00  0.00    -0.042 NA
ATOM      6  N   UNL d   1      55.928   0.199  32.541  0.00  0.00    -0.240 N 
ATOM      7  N   UNL d   1      55.671   0.218  33.975  0.00  0.00    -0.223 N 
ATOM      8  C   UNL d   1      55.396   0.163  33.175  0.00  0.00     0.343 A 
ATOM      9  C   UNL d   1      56.469   0.306  34.122  0.00  0.00     0.288 A 
ATOM     10  N   UNL d   1      58.601   0.451  31.621  0.00  0.00    -0.139 N 
ATOM     11  C   UNL d   1      59.672   0.593  32.555  0.00  0.00     0.116 A 
ATOM     12  C   UNL d   1      59.405   0.540  31.776  0.00  0.00     0.100 A 
ATOM     13  O   UNL d   1      54.570   0.070  32.979  0.00  0.00    -0.245 OA
ATOM     14  O   UNL d   1      56.736   0.359  34.900  0.00  0.00    -0.265 OA
ATOM     15  C   UNL d   1      55.661   0.146  31.762  0.00  0.00     0.105 C 
ATOM     16  C   UNL d   1      55.144   0.182  34.596  0.00  0.00     0.107 C 
ATOM     17  C   UNL d   1      59.930   0.575  31.133  0.00  0.00     0.021 C 
ENDROOT
BRANCH  10  18
ATOM     18  C   UNL d   1      58.338   0.398  30.841  0.00  0.00     0.100 C 
BRANCH  18  19
ATOM     19  C   UNL d   1      58.879   0.289  30.221  0.00  0.00     0.039 C 
BRANCH  19  20
ATOM     20  C   UNL d   1      58.648  -0.088  29.539  0.00  0.00     0.082 C 
BRANCH  20  21
ATOM     21  N   UNL d   1      58.943  -0.834  29.359  0.00  0.00    -0.300 N 
ATOM     22  C   UNL d   1      58.462  -1.497  29.459  0.00  0.00     0.100 A 
ATOM     23  C   UNL d   1      58.758  -2.240  29.279  0.00  0.00     0.100 A 
ATOM     24  N   UNL d   1      59.526  -2.321  29.002  0.00  0.00    -0.301 N 
ATOM     25  C   UNL d   1      59.997  -1.659  28.906  0.00  0.00     0.100 A 
ATOM     26  C   UNL d   1      59.706  -0.907  29.085  0.00  0.00     0.100 A 
BRANCH  24  27
ATOM     27  C   UNL d   1      59.821  -3.066  28.822  0.00  0.00     0.064 A 
ATOM     28  C   UNL d   1      60.614  -3.165  28.653  0.00  0.00     0.018 A 
ATOM     29  C   UNL d   1      60.914  -3.904  28.473  0.00  0.00     0.002 A 
ATOM     30  C   UNL d   1      60.407  -4.556  28.463  0.00  0.00     0.000 A 
ATOM     31  C   UNL d   1      59.602  -4.458  28.635  0.00  0.00     0.002 A 
ATOM     32  C   UNL d   1      59.313  -3.718  28.812  0.00  0.00     0.018 A 
ENDBRANCH  24  27
ENDBRANCH  20  21
ENDBRANCH  19  20
ENDBRANCH  18  19
ENDBRANCH  10  18
TORSDOF 5
ENDMDL
