MODEL 1
REMARK VINA RESULT:      -8.8      0.000      0.000
REMARK  5 active torsions:
REMARK  status: ('A' for Active; 'I' for Inactive)
REMARK    1  A    between atoms: N_4  and  C_1 
REMARK    2  A    between atoms: C_10  and  C_3 
REMARK       I    between atoms: C_7  and  N_4 
REMARK    3  A    between atoms: C_8  and  C_7 
REMARK    4  A    between atoms: C_9  and  C_8 
REMARK    5  A    between atoms: C_12  and  C_9 
ROOT
ATOM      1  C   UNL d   1      51.698  33.174  53.351  0.00  0.00     0.197 A 
ATOM      2  N   UNL d   1      52.296  33.461  53.835  0.00  0.00    -0.221 NA
ATOM      3  C   UNL d   1      52.967  33.012  53.719  0.00  0.00     0.090 A 
ATOM      4  S   UNL d   1      51.989  32.544  52.930  0.00  0.00    -0.046 SA
ATOM      5  C   UNL d   1      52.776  32.439  53.154  0.00  0.00     0.058 A 
ENDROOT
BRANCH   1   6
ATOM      6  N   UNL d   1      50.918  33.485  53.306  0.00  0.00    -0.183 NA
ATOM      7  C   UNL d   1      50.735  34.039  52.724  0.00  0.00     0.281 C 
ATOM      8  O   UNL d   1      51.293  34.286  52.198  0.00  0.00    -0.265 OA
BRANCH   7   9
ATOM      9  C   UNL d   1      49.969  34.348  52.676  0.00  0.00     0.063 C 
BRANCH   9  10
ATOM     10  C   UNL d   1      49.700  34.686  51.978  0.00  0.00     0.005 C 
BRANCH  10  11
ATOM     11  C   UNL d   1      48.941  35.009  51.933  0.00  0.00     0.000 A 
ATOM     12  C   UNL d   1      48.483  34.851  51.288  0.00  0.00     0.000 A 
ATOM     13  C   UNL d   1      47.745  35.161  51.237  0.00  0.00     0.000 A 
ATOM     14  C   UNL d   1      47.440  35.650  51.850  0.00  0.00     0.000 A 
ATOM     15  C   UNL d   1      47.901  35.811  52.503  0.00  0.00     0.000 A 
ATOM     16  C   UNL d   1      48.660  35.488  52.547  0.00  0.00     0.000 A 
ENDBRANCH  10  11
ENDBRANCH   9  10
ENDBRANCH   7   9
ENDBRANCH   1   6
BRANCH   3  17
ATOM     17  C   UNL d   1      53.679  33.148  54.119  0.00  0.00     0.018 A 
ATOM     18  C   UNL d   1      53.678  33.277  54.912  0.00  0.00     0.002 A 
ATOM     19  C   UNL d   1      54.399  33.412  55.297  0.00  0.00     0.000 A 
ATOM     20  C   UNL d   1      55.102  33.415  54.878  0.00  0.00     0.000 A 
ATOM     21  C   UNL d   1      55.097  33.282  54.066  0.00  0.00     0.000 A 
ATOM     22  C   UNL d   1      54.395  33.151  53.692  0.00  0.00     0.002 A 
ENDBRANCH   3  17
TORSDOF 5
ENDMDL
MODEL 2
REMARK VINA RESULT:      -8.1      0.994      5.579
REMARK  5 active torsions:
REMARK  status: ('A' for Active; 'I' for Inactive)
REMARK    1  A    between atoms: N_4  and  C_1 
REMARK    2  A    between atoms: C_10  and  C_3 
REMARK       I    between atoms: C_7  and  N_4 
REMARK    3  A    between atoms: C_8  and  C_7 
REMARK    4  A    between atoms: C_9  and  C_8 
REMARK    5  A    between atoms: C_12  and  C_9 
ROOT
ATOM      1  C   UNL d   1      50.118  34.288  52.716  0.00  0.00     0.197 A 
ATOM      2  N   UNL d   1      49.578  34.804  53.056  0.00  0.00    -0.221 NA
ATOM      3  C   UNL d   1      49.056  35.055  52.481  0.00  0.00     0.090 A 
ATOM      4  S   UNL d   1      49.939  34.212  51.928  0.00  0.00    -0.046 SA
ATOM      5  C   UNL d   1      49.282  34.686  51.777  0.00  0.00     0.058 A 
ENDROOT
BRANCH   1   6
ATOM      6  N   UNL d   1      50.748  33.906  53.123  0.00  0.00    -0.183 NA
ATOM      7  C   UNL d   1      51.527  34.094  52.934  0.00  0.00     0.281 C 
ATOM      8  O   UNL d   1      51.694  34.639  52.364  0.00  0.00    -0.265 OA
BRANCH   7   9
ATOM      9  C   UNL d   1      52.149  33.721  53.331  0.00  0.00     0.063 C 
BRANCH   9  10
ATOM     10  C   UNL d   1      52.841  34.131  53.498  0.00  0.00     0.005 C 
BRANCH  10  11
ATOM     11  C   UNL d   1      53.444  33.774  53.936  0.00  0.00     0.000 A 
ATOM     12  C   UNL d   1      53.846  33.150  53.619  0.00  0.00     0.000 A 
ATOM     13  C   UNL d   1      54.432  32.799  54.038  0.00  0.00     0.000 A 
ATOM     14  C   UNL d   1      54.636  33.072  54.807  0.00  0.00     0.000 A 
ATOM     15  C   UNL d   1      54.231  33.702  55.130  0.00  0.00     0.000 A 
ATOM     16  C   UNL d   1      53.628  34.059  54.691  0.00  0.00     0.000 A 
ENDBRANCH  10  11
ENDBRANCH   9  10
ENDBRANCH   7   9
ENDBRANCH   1   6
BRANCH   3  17
ATOM     17  C   UNL d   1      48.436  35.583  52.631  0.00  0.00     0.018 A 
ATOM     18  C   UNL d   1      48.380  35.947  53.345  0.00  0.00     0.002 A 
ATOM     19  C   UNL d   1      47.752  36.472  53.479  0.00  0.00     0.000 A 
ATOM     20  C   UNL d   1      47.199  36.618  52.895  0.00  0.00     0.000 A 
ATOM     21  C   UNL d   1      47.262  36.242  52.166  0.00  0.00     0.000 A 
ATOM     22  C   UNL d   1      47.872  35.732  52.036  0.00  0.00     0.002 A 
ENDBRANCH   3  17
TORSDOF 5
ENDMDL
