MODEL 1
REMARK VINA RESULT:      -7.7      0.000      0.000
REMARK  3 active torsions:
REMARK  status: ('A' for Active; 'I' for Inactive)
REMARK    1  A    between atoms: N_2  and  S_1 
REMARK    2  A    between atoms: N_3  and  S_1 
REMARK    3  A    between atoms: C_6  and  N_2 
ROOT
ATOM      1  C   UNL d   1      54.125  32.211  53.856  0.00  0.00     0.095 A 
ATOM      2  C   UNL d   1      54.704  33.380  54.902  0.00  0.00     0.000 A 
ATOM      3  C   UNL d   1      54.677  32.768  53.590  0.00  0.00     0.020 A 
ATOM      4  C   UNL d   1      53.864  32.237  54.634  0.00  0.00     0.020 A 
ATOM      5  C   UNL d   1      54.972  33.362  54.122  0.00  0.00     0.002 A 
ATOM      6  C   UNL d   1      54.158  32.831  55.166  0.00  0.00     0.002 A 
ATOM      7  C   UNL d   1      54.990  33.958  55.419  0.00  0.00     0.000 C 
ENDROOT
BRANCH   1   8
ATOM      8  N   UNL d   1      53.839  31.635  53.341  0.00  0.00    -0.144 NA
BRANCH   8   9
ATOM      9  S   UNL d   1      53.098  31.731  52.990  0.00  0.00     0.351 S 
ATOM     10  O   UNL d   1      53.337  32.450  52.672  0.00  0.00    -0.180 OA
ATOM     11  O   UNL d   1      52.576  32.172  52.529  0.00  0.00    -0.180 OA
BRANCH   9  12
ATOM     12  N   UNL d   1      52.520  31.152  53.092  0.00  0.00    -0.212 N 
ATOM     13  C   UNL d   1      52.716  30.356  52.992  0.00  0.00     0.113 C 
ATOM     14  C   UNL d   1      51.752  31.371  53.292  0.00  0.00     0.113 C 
ENDBRANCH   9  12
ENDBRANCH   8   9
ENDBRANCH   1   8
TORSDOF 3
ENDMDL
MODEL 2
REMARK VINA RESULT:      -7.7      1.563      1.792
REMARK  3 active torsions:
REMARK  status: ('A' for Active; 'I' for Inactive)
REMARK    1  A    between atoms: N_2  and  S_1 
REMARK    2  A    between atoms: N_3  and  S_1 
REMARK    3  A    between atoms: C_6  and  N_2 
ROOT
ATOM      1  C   UNL d   1      53.103  33.082  54.151  0.00  0.00     0.095 A 
ATOM      2  C   UNL d   1      54.551  33.561  54.837  0.00  0.00     0.000 A 
ATOM      3  C   UNL d   1      53.764  32.586  54.110  0.00  0.00     0.020 A 
ATOM      4  C   UNL d   1      53.162  33.808  54.530  0.00  0.00     0.020 A 
ATOM      5  C   UNL d   1      54.500  32.829  54.458  0.00  0.00     0.002 A 
ATOM      6  C   UNL d   1      53.898  34.051  54.879  0.00  0.00     0.002 A 
ATOM      7  C   UNL d   1      55.266  33.797  55.176  0.00  0.00     0.000 C 
ENDROOT
BRANCH   1   8
ATOM      8  N   UNL d   1      52.389  32.846  53.813  0.00  0.00    -0.144 NA
BRANCH   8   9
ATOM      9  S   UNL d   1      52.208  33.074  53.040  0.00  0.00     0.351 S 
ATOM     10  O   UNL d   1      52.830  32.619  52.756  0.00  0.00    -0.180 OA
ATOM     11  O   UNL d   1      52.360  33.044  52.230  0.00  0.00    -0.180 OA
BRANCH   9  12
ATOM     12  N   UNL d   1      51.575  33.584  52.903  0.00  0.00    -0.212 N 
ATOM     13  C   UNL d   1      50.840  33.426  53.245  0.00  0.00     0.113 C 
ATOM     14  C   UNL d   1      51.679  34.246  52.426  0.00  0.00     0.113 C 
ENDBRANCH   9  12
ENDBRANCH   8   9
ENDBRANCH   1   8
TORSDOF 3
ENDMDL
MODEL 3
REMARK VINA RESULT:      -7.5      1.725      2.730
REMARK  3 active torsions:
REMARK  status: ('A' for Active; 'I' for Inactive)
REMARK    1  A    between atoms: N_2  and  S_1 
REMARK    2  A    between atoms: N_3  and  S_1 
REMARK    3  A    between atoms: C_6  and  N_2 
ROOT
ATOM      1  C   UNL d   1      53.005  32.141  53.118  0.00  0.00     0.095 A 
ATOM      2  C   UNL d   1      53.298  30.542  53.509  0.00  0.00     0.000 A 
ATOM      3  C   UNL d   1      53.619  31.948  53.639  0.00  0.00     0.020 A 
ATOM      4  C   UNL d   1      52.543  31.544  52.795  0.00  0.00     0.020 A 
ATOM      5  C   UNL d   1      53.768  31.135  53.838  0.00  0.00     0.002 A 
ATOM      6  C   UNL d   1      52.692  30.731  52.993  0.00  0.00     0.002 A 
ATOM      7  C   UNL d   1      53.443  29.752  53.702  0.00  0.00     0.000 C 
ENDROOT
BRANCH   1   8
ATOM      8  N   UNL d   1      52.861  32.929  52.925  0.00  0.00    -0.144 NA
BRANCH   8   9
ATOM      9  S   UNL d   1      52.330  33.370  53.378  0.00  0.00     0.351 S 
ATOM     10  O   UNL d   1      52.807  33.274  54.039  0.00  0.00    -0.180 OA
ATOM     11  O   UNL d   1      52.108  33.704  54.099  0.00  0.00    -0.180 OA
BRANCH   9  12
ATOM     12  N   UNL d   1      51.649  33.675  53.027  0.00  0.00    -0.212 N 
ATOM     13  C   UNL d   1      51.714  34.176  52.374  0.00  0.00     0.113 C 
ATOM     14  C   UNL d   1      50.909  33.478  53.329  0.00  0.00     0.113 C 
ENDBRANCH   9  12
ENDBRANCH   8   9
ENDBRANCH   1   8
TORSDOF 3
ENDMDL
MODEL 4
REMARK VINA RESULT:      -7.3      1.392      3.050
REMARK  3 active torsions:
REMARK  status: ('A' for Active; 'I' for Inactive)
REMARK    1  A    between atoms: N_2  and  S_1 
REMARK    2  A    between atoms: N_3  and  S_1 
REMARK    3  A    between atoms: C_6  and  N_2 
ROOT
ATOM      1  C   UNL d   1      53.666  32.110  53.474  0.00  0.00     0.095 A 
ATOM      2  C   UNL d   1      52.933  30.636  53.183  0.00  0.00     0.000 A 
ATOM      3  C   UNL d   1      52.966  32.075  53.033  0.00  0.00     0.020 A 
ATOM      4  C   UNL d   1      53.998  31.417  53.765  0.00  0.00     0.020 A 
ATOM      5  C   UNL d   1      52.593  31.326  52.885  0.00  0.00     0.002 A 
ATOM      6  C   UNL d   1      53.625  30.668  53.618  0.00  0.00     0.002 A 
ATOM      7  C   UNL d   1      52.570  29.907  53.039  0.00  0.00     0.000 C 
ENDROOT
BRANCH   1   8
ATOM      8  N   UNL d   1      54.028  32.836  53.617  0.00  0.00    -0.144 NA
BRANCH   8   9
ATOM      9  S   UNL d   1      53.864  33.243  54.316  0.00  0.00     0.351 S 
ATOM     10  O   UNL d   1      53.080  33.331  54.087  0.00  0.00    -0.180 OA
ATOM     11  O   UNL d   1      53.332  33.639  54.807  0.00  0.00    -0.180 OA
BRANCH   9  12
ATOM     12  N   UNL d   1      54.466  33.371  54.866  0.00  0.00    -0.212 N 
ATOM     13  C   UNL d   1      55.160  33.752  54.631  0.00  0.00     0.113 C 
ATOM     14  C   UNL d   1      54.371  33.118  55.643  0.00  0.00     0.113 C 
ENDBRANCH   9  12
ENDBRANCH   8   9
ENDBRANCH   1   8
TORSDOF 3
ENDMDL
MODEL 5
REMARK VINA RESULT:      -7.3      1.995      3.028
REMARK  3 active torsions:
REMARK  status: ('A' for Active; 'I' for Inactive)
REMARK    1  A    between atoms: N_2  and  S_1 
REMARK    2  A    between atoms: N_3  and  S_1 
REMARK    3  A    between atoms: C_6  and  N_2 
ROOT
ATOM      1  C   UNL d   1      52.968  33.400  53.226  0.00  0.00     0.095 A 
ATOM      2  C   UNL d   1      51.418  33.976  52.975  0.00  0.00     0.000 A 
ATOM      3  C   UNL d   1      52.803  34.204  53.332  0.00  0.00     0.020 A 
ATOM      4  C   UNL d   1      52.368  32.888  52.998  0.00  0.00     0.020 A 
ATOM      5  C   UNL d   1      52.016  34.497  53.204  0.00  0.00     0.002 A 
ATOM      6  C   UNL d   1      51.580  33.181  52.870  0.00  0.00     0.002 A 
ATOM      7  C   UNL d   1      50.653  34.261  52.851  0.00  0.00     0.000 C 
ENDROOT
BRANCH   1   8
ATOM      8  N   UNL d   1      53.731  33.116  53.350  0.00  0.00    -0.144 NA
BRANCH   8   9
ATOM      9  S   UNL d   1      53.904  32.695  54.039  0.00  0.00     0.351 S 
ATOM     10  O   UNL d   1      53.441  32.069  53.778  0.00  0.00    -0.180 OA
ATOM     11  O   UNL d   1      53.824  32.019  54.505  0.00  0.00    -0.180 OA
BRANCH   9  12
ATOM     12  N   UNL d   1      54.395  33.031  54.611  0.00  0.00    -0.212 N 
ATOM     13  C   UNL d   1      55.106  33.383  54.384  0.00  0.00     0.113 C 
ATOM     14  C   UNL d   1      54.172  33.013  55.403  0.00  0.00     0.113 C 
ENDBRANCH   9  12
ENDBRANCH   8   9
ENDBRANCH   1   8
TORSDOF 3
ENDMDL
