MODEL 1
REMARK VINA RESULT:      73.2      0.000      0.000
REMARK  4 active torsions:
REMARK  status: ('A' for Active; 'I' for Inactive)
REMARK    1  A    between atoms: S_9  and  C_2 
REMARK    2  A    between atoms: C_11  and  C_3 
REMARK    3  A    between atoms: C_7  and  C_10 
REMARK       I    between atoms: N_8  and  C_7 
REMARK    4  A    between atoms: C_10  and  S_9 
ROOT
ATOM      1  N   UNL d   1      59.594  49.065  50.277  0.00  0.00    -0.220 NA
ATOM      2  C   UNL d   1      60.320  48.961  50.636  0.00  0.00     0.114 A 
ATOM      3  C   UNL d   1      58.960  49.382  50.697  0.00  0.00     0.163 A 
ATOM      4  N   UNL d   1      59.060  49.596  51.490  0.00  0.00    -0.227 NA
ATOM      5  C   UNL d   1      60.419  49.175  51.428  0.00  0.00     0.042 A 
ATOM      6  C   UNL d   1      59.793  49.493  51.860  0.00  0.00     0.085 A 
ATOM      7  C   UNL d   1      61.152  49.071  51.793  0.00  0.00     0.004 A 
ATOM      8  C   UNL d   1      59.880  49.705  52.635  0.00  0.00     0.019 A 
ATOM      9  C   UNL d   1      61.241  49.288  52.586  0.00  0.00     0.000 A 
ATOM     10  C   UNL d   1      60.602  49.606  53.007  0.00  0.00     0.002 A 
ENDROOT
BRANCH   2  11
ATOM     11  S   UNL d   1      60.959  48.643  50.216  0.00  0.00    -0.062 SA
BRANCH  11  12
ATOM     12  C   UNL d   1      61.016  47.829  50.092  0.00  0.00     0.098 C 
BRANCH  12  13
ATOM     13  C   UNL d   1      61.678  47.515  49.728  0.00  0.00     0.272 C 
ATOM     14  N   UNL d   1      61.752  46.690  49.640  0.00  0.00    -0.267 N 
ATOM     15  C   UNL d   1      62.425  46.377  49.270  0.00  0.00     0.110 A 
ATOM     16  C   UNL d   1      61.164  46.200  49.919  0.00  0.00     0.110 A 
ATOM     17  C   UNL d   1      62.498  45.566  49.184  0.00  0.00     0.142 A 
ATOM     18  O   UNL d   1      61.904  45.064  49.465  0.00  0.00    -0.300 OA
ATOM     19  C   UNL d   1      61.236  45.388  49.833  0.00  0.00     0.142 A 
ATOM     20  O   UNL d   1      62.272  48.016  49.447  0.00  0.00    -0.266 OA
ENDBRANCH  12  13
ENDBRANCH  11  12
ENDBRANCH   2  11
BRANCH   3  21
ATOM     21  C   UNL d   1      58.222  49.488  50.332  0.00  0.00     0.036 A 
ATOM     22  C   UNL d   1      58.180  49.549  49.510  0.00  0.00     0.003 A 
ATOM     23  C   UNL d   1      57.446  49.654  49.148  0.00  0.00     0.000 A 
ATOM     24  C   UNL d   1      56.762  49.697  49.611  0.00  0.00     0.000 A 
ATOM     25  C   UNL d   1      56.812  49.635  50.434  0.00  0.00     0.000 A 
ATOM     26  C   UNL d   1      57.548  49.530  50.786  0.00  0.00     0.003 A 
ENDBRANCH   3  21
TORSDOF 4
ENDMDL
MODEL 2
REMARK VINA RESULT:      74.8      1.630      4.237
REMARK  4 active torsions:
REMARK  status: ('A' for Active; 'I' for Inactive)
REMARK    1  A    between atoms: S_9  and  C_2 
REMARK    2  A    between atoms: C_11  and  C_3 
REMARK    3  A    between atoms: C_7  and  C_10 
REMARK       I    between atoms: N_8  and  C_7 
REMARK    4  A    between atoms: C_10  and  S_9 
ROOT
ATOM      1  N   UNL d   1      60.623  47.995  50.132  0.00  0.00    -0.220 NA
ATOM      2  C   UNL d   1      60.499  48.716  50.494  0.00  0.00     0.114 A 
ATOM      3  C   UNL d   1      61.049  47.402  50.514  0.00  0.00     0.163 A 
ATOM      4  N   UNL d   1      61.354  47.539  51.270  0.00  0.00    -0.227 NA
ATOM      5  C   UNL d   1      60.803  48.853  51.250  0.00  0.00     0.042 A 
ATOM      6  C   UNL d   1      61.232  48.268  51.643  0.00  0.00     0.085 A 
ATOM      7  C   UNL d   1      60.679  49.581  51.618  0.00  0.00     0.004 A 
ATOM      8  C   UNL d   1      61.534  48.392  52.383  0.00  0.00     0.019 A 
ATOM      9  C   UNL d   1      60.988  49.707  52.374  0.00  0.00     0.000 A 
ATOM     10  C   UNL d   1      61.417  49.110  52.756  0.00  0.00     0.002 A 
ENDROOT
BRANCH   2  11
ATOM     11  S   UNL d   1      60.070  49.314  50.112  0.00  0.00    -0.062 SA
BRANCH  11  12
ATOM     12  C   UNL d   1      59.272  49.432  50.281  0.00  0.00     0.098 C 
BRANCH  12  13
ATOM     13  C   UNL d   1      58.736  49.548  49.674  0.00  0.00     0.272 C 
ATOM     14  N   UNL d   1      57.920  49.566  49.838  0.00  0.00    -0.267 N 
ATOM     15  C   UNL d   1      57.381  49.684  49.219  0.00  0.00     0.110 A 
ATOM     16  C   UNL d   1      57.660  49.469  50.604  0.00  0.00     0.110 A 
ATOM     17  C   UNL d   1      56.578  49.702  49.380  0.00  0.00     0.142 A 
ATOM     18  O   UNL d   1      56.309  49.604  50.156  0.00  0.00    -0.300 OA
ATOM     19  C   UNL d   1      56.856  49.487  50.766  0.00  0.00     0.142 A 
ATOM     20  O   UNL d   1      59.005  49.646  48.899  0.00  0.00    -0.266 OA
ENDBRANCH  12  13
ENDBRANCH  11  12
ENDBRANCH   2  11
BRANCH   3  21
ATOM     21  C   UNL d   1      61.175  46.669  50.146  0.00  0.00     0.036 A 
ATOM     22  C   UNL d   1      60.997  45.973  50.553  0.00  0.00     0.003 A 
ATOM     23  C   UNL d   1      61.123  45.246  50.185  0.00  0.00     0.000 A 
ATOM     24  C   UNL d   1      61.424  45.219  49.416  0.00  0.00     0.000 A 
ATOM     25  C   UNL d   1      61.600  45.921  49.015  0.00  0.00     0.000 A 
ATOM     26  C   UNL d   1      61.471  46.643  49.388  0.00  0.00     0.003 A 
ENDBRANCH   3  21
TORSDOF 4
ENDMDL
