MODEL 1
REMARK VINA RESULT:      -7.7      0.000      0.000
REMARK  4 active torsions:
REMARK  status: ('A' for Active; 'I' for Inactive)
REMARK    1  A    between atoms: N_4  and  C_1 
REMARK    2  A    between atoms: S_8  and  C_2 
REMARK    3  A    between atoms: N_6  and  C_9 
REMARK    4  A    between atoms: C_16  and  S_8 
ROOT
ATOM      1  S   UNL d   1     -47.902  13.016  22.204  0.00  0.00    -0.066 SA
ENDROOT
BRANCH   1   2
ATOM      2  C   UNL d   1     -47.510  12.575  22.782  0.00  0.00     0.136 A 
ATOM      3  C   UNL d   1     -47.704  11.877  23.177  0.00  0.00     0.232 A 
ATOM      4  N   UNL d   1     -47.076  11.716  23.698  0.00  0.00    -0.201 NA
ATOM      5  C   UNL d   1     -46.509  12.314  23.615  0.00  0.00     0.185 A 
ATOM      6  N   UNL d   1     -46.794  12.824  23.053  0.00  0.00    -0.279 N 
ATOM      7  C   UNL d   1     -46.398  13.510  22.796  0.00  0.00     0.101 C 
BRANCH   3   8
ATOM      8  N   UNL d   1     -48.389  11.421  23.079  0.00  0.00    -0.093 N 
ATOM      9  O   UNL d   1     -48.525  11.024  22.366  0.00  0.00    -0.530 OA
ATOM     10  O   UNL d   1     -48.945  11.359  23.698  0.00  0.00    -0.530 OA
ENDBRANCH   3   8
ENDBRANCH   1   2
BRANCH   1  11
ATOM     11  C   UNL d   1     -48.404  13.631  22.391  0.00  0.00     0.031 A 
ATOM     12  C   UNL d   1     -49.176  13.628  22.084  0.00  0.00     0.008 A 
ATOM     13  C   UNL d   1     -49.691  14.247  22.269  0.00  0.00     0.024 A 
ATOM     14  C   UNL d   1     -49.445  14.854  22.746  0.00  0.00     0.127 A 
ATOM     15  C   UNL d   1     -48.672  14.853  23.051  0.00  0.00     0.024 A 
ATOM     16  C   UNL d   1     -48.173  14.251  22.870  0.00  0.00     0.008 A 
BRANCH  14  17
ATOM     17  N   UNL d   1     -49.960  15.469  22.929  0.00  0.00    -0.114 N 
ATOM     18  O   UNL d   1     -50.531  15.699  22.379  0.00  0.00    -0.532 OA
ATOM     19  O   UNL d   1     -49.907  15.853  23.653  0.00  0.00    -0.532 OA
ENDBRANCH  14  17
ENDBRANCH   1  11
TORSDOF 4
ENDMDL
MODEL 2
REMARK VINA RESULT:      -7.6      1.677      3.243
REMARK  4 active torsions:
REMARK  status: ('A' for Active; 'I' for Inactive)
REMARK    1  A    between atoms: N_4  and  C_1 
REMARK    2  A    between atoms: S_8  and  C_2 
REMARK    3  A    between atoms: N_6  and  C_9 
REMARK    4  A    between atoms: C_16  and  S_8 
ROOT
ATOM      1  S   UNL d   1     -49.094  13.948  22.156  0.00  0.00    -0.066 SA
ENDROOT
BRANCH   1   2
ATOM      2  C   UNL d   1     -49.651  14.086  22.751  0.00  0.00     0.136 A 
ATOM      3  C   UNL d   1     -50.155  13.584  23.170  0.00  0.00     0.232 A 
ATOM      4  N   UNL d   1     -50.583  14.065  23.698  0.00  0.00    -0.201 NA
ATOM      5  C   UNL d   1     -50.337  14.849  23.595  0.00  0.00     0.185 A 
ATOM      6  N   UNL d   1     -49.771  14.838  23.015  0.00  0.00    -0.279 N 
ATOM      7  C   UNL d   1     -49.372  15.512  22.735  0.00  0.00     0.101 C 
BRANCH   3   8
ATOM      8  N   UNL d   1     -50.225  12.764  23.087  0.00  0.00    -0.093 N 
ATOM      9  O   UNL d   1     -50.551  12.442  22.398  0.00  0.00    -0.530 OA
ATOM     10  O   UNL d   1     -49.968  12.255  23.696  0.00  0.00    -0.530 OA
ENDBRANCH   3   8
ENDBRANCH   1   2
BRANCH   1  11
ATOM     11  C   UNL d   1     -48.313  13.783  22.322  0.00  0.00     0.031 A 
ATOM     12  C   UNL d   1     -47.950  13.139  21.942  0.00  0.00     0.008 A 
ATOM     13  C   UNL d   1     -47.158  12.963  22.104  0.00  0.00     0.024 A 
ATOM     14  C   UNL d   1     -46.740  13.417  22.629  0.00  0.00     0.127 A 
ATOM     15  C   UNL d   1     -47.107  14.060  23.005  0.00  0.00     0.024 A 
ATOM     16  C   UNL d   1     -47.875  14.228  22.847  0.00  0.00     0.008 A 
BRANCH  14  17
ATOM     17  N   UNL d   1     -45.951  13.240  22.788  0.00  0.00    -0.114 N 
ATOM     18  O   UNL d   1     -45.762  12.795  23.457  0.00  0.00    -0.532 OA
ATOM     19  O   UNL d   1     -45.358  13.505  22.287  0.00  0.00    -0.532 OA
ENDBRANCH  14  17
ENDBRANCH   1  11
TORSDOF 4
ENDMDL
MODEL 3
REMARK VINA RESULT:      -7.4      1.652      3.644
REMARK  4 active torsions:
REMARK  status: ('A' for Active; 'I' for Inactive)
REMARK    1  A    between atoms: N_4  and  C_1 
REMARK    2  A    between atoms: S_8  and  C_2 
REMARK    3  A    between atoms: N_6  and  C_9 
REMARK    4  A    between atoms: C_16  and  S_8 
ROOT
ATOM      1  S   UNL d   1     -49.408  13.471  22.355  0.00  0.00    -0.066 SA
ENDROOT
BRANCH   1   2
ATOM      2  C   UNL d   1     -50.042  13.599  22.869  0.00  0.00     0.136 A 
ATOM      3  C   UNL d   1     -50.364  14.285  23.196  0.00  0.00     0.232 A 
ATOM      4  N   UNL d   1     -51.001  14.043  23.674  0.00  0.00    -0.201 NA
ATOM      5  C   UNL d   1     -51.060  13.218  23.632  0.00  0.00     0.185 A 
ATOM      6  N   UNL d   1     -50.468  12.970  23.137  0.00  0.00    -0.279 N 
ATOM      7  C   UNL d   1     -50.323  12.175  22.938  0.00  0.00     0.101 C 
BRANCH   3   8
ATOM      8  N   UNL d   1     -50.108  15.063  23.078  0.00  0.00    -0.093 N 
ATOM      9  O   UNL d   1     -50.211  15.427  22.342  0.00  0.00    -0.530 OA
ATOM     10  O   UNL d   1     -49.744  15.486  23.698  0.00  0.00    -0.530 OA
ENDBRANCH   3   8
ENDBRANCH   1   2
BRANCH   1  11
ATOM     11  C   UNL d   1     -48.650  13.336  22.624  0.00  0.00     0.031 A 
ATOM     12  C   UNL d   1     -48.030  13.802  22.326  0.00  0.00     0.008 A 
ATOM     13  C   UNL d   1     -47.258  13.673  22.592  0.00  0.00     0.024 A 
ATOM     14  C   UNL d   1     -47.108  13.095  23.141  0.00  0.00     0.127 A 
ATOM     15  C   UNL d   1     -47.731  12.632  23.436  0.00  0.00     0.024 A 
ATOM     16  C   UNL d   1     -48.480  12.759  23.176  0.00  0.00     0.008 A 
BRANCH  14  17
ATOM     17  N   UNL d   1     -46.339  12.968  23.405  0.00  0.00    -0.114 N 
ATOM     18  O   UNL d   1     -45.824  13.609  23.482  0.00  0.00    -0.532 OA
ATOM     19  O   UNL d   1     -46.084  12.210  23.592  0.00  0.00    -0.532 OA
ENDBRANCH  14  17
ENDBRANCH   1  11
TORSDOF 4
ENDMDL
MODEL 4
REMARK VINA RESULT:      -5.4      9.010      9.990
REMARK  4 active torsions:
REMARK  status: ('A' for Active; 'I' for Inactive)
REMARK    1  A    between atoms: N_4  and  C_1 
REMARK    2  A    between atoms: S_8  and  C_2 
REMARK    3  A    between atoms: N_6  and  C_9 
REMARK    4  A    between atoms: C_16  and  S_8 
ROOT
ATOM      1  S   UNL d   1     -39.775  15.919  18.462  0.00  0.00    -0.066 SA
ENDROOT
BRANCH   1   2
ATOM      2  C   UNL d   1     -39.529  15.382  17.884  0.00  0.00     0.136 A 
ATOM      3  C   UNL d   1     -39.926  14.787  17.473  0.00  0.00     0.232 A 
ATOM      4  N   UNL d   1     -39.368  14.439  16.963  0.00  0.00    -0.201 NA
ATOM      5  C   UNL d   1     -38.642  14.824  17.069  0.00  0.00     0.185 A 
ATOM      6  N   UNL d   1     -38.764  15.393  17.634  0.00  0.00    -0.279 N 
ATOM      7  C   UNL d   1     -38.177  15.913  17.912  0.00  0.00     0.101 C 
BRANCH   3   8
ATOM      8  N   UNL d   1     -40.722  14.572  17.547  0.00  0.00    -0.093 N 
ATOM      9  O   UNL d   1     -41.315  15.070  17.256  0.00  0.00    -0.530 OA
ATOM     10  O   UNL d   1     -40.932  13.854  17.915  0.00  0.00    -0.530 OA
ENDBRANCH   3   8
ENDBRANCH   1   2
BRANCH   1  11
ATOM     11  C   UNL d   1     -39.748  15.745  19.259  0.00  0.00     0.031 A 
ATOM     12  C   UNL d   1     -40.409  15.919  19.731  0.00  0.00     0.008 A 
ATOM     13  C   UNL d   1     -40.390  15.746  20.539  0.00  0.00     0.024 A 
ATOM     14  C   UNL d   1     -39.731  15.409  20.868  0.00  0.00     0.127 A 
ATOM     15  C   UNL d   1     -39.072  15.237  20.392  0.00  0.00     0.024 A 
ATOM     16  C   UNL d   1     -39.092  15.406  19.608  0.00  0.00     0.008 A 
BRANCH  14  17
ATOM     17  N   UNL d   1     -39.714  15.237  21.673  0.00  0.00    -0.114 N 
ATOM     18  O   UNL d   1     -39.726  14.450  21.921  0.00  0.00    -0.532 OA
ATOM     19  O   UNL d   1     -39.685  15.843  22.226  0.00  0.00    -0.532 OA
ENDBRANCH  14  17
ENDBRANCH   1  11
TORSDOF 4
ENDMDL
