MODEL 1
REMARK VINA RESULT:      16.3      0.000      0.000
REMARK  6 active torsions:
REMARK  status: ('A' for Active; 'I' for Inactive)
REMARK    1  A    between atoms: C_2  and  N_1 
REMARK       I    between atoms: C_3  and  N_9 
REMARK    2  A    between atoms: C_5  and  C_3 
REMARK    3  A    between atoms: C_6  and  C_5 
REMARK    4  A    between atoms: C_7  and  C_6 
REMARK    5  A    between atoms: O_14  and  C_7 
REMARK    6  A    between atoms: N_9  and  C_11 
ROOT
ATOM      1  C   UNL d   1     -57.516 -99.087 -44.027  0.00  0.00     0.258 C 
ATOM      2  N   UNL d   1     -56.958 -98.849 -44.586  0.00  0.00    -0.321 N 
ATOM      3  O   UNL d   1     -57.318 -99.652 -43.472  0.00  0.00    -0.267 OA
ATOM      4  H   UNL d   1     -57.155 -98.285 -45.140  0.00  0.00     0.169 HD
ENDROOT
BRANCH   2   5
ATOM      5  C   UNL d   1     -56.210 -99.187 -44.573  0.00  0.00     0.061 A 
ATOM      6  C   UNL d   1     -56.128 -99.991 -44.354  0.00  0.00     0.041 A 
ATOM      7  C   UNL d   1     -55.380-100.342 -44.338  0.00  0.00     0.128 A 
ATOM      8  C   UNL d   1     -54.716 -99.892 -44.540  0.00  0.00     0.024 A 
ATOM      9  C   UNL d   1     -54.795 -99.101 -44.756  0.00  0.00     0.003 A 
ATOM     10  C   UNL d   1     -55.533 -98.756 -44.772  0.00  0.00     0.017 A 
BRANCH   7  11
ATOM     11  N   UNL d   1     -55.295-101.130 -44.123  0.00  0.00    -0.114 N 
ATOM     12  O   UNL d   1     -55.638-101.415 -43.429  0.00  0.00    -0.532 OA
ATOM     13  O   UNL d   1     -54.863-101.640 -44.611  0.00  0.00    -0.532 OA
ENDBRANCH   7  11
ENDBRANCH   2   5
BRANCH   1  14
ATOM     14  C   UNL d   1     -58.266 -98.756 -44.029  0.00  0.00     0.066 C 
BRANCH  14  15
ATOM     15  C   UNL d   1     -58.723 -98.797 -43.353  0.00  0.00     0.073 C 
BRANCH  15  16
ATOM     16  C   UNL d   1     -59.531 -98.968 -43.398  0.00  0.00     0.296 C 
ATOM     17  O   UNL d   1     -59.916 -98.940 -44.126  0.00  0.00    -0.259 OA
BRANCH  16  18
ATOM     18  O   UNL d   1     -59.942 -99.164 -42.714  0.00  0.00    -0.296 OA
ATOM     19  C   UNL d   1     -59.776 -98.777 -42.002  0.00  0.00     0.185 C 
ENDBRANCH  16  18
ENDBRANCH  15  16
ENDBRANCH  14  15
ENDBRANCH   1  14
TORSDOF 6
ENDMDL
