MODEL 1
REMARK VINA RESULT:      14.7      0.000      0.000
REMARK  1 active torsions:
REMARK  status: ('A' for Active; 'I' for Inactive)
REMARK    1  A    between atoms: C_5  and  C_8 
ROOT
ATOM      1  C   UNL d   1     -51.609  24.910  33.337  0.00  0.00     0.084 A 
ATOM      2  C   UNL d   1     -52.152  25.528  33.326  0.00  0.00     0.057 A 
ATOM      3  N   UNL d   1     -51.870  24.131  33.344  0.00  0.00    -0.245 NA
ATOM      4  C   UNL d   1     -52.959  25.376  33.323  0.00  0.00     0.199 A 
ATOM      5  C   UNL d   1     -53.225  24.594  33.331  0.00  0.00     0.061 A 
ATOM      6  C   UNL d   1     -52.682  23.977  33.341  0.00  0.00     0.085 A 
ATOM      7  C   UNL d   1     -50.535  25.848  33.332  0.00  0.00     0.073 A 
ATOM      8  C   UNL d   1     -50.797  25.070  33.339  0.00  0.00     0.023 A 
ATOM      9  C   UNL d   1     -51.887  26.309  33.318  0.00  0.00     0.005 A 
ATOM     10  O   UNL d   1     -53.498  26.000  33.313  0.00  0.00    -0.286 OA
ATOM     11  C   UNL d   1     -51.082  26.470  33.321  0.00  0.00     0.004 A 
ATOM     12  C   UNL d   1     -52.949  23.192  33.349  0.00  0.00     0.021 C 
ENDROOT
BRANCH   7  13
ATOM     13  C   UNL d   1     -49.724  26.015  33.334  0.00  0.00     0.419 C 
ATOM     14  F   UNL d   1     -48.989  26.163  33.337  0.00  0.00    -0.166 F 
ATOM     15  F   UNL d   1     -49.328  26.779  33.350  0.00  0.00    -0.166 F 
ATOM     16  F   UNL d   1     -49.061  25.469  33.322  0.00  0.00    -0.166 F 
ENDBRANCH   7  13
TORSDOF 1
ENDMDL
MODEL 2
REMARK VINA RESULT:      14.9      1.491      2.031
REMARK  1 active torsions:
REMARK  status: ('A' for Active; 'I' for Inactive)
REMARK    1  A    between atoms: C_5  and  C_8 
ROOT
ATOM      1  C   UNL d   1     -51.025  25.032  33.444  0.00  0.00     0.084 A 
ATOM      2  C   UNL d   1     -51.787  24.728  33.377  0.00  0.00     0.057 A 
ATOM      3  N   UNL d   1     -50.383  24.523  33.512  0.00  0.00    -0.245 NA
ATOM      4  C   UNL d   1     -51.916  23.917  33.377  0.00  0.00     0.199 A 
ATOM      5  C   UNL d   1     -51.273  23.403  33.445  0.00  0.00     0.061 A 
ATOM      6  C   UNL d   1     -50.511  23.707  33.511  0.00  0.00     0.085 A 
ATOM      7  C   UNL d   1     -51.542  26.359  33.376  0.00  0.00     0.073 A 
ATOM      8  C   UNL d   1     -50.901  25.850  33.444  0.00  0.00     0.023 A 
ATOM      9  C   UNL d   1     -52.429  25.241  33.310  0.00  0.00     0.005 A 
ATOM     10  O   UNL d   1     -52.682  23.621  33.310  0.00  0.00    -0.286 OA
ATOM     11  C   UNL d   1     -52.309  26.053  33.309  0.00  0.00     0.004 A 
ATOM     12  C   UNL d   1     -49.867  23.191  33.579  0.00  0.00     0.021 C 
ENDROOT
BRANCH   7  13
ATOM     13  C   UNL d   1     -51.425  27.178  33.375  0.00  0.00     0.419 C 
ATOM     14  F   UNL d   1     -51.316  27.920  33.374  0.00  0.00    -0.166 F 
ATOM     15  F   UNL d   1     -52.010  27.809  33.393  0.00  0.00    -0.166 F 
ATOM     16  F   UNL d   1     -50.687  27.618  33.356  0.00  0.00    -0.166 F 
ENDBRANCH   7  13
TORSDOF 1
ENDMDL
