MODEL 1
REMARK VINA RESULT:      -8.5      0.000      0.000
REMARK  4 active torsions:
REMARK  status: ('A' for Active; 'I' for Inactive)
REMARK    1  A    between atoms: C_3  and  C_1 
REMARK    2  A    between atoms: C_8  and  C_3 
REMARK    3  A    between atoms: O_6  and  C_8 
REMARK    4  A    between atoms: C_7  and  O_6 
ROOT
ATOM      1  C   UNL d   1      52.929  31.620  52.994  0.00  0.00     0.223 C 
ATOM      2  O   UNL d   1      52.715  31.692  52.198  0.00  0.00    -0.284 OA
ENDROOT
BRANCH   1   3
ATOM      3  C   UNL d   1      53.033  30.873  53.328  0.00  0.00     0.080 A 
ATOM      4  C   UNL d   1      52.383  30.374  53.438  0.00  0.00     0.202 A 
ATOM      5  C   UNL d   1      52.487  29.628  53.772  0.00  0.00     0.084 A 
ATOM      6  O   UNL d   1      51.629  30.623  53.214  0.00  0.00    -0.286 OA
ATOM      7  C   UNL d   1      53.247  29.384  53.995  0.00  0.00     0.199 A 
ATOM      8  C   UNL d   1      53.891  29.877  53.886  0.00  0.00     0.042 A 
ATOM      9  O   UNL d   1      53.353  28.623  54.335  0.00  0.00    -0.286 OA
ATOM     10  C   UNL d   1      53.787  30.624  53.552  0.00  0.00     0.010 A 
ENDBRANCH   1   3
BRANCH   1  11
ATOM     11  C   UNL d   1      53.040  32.304  53.455  0.00  0.00     0.165 C 
BRANCH  11  12
ATOM     12  O   UNL d   1      52.827  33.044  53.149  0.00  0.00    -0.301 OA
BRANCH  12  13
ATOM     13  C   UNL d   1      52.950  33.720  53.613  0.00  0.00     0.106 A 
ATOM     14  C   UNL d   1      52.539  34.414  53.452  0.00  0.00     0.057 A 
ATOM     15 BR   UNL d   1      52.004  34.428  52.823  0.00  0.00    -0.047 Br
ATOM     16  C   UNL d   1      52.660  35.086  53.913  0.00  0.00     0.009 A 
ATOM     17  C   UNL d   1      53.198  35.064  54.541  0.00  0.00     0.001 A 
ATOM     18  C   UNL d   1      53.616  34.361  54.706  0.00  0.00     0.002 A 
ATOM     19  C   UNL d   1      53.488  33.694  54.240  0.00  0.00     0.025 A 
ENDBRANCH  12  13
ENDBRANCH  11  12
ENDBRANCH   1  11
TORSDOF 4
ENDMDL
MODEL 2
REMARK VINA RESULT:      -8.0      1.606      4.274
REMARK  4 active torsions:
REMARK  status: ('A' for Active; 'I' for Inactive)
REMARK    1  A    between atoms: C_3  and  C_1 
REMARK    2  A    between atoms: C_8  and  C_3 
REMARK    3  A    between atoms: O_6  and  C_8 
REMARK    4  A    between atoms: C_7  and  O_6 
ROOT
ATOM      1  C   UNL d   1      54.181  32.671  53.872  0.00  0.00     0.223 C 
ATOM      2  O   UNL d   1      54.873  32.655  53.420  0.00  0.00    -0.284 OA
ENDROOT
BRANCH   1   3
ATOM      3  C   UNL d   1      53.882  33.391  54.144  0.00  0.00     0.080 A 
ATOM      4  C   UNL d   1      54.196  33.738  54.826  0.00  0.00     0.202 A 
ATOM      5  C   UNL d   1      53.898  34.457  55.098  0.00  0.00     0.084 A 
ATOM      6  O   UNL d   1      54.808  33.366  55.235  0.00  0.00    -0.286 OA
ATOM      7  C   UNL d   1      53.283  34.826  54.683  0.00  0.00     0.199 A 
ATOM      8  C   UNL d   1      52.972  34.482  54.008  0.00  0.00     0.042 A 
ATOM      9  O   UNL d   1      52.979  35.559  54.960  0.00  0.00    -0.286 OA
ATOM     10  C   UNL d   1      53.270  33.763  53.736  0.00  0.00     0.010 A 
ENDBRANCH   1   3
BRANCH   1  11
ATOM     11  C   UNL d   1      53.787  31.961  54.051  0.00  0.00     0.165 C 
BRANCH  11  12
ATOM     12  O   UNL d   1      53.755  31.356  53.486  0.00  0.00    -0.301 OA
BRANCH  12  13
ATOM     13  C   UNL d   1      53.475  30.609  53.713  0.00  0.00     0.106 A 
ATOM     14  C   UNL d   1      53.046  30.148  53.184  0.00  0.00     0.057 A 
ATOM     15 BR   UNL d   1      52.899  30.439  52.425  0.00  0.00    -0.047 Br
ATOM     16  C   UNL d   1      52.768  29.406  53.409  0.00  0.00     0.009 A 
ATOM     17  C   UNL d   1      52.920  29.122  54.170  0.00  0.00     0.001 A 
ATOM     18  C   UNL d   1      53.355  29.588  54.709  0.00  0.00     0.002 A 
ATOM     19  C   UNL d   1      53.629  30.328  54.476  0.00  0.00     0.025 A 
ENDBRANCH  12  13
ENDBRANCH  11  12
ENDBRANCH   1  11
TORSDOF 4
ENDMDL
MODEL 3
REMARK VINA RESULT:      -7.8      2.036      4.301
REMARK  4 active torsions:
REMARK  status: ('A' for Active; 'I' for Inactive)
REMARK    1  A    between atoms: C_3  and  C_1 
REMARK    2  A    between atoms: C_8  and  C_3 
REMARK    3  A    between atoms: O_6  and  C_8 
REMARK    4  A    between atoms: C_7  and  O_6 
ROOT
ATOM      1  C   UNL d   1      52.001  33.940  52.787  0.00  0.00     0.223 C 
ATOM      2  O   UNL d   1      52.607  34.503  52.796  0.00  0.00    -0.284 OA
ENDROOT
BRANCH   1   3
ATOM      3  C   UNL d   1      51.221  34.174  52.661  0.00  0.00     0.080 A 
ATOM      4  C   UNL d   1      50.940  34.282  51.890  0.00  0.00     0.202 A 
ATOM      5  C   UNL d   1      50.159  34.517  51.764  0.00  0.00     0.084 A 
ATOM      6  O   UNL d   1      51.440  34.156  51.247  0.00  0.00    -0.286 OA
ATOM      7  C   UNL d   1      49.662  34.643  52.415  0.00  0.00     0.199 A 
ATOM      8  C   UNL d   1      49.940  34.535  53.178  0.00  0.00     0.042 A 
ATOM      9  O   UNL d   1      48.867  34.881  52.287  0.00  0.00    -0.286 OA
ATOM     10  C   UNL d   1      50.720  34.301  53.304  0.00  0.00     0.010 A 
ENDBRANCH   1   3
BRANCH   1  11
ATOM     11  C   UNL d   1      52.183  33.136  52.904  0.00  0.00     0.165 C 
BRANCH  11  12
ATOM     12  O   UNL d   1      52.910  32.925  53.242  0.00  0.00    -0.301 OA
BRANCH  12  13
ATOM     13  C   UNL d   1      53.092  32.121  53.329  0.00  0.00     0.106 A 
ATOM     14  C   UNL d   1      53.670  31.883  53.864  0.00  0.00     0.057 A 
ATOM     15 BR   UNL d   1      54.065  32.454  54.311  0.00  0.00    -0.047 Br
ATOM     16  C   UNL d   1      53.852  31.084  53.952  0.00  0.00     0.009 A 
ATOM     17  C   UNL d   1      53.452  30.518  53.501  0.00  0.00     0.001 A 
ATOM     18  C   UNL d   1      52.865  30.757  52.958  0.00  0.00     0.002 A 
ATOM     19  C   UNL d   1      52.690  31.557  52.877  0.00  0.00     0.025 A 
ENDBRANCH  12  13
ENDBRANCH  11  12
ENDBRANCH   1  11
TORSDOF 4
ENDMDL
MODEL 4
REMARK VINA RESULT:      -7.5      2.409      3.699
REMARK  4 active torsions:
REMARK  status: ('A' for Active; 'I' for Inactive)
REMARK    1  A    between atoms: C_3  and  C_1 
REMARK    2  A    between atoms: C_8  and  C_3 
REMARK    3  A    between atoms: O_6  and  C_8 
REMARK    4  A    between atoms: C_7  and  O_6 
ROOT
ATOM      1  C   UNL d   1      52.106  33.153  52.938  0.00  0.00     0.223 C 
ATOM      2  O   UNL d   1      52.249  32.472  52.490  0.00  0.00    -0.284 OA
ENDROOT
BRANCH   1   3
ATOM      3  C   UNL d   1      51.408  33.579  52.831  0.00  0.00     0.080 A 
ATOM      4  C   UNL d   1      51.314  34.058  52.163  0.00  0.00     0.202 A 
ATOM      5  C   UNL d   1      50.616  34.484  52.056  0.00  0.00     0.084 A 
ATOM      6  O   UNL d   1      51.918  34.110  51.604  0.00  0.00    -0.286 OA
ATOM      7  C   UNL d   1      50.013  34.428  52.622  0.00  0.00     0.199 A 
ATOM      8  C   UNL d   1      50.107  33.954  53.283  0.00  0.00     0.042 A 
ATOM      9  O   UNL d   1      49.303  34.862  52.513  0.00  0.00    -0.286 OA
ATOM     10  C   UNL d   1      50.805  33.527  53.391  0.00  0.00     0.010 A 
ENDBRANCH   1   3
BRANCH   1  11
ATOM     11  C   UNL d   1      52.669  33.405  53.496  0.00  0.00     0.165 C 
BRANCH  11  12
ATOM     12  O   UNL d   1      53.364  32.967  53.606  0.00  0.00    -0.301 OA
BRANCH  12  13
ATOM     13  C   UNL d   1      53.908  33.215  54.179  0.00  0.00     0.106 A 
ATOM     14  C   UNL d   1      54.715  33.112  54.058  0.00  0.00     0.057 A 
ATOM     15 BR   UNL d   1      54.975  32.759  53.357  0.00  0.00    -0.047 Br
ATOM     16  C   UNL d   1      55.257  33.358  54.628  0.00  0.00     0.009 A 
ATOM     17  C   UNL d   1      54.989  33.711  55.326  0.00  0.00     0.001 A 
ATOM     18  C   UNL d   1      54.171  33.816  55.452  0.00  0.00     0.002 A 
ATOM     19  C   UNL d   1      53.637  33.567  54.877  0.00  0.00     0.025 A 
ENDBRANCH  12  13
ENDBRANCH  11  12
ENDBRANCH   1  11
TORSDOF 4
ENDMDL
