MODEL 1
REMARK VINA RESULT:      20.6      0.000      0.000
REMARK  4 active torsions:
REMARK  status: ('A' for Active; 'I' for Inactive)
REMARK    1  A    between atoms: C_6  and  C_1 
REMARK    2  A    between atoms: C_8  and  N_3 
REMARK    3  A    between atoms: C_7  and  C_4 
REMARK    4  A    between atoms: O_16  and  C_13 
ROOT
ATOM      1  C   UNL d   1      45.336 -16.234  44.335  0.00  0.00     0.103 A 
ATOM      2  N   UNL d   1      46.550 -16.134  43.587  0.00  0.00    -0.165 NA
ATOM      3  N   UNL d   1      45.995 -17.412  43.865  0.00  0.00    -0.228 N 
ATOM      4  C   UNL d   1      45.930 -15.778  43.990  0.00  0.00     0.109 A 
ATOM      5  C   UNL d   1      45.376 -17.056  44.268  0.00  0.00     0.108 A 
ENDROOT
BRANCH   4   6
ATOM      6  C   UNL d   1      45.898 -14.960  44.052  0.00  0.00     0.020 A 
ATOM      7  C   UNL d   1      46.196 -14.585  44.726  0.00  0.00     0.004 A 
ATOM      8  C   UNL d   1      46.163 -13.756  44.787  0.00  0.00     0.024 A 
ATOM      9  C   UNL d   1      45.834 -13.313  44.178  0.00  0.00     0.094 A 
ATOM     10  C   UNL d   1      45.536 -13.688  43.503  0.00  0.00     0.024 A 
ATOM     11  C   UNL d   1      45.570 -14.516  43.442  0.00  0.00     0.004 A 
BRANCH   9  12
ATOM     12  O   UNL d   1      45.799 -12.461  44.239  0.00  0.00    -0.328 OA
ATOM     13  C   UNL d   1      46.053 -12.081  44.951  0.00  0.00     0.181 C 
ENDBRANCH   9  12
ENDBRANCH   4   6
BRANCH   1  14
ATOM     14  C   UNL d   1      44.717 -15.878  44.738  0.00  0.00     0.214 C 
ATOM     15  O   UNL d   1      44.757 -15.082  44.952  0.00  0.00    -0.644 OA
ATOM     16  O   UNL d   1      44.017 -16.332  44.942  0.00  0.00    -0.644 OA
ENDBRANCH   1  14
BRANCH   3  17
ATOM     17  C   UNL d   1      46.209 -18.191  43.693  0.00  0.00     0.083 A 
ATOM     18  C   UNL d   1      46.397 -18.712  44.301  0.00  0.00     0.019 A 
ATOM     19  C   UNL d   1      46.610 -19.491  44.128  0.00  0.00     0.002 A 
ATOM     20  C   UNL d   1      46.635 -19.746  43.346  0.00  0.00     0.000 A 
ATOM     21  C   UNL d   1      46.447 -19.225  42.737  0.00  0.00     0.002 A 
ATOM     22  C   UNL d   1      46.234 -18.447  42.910  0.00  0.00     0.019 A 
ENDBRANCH   3  17
TORSDOF 4
ENDMDL
