MODEL 1
REMARK VINA RESULT:      66.6      0.000      0.000
REMARK  7 active torsions:
REMARK  status: ('A' for Active; 'I' for Inactive)
REMARK    1  A    between atoms: C_8  and  N_2 
REMARK    2  A    between atoms: C_13  and  C_8 
REMARK    3  A    between atoms: O_17  and  C_13 
REMARK    4  A    between atoms: O_18  and  C_15 
REMARK    5  A    between atoms: C_21  and  O_17 
REMARK    6  A    between atoms: C_23  and  C_21 
REMARK    7  A    between atoms: C_24  and  C_23 
ROOT
ATOM      1  C   UNL d   1     -55.036-100.899 -43.018  0.00  0.00     0.166 A 
ATOM      2  N   UNL d   1     -55.112-100.394 -43.657  0.00  0.00    -0.285 N 
ATOM      3  C   UNL d   1     -54.966-101.670 -43.310  0.00  0.00     0.117 A 
ATOM      4  C   UNL d   1     -55.000-101.637 -44.132  0.00  0.00     0.039 A 
ATOM      5  C   UNL d   1     -55.090-100.846 -44.350  0.00  0.00     0.067 A 
ATOM      6  N   UNL d   1     -55.021-100.763 -42.210  0.00  0.00    -0.225 NA
ATOM      7  N   UNL d   1     -54.881-102.311 -42.789  0.00  0.00    -0.241 NA
ATOM      8  C   UNL d   1     -54.935-101.400 -41.681  0.00  0.00     0.101 A 
ATOM      9  C   UNL d   1     -54.866-102.171 -41.973  0.00  0.00     0.099 A 
ATOM     10  C   UNL d   1     -55.141-100.640 -45.148  0.00  0.00     0.020 A 
ATOM     11  C   UNL d   1     -54.960-102.222 -44.711  0.00  0.00     0.027 A 
ATOM     12  C   UNL d   1     -55.010-102.016 -45.508  0.00  0.00     0.094 A 
ATOM     13  C   UNL d   1     -55.101-101.226 -45.727  0.00  0.00     0.026 A 
ATOM     14  C   UNL d   1     -54.781-102.800 -41.452  0.00  0.00     0.021 A 
ATOM     15  C   UNL d   1     -54.921-101.258 -40.872  0.00  0.00     0.021 A 
ATOM     16  C   UNL d   1     -54.766-102.658 -40.639  0.00  0.00     0.002 A 
ATOM     17  C   UNL d   1     -54.836-101.888 -40.343  0.00  0.00     0.002 A 
ENDROOT
BRANCH   2  18
ATOM     18  C   UNL d   1     -55.196 -99.576 -43.620  0.00  0.00     0.151 C 
BRANCH  18  19
ATOM     19  C   UNL d   1     -55.881 -99.228 -43.918  0.00  0.00     0.318 C 
ATOM     20  O   UNL d   1     -55.853 -98.755 -44.589  0.00  0.00    -0.257 OA
BRANCH  19  21
ATOM     21  O   UNL d   1     -56.600 -99.356 -43.539  0.00  0.00    -0.270 OA
BRANCH  21  22
ATOM     22  C   UNL d   1     -57.239 -98.864 -43.697  0.00  0.00     0.126 C 
BRANCH  22  23
ATOM     23  C   UNL d   1     -57.866 -99.149 -44.149  0.00  0.00     0.027 C 
BRANCH  23  24
ATOM     24  C   UNL d   1     -58.638 -98.912 -43.976  0.00  0.00     0.002 C 
ATOM     25  C   UNL d   1     -59.276 -99.283 -44.340  0.00  0.00     0.000 C 
ENDBRANCH  23  24
ENDBRANCH  22  23
ENDBRANCH  21  22
ENDBRANCH  19  21
ENDBRANCH  18  19
ENDBRANCH   2  18
BRANCH  12  26
ATOM     26  O   UNL d   1     -54.970-102.601 -46.083  0.00  0.00    -0.328 OA
ATOM     27  C   UNL d   1     -55.263-102.462 -46.832  0.00  0.00     0.181 C 
ENDBRANCH  12  26
TORSDOF 7
ENDMDL
