MODEL 1
REMARK VINA RESULT:      49.7      0.000      0.000
REMARK  3 active torsions:
REMARK  status: ('A' for Active; 'I' for Inactive)
REMARK    1  A    between atoms: C_13  and  C_2 
REMARK    2  A    between atoms: C_10  and  C_4 
REMARK    3  A    between atoms: N_7  and  C_10 
ROOT
ATOM      1  N   UNL d   1     -49.486  27.450  35.193  0.00  0.00    -0.121 NA
ATOM      2  C   UNL d   1     -49.132  28.012  34.710  0.00  0.00     0.204 A 
ATOM      3  O   UNL d   1     -49.414  27.904  33.944  0.00  0.00    -0.267 OA
ATOM      4  C   UNL d   1     -49.947  27.270  33.952  0.00  0.00     0.222 A 
ATOM      5  N   UNL d   1     -49.990  26.989  34.730  0.00  0.00    -0.119 NA
ENDROOT
BRANCH   4   6
ATOM      6  C   UNL d   1     -50.363  26.970  33.306  0.00  0.00     0.127 C 
BRANCH   6   7
ATOM      7  N   UNL d   1     -50.615  26.185  33.307  0.00  0.00    -0.300 N 
ATOM      8  C   UNL d   1     -51.421  26.020  33.306  0.00  0.00     0.081 A 
ATOM      9  C   UNL d   1     -51.678  25.243  33.306  0.00  0.00     0.053 A 
ATOM     10  C   UNL d   1     -51.130  24.626  33.308  0.00  0.00     0.239 A 
ATOM     11  C   UNL d   1     -50.317  24.795  33.310  0.00  0.00     0.053 A 
ATOM     12  O   UNL d   1     -50.540  24.043  33.310  0.00  0.00    -0.298 OA
ATOM     13  O   UNL d   1     -51.925  24.409  33.307  0.00  0.00    -0.298 OA
ATOM     14  C   UNL d   1     -50.065  25.580  33.309  0.00  0.00     0.081 A 
ATOM     15  C   UNL d   1     -50.947  23.324  33.311  0.00  0.00     0.146 A 
ATOM     16  C   UNL d   1     -51.915  23.586  33.309  0.00  0.00     0.146 A 
ENDBRANCH   6   7
ENDBRANCH   4   6
BRANCH   2  17
ATOM     17  C   UNL d   1     -48.587  28.585  34.951  0.00  0.00     0.043 A 
ATOM     18  C   UNL d   1     -48.421  29.228  34.457  0.00  0.00     0.004 A 
ATOM     19  C   UNL d   1     -47.884  29.798  34.688  0.00  0.00     0.000 A 
ATOM     20  C   UNL d   1     -47.503  29.734  35.422  0.00  0.00     0.000 A 
ATOM     21  C   UNL d   1     -47.669  29.091  35.916  0.00  0.00     0.000 A 
ATOM     22  C   UNL d   1     -48.208  28.522  35.679  0.00  0.00     0.004 A 
ENDBRANCH   2  17
TORSDOF 3
ENDMDL
