MODEL 1
REMARK VINA RESULT:      -5.6      0.000      0.000
REMARK  2 active torsions:
REMARK  status: ('A' for Active; 'I' for Inactive)
REMARK    1  A    between atoms: C_7  and  C_1 
REMARK    2  A    between atoms: O_16  and  C_12 
ROOT
ATOM      1  C   UNL d   1      55.890  -0.114  33.401  0.00  0.00     0.105 A 
ATOM      2  C   UNL d   1      56.671  -0.667  32.032  0.00  0.00     0.064 A 
ATOM      3  O   UNL d   1      56.286   0.424  32.905  0.00  0.00    -0.307 OA
ATOM      4  C   UNL d   1      56.275  -1.200  32.530  0.00  0.00     0.200 A 
ATOM      5  C   UNL d   1      56.673   0.149  32.225  0.00  0.00     0.103 A 
ATOM      6  C   UNL d   1      55.883  -0.931  33.215  0.00  0.00     0.067 A 
ATOM      7  C   UNL d   1      57.056  -0.935  31.358  0.00  0.00     0.029 A 
ATOM      8  O   UNL d   1      56.269  -2.004  32.346  0.00  0.00    -0.286 OA
ATOM      9  C   UNL d   1      57.069   0.682  31.727  0.00  0.00     0.027 A 
ATOM     10  C   UNL d   1      57.448  -0.403  30.867  0.00  0.00     0.094 A 
ATOM     11  C   UNL d   1      57.454   0.402  31.051  0.00  0.00     0.026 A 
ENDROOT
BRANCH   1  12
ATOM     12  C   UNL d   1      55.504   0.150  34.075  0.00  0.00     0.050 A 
ATOM     13  C   UNL d   1      54.713   0.363  34.035  0.00  0.00     0.142 A 
ATOM     14  F   UNL d   1      54.311   0.307  33.306  0.00  0.00    -0.204 F 
ATOM     15  C   UNL d   1      54.319   0.629  34.708  0.00  0.00     0.030 A 
ATOM     16  C   UNL d   1      54.721   0.682  35.424  0.00  0.00     0.002 A 
ATOM     17  C   UNL d   1      55.517   0.469  35.467  0.00  0.00     0.000 A 
ATOM     18  C   UNL d   1      55.911   0.203  34.796  0.00  0.00     0.004 A 
ENDBRANCH   1  12
BRANCH  10  19
ATOM     19  O   UNL d   1      57.833  -0.675  30.192  0.00  0.00    -0.328 OA
ATOM     20  C   UNL d   1      58.395  -0.200  29.818  0.00  0.00     0.181 C 
ENDBRANCH  10  19
TORSDOF 2
ENDMDL
MODEL 2
REMARK VINA RESULT:      -4.9      1.651      2.749
REMARK  2 active torsions:
REMARK  status: ('A' for Active; 'I' for Inactive)
REMARK    1  A    between atoms: C_7  and  C_1 
REMARK    2  A    between atoms: O_16  and  C_12 
ROOT
ATOM      1  C   UNL d   1      57.342   0.134  31.605  0.00  0.00     0.105 A 
ATOM      2  C   UNL d   1      58.632   0.435  30.587  0.00  0.00     0.064 A 
ATOM      3  O   UNL d   1      57.239   0.084  30.781  0.00  0.00    -0.307 OA
ATOM      4  C   UNL d   1      58.730   0.484  31.409  0.00  0.00     0.200 A 
ATOM      5  C   UNL d   1      57.880   0.234  30.276  0.00  0.00     0.103 A 
ATOM      6  C   UNL d   1      58.091   0.335  31.923  0.00  0.00     0.067 A 
ATOM      7  C   UNL d   1      59.263   0.583  30.083  0.00  0.00     0.029 A 
ATOM      8  O   UNL d   1      59.467   0.682  31.723  0.00  0.00    -0.286 OA
ATOM      9  C   UNL d   1      57.782   0.185  29.453  0.00  0.00     0.027 A 
ATOM     10  C   UNL d   1      59.162   0.533  29.268  0.00  0.00     0.094 A 
ATOM     11  C   UNL d   1      58.424   0.335  28.954  0.00  0.00     0.026 A 
ENDROOT
BRANCH   1  12
ATOM     12  C   UNL d   1      56.714  -0.013  32.111  0.00  0.00     0.050 A 
ATOM     13  C   UNL d   1      56.512  -0.787  32.296  0.00  0.00     0.142 A 
ATOM     14  F   UNL d   1      56.950  -1.414  31.966  0.00  0.00    -0.204 F 
ATOM     15  C   UNL d   1      55.882  -0.941  32.804  0.00  0.00     0.030 A 
ATOM     16  C   UNL d   1      55.453  -0.317  33.127  0.00  0.00     0.002 A 
ATOM     17  C   UNL d   1      55.653   0.461  32.942  0.00  0.00     0.000 A 
ATOM     18  C   UNL d   1      56.283   0.617  32.435  0.00  0.00     0.004 A 
ENDBRANCH   1  12
BRANCH  10  19
ATOM     19  O   UNL d   1      59.797   0.682  28.766  0.00  0.00    -0.328 OA
ATOM     20  C   UNL d   1      60.236   0.054  28.458  0.00  0.00     0.181 C 
ENDBRANCH  10  19
TORSDOF 2
ENDMDL
MODEL 3
REMARK VINA RESULT:      -4.3      1.664      4.527
REMARK  2 active torsions:
REMARK  status: ('A' for Active; 'I' for Inactive)
REMARK    1  A    between atoms: C_7  and  C_1 
REMARK    2  A    between atoms: O_16  and  C_12 
ROOT
ATOM      1  C   UNL d   1      58.242  -0.087  30.429  0.00  0.00     0.105 A 
ATOM      2  C   UNL d   1      57.112  -0.612  31.543  0.00  0.00     0.064 A 
ATOM      3  O   UNL d   1      57.976   0.431  31.024  0.00  0.00    -0.307 OA
ATOM      4  C   UNL d   1      57.380  -1.124  30.948  0.00  0.00     0.200 A 
ATOM      5  C   UNL d   1      57.415   0.169  31.577  0.00  0.00     0.103 A 
ATOM      6  C   UNL d   1      57.943  -0.869  30.389  0.00  0.00     0.067 A 
ATOM      7  C   UNL d   1      56.557  -0.865  32.092  0.00  0.00     0.029 A 
ATOM      8  O   UNL d   1      57.086  -1.894  30.908  0.00  0.00    -0.286 OA
ATOM      9  C   UNL d   1      57.147   0.682  32.172  0.00  0.00     0.027 A 
ATOM     10  C   UNL d   1      56.294  -0.354  32.681  0.00  0.00     0.094 A 
ATOM     11  C   UNL d   1      56.588   0.417  32.720  0.00  0.00     0.026 A 
ENDROOT
BRANCH   1  12
ATOM     12  C   UNL d   1      58.796   0.163  29.880  0.00  0.00     0.050 A 
ATOM     13  C   UNL d   1      58.549   0.428  29.143  0.00  0.00     0.142 A 
ATOM     14  F   UNL d   1      57.734   0.438  28.964  0.00  0.00    -0.204 F 
ATOM     15  C   UNL d   1      59.100   0.681  28.586  0.00  0.00     0.030 A 
ATOM     16  C   UNL d   1      59.902   0.668  28.768  0.00  0.00     0.002 A 
ATOM     17  C   UNL d   1      60.154   0.403  29.507  0.00  0.00     0.000 A 
ATOM     18  C   UNL d   1      59.604   0.150  30.065  0.00  0.00     0.004 A 
ENDBRANCH   1  12
BRANCH  10  19
ATOM     19  O   UNL d   1      55.737  -0.612  33.230  0.00  0.00    -0.328 OA
ATOM     20  C   UNL d   1      55.153  -0.095  33.499  0.00  0.00     0.181 C 
ENDBRANCH  10  19
TORSDOF 2
ENDMDL
MODEL 4
REMARK VINA RESULT:      -4.1      1.536      4.413
REMARK  2 active torsions:
REMARK  status: ('A' for Active; 'I' for Inactive)
REMARK    1  A    between atoms: C_7  and  C_1 
REMARK    2  A    between atoms: O_16  and  C_12 
ROOT
ATOM      1  C   UNL d   1      57.755   0.128  31.030  0.00  0.00     0.105 A 
ATOM      2  C   UNL d   1      57.229   0.333  32.602  0.00  0.00     0.064 A 
ATOM      3  O   UNL d   1      56.954   0.003  31.218  0.00  0.00    -0.307 OA
ATOM      4  C   UNL d   1      58.027   0.457  32.410  0.00  0.00     0.200 A 
ATOM      5  C   UNL d   1      56.694   0.105  31.998  0.00  0.00     0.103 A 
ATOM      6  C   UNL d   1      58.296   0.356  31.628  0.00  0.00     0.067 A 
ATOM      7  C   UNL d   1      56.966   0.433  33.374  0.00  0.00     0.029 A 
ATOM      8  O   UNL d   1      58.559   0.682  32.999  0.00  0.00    -0.286 OA
ATOM      9  C   UNL d   1      55.896  -0.019  32.190  0.00  0.00     0.027 A 
ATOM     10  C   UNL d   1      56.174   0.310  33.559  0.00  0.00     0.094 A 
ATOM     11  C   UNL d   1      55.641   0.084  32.970  0.00  0.00     0.026 A 
ENDROOT
BRANCH   1  12
ATOM     12  C   UNL d   1      58.021   0.029  30.261  0.00  0.00     0.050 A 
ATOM     13  C   UNL d   1      58.230  -0.719  29.994  0.00  0.00     0.142 A 
ATOM     14  F   UNL d   1      58.168  -1.369  30.512  0.00  0.00    -0.204 F 
ATOM     15  C   UNL d   1      58.498  -0.825  29.223  0.00  0.00     0.030 A 
ATOM     16  C   UNL d   1      58.557  -0.179  28.716  0.00  0.00     0.002 A 
ATOM     17  C   UNL d   1      58.347   0.574  28.981  0.00  0.00     0.000 A 
ATOM     18  C   UNL d   1      58.080   0.681  29.752  0.00  0.00     0.004 A 
ENDBRANCH   1  12
BRANCH  10  19
ATOM     19  O   UNL d   1      55.914   0.410  34.334  0.00  0.00    -0.328 OA
ATOM     20  C   UNL d   1      55.121   0.582  34.484  0.00  0.00     0.181 C 
ENDBRANCH  10  19
TORSDOF 2
ENDMDL
MODEL 5
REMARK VINA RESULT:      -2.9      9.541     10.031
REMARK  2 active torsions:
REMARK  status: ('A' for Active; 'I' for Inactive)
REMARK    1  A    between atoms: C_7  and  C_1 
REMARK    2  A    between atoms: O_16  and  C_12 
ROOT
ATOM      1  C   UNL d   1      59.773  -9.374  33.878  0.00  0.00     0.105 A 
ATOM      2  C   UNL d   1      59.708  -9.614  32.226  0.00  0.00     0.064 A 
ATOM      3  O   UNL d   1      60.472  -9.340  33.427  0.00  0.00    -0.307 OA
ATOM      4  C   UNL d   1      59.014  -9.647  32.679  0.00  0.00     0.200 A 
ATOM      5  C   UNL d   1      60.439  -9.459  32.607  0.00  0.00     0.103 A 
ATOM      6  C   UNL d   1      59.039  -9.528  33.504  0.00  0.00     0.067 A 
ATOM      7  C   UNL d   1      59.681  -9.731  31.414  0.00  0.00     0.029 A 
ATOM      8  O   UNL d   1      58.292  -9.798  32.311  0.00  0.00    -0.286 OA
ATOM      9  C   UNL d   1      61.133  -9.426  32.153  0.00  0.00     0.027 A 
ATOM     10  C   UNL d   1      60.372  -9.697  30.968  0.00  0.00     0.094 A 
ATOM     11  C   UNL d   1      61.095  -9.545  31.336  0.00  0.00     0.026 A 
ENDROOT
BRANCH   1  12
ATOM     12  C   UNL d   1      59.797  -9.257  34.689  0.00  0.00     0.050 A 
ATOM     13  C   UNL d   1      59.446  -8.590  35.016  0.00  0.00     0.142 A 
ATOM     14  F   UNL d   1      59.069  -8.040  34.515  0.00  0.00    -0.204 F 
ATOM     15  C   UNL d   1      59.466  -8.467  35.830  0.00  0.00     0.030 A 
ATOM     16  C   UNL d   1      59.839  -9.014  36.318  0.00  0.00     0.002 A 
ATOM     17  C   UNL d   1      60.193  -9.685  35.993  0.00  0.00     0.000 A 
ATOM     18  C   UNL d   1      60.173  -9.809  35.180  0.00  0.00     0.004 A 
ENDBRANCH   1  12
BRANCH  10  19
ATOM     19  O   UNL d   1      60.341  -9.816  30.153  0.00  0.00    -0.328 OA
ATOM     20  C   UNL d   1      60.971  -9.576  29.678  0.00  0.00     0.181 C 
ENDBRANCH  10  19
TORSDOF 2
ENDMDL
