MODEL 1
REMARK VINA RESULT:      -6.2      0.000      0.000
REMARK  7 active torsions:
REMARK  status: ('A' for Active; 'I' for Inactive)
REMARK    1  A    between atoms: C_2  and  C_1 
REMARK       I    between atoms: N_8  and  C_1 
REMARK    2  A    between atoms: C_5  and  C_2 
REMARK    3  A    between atoms: C_6  and  C_2 
REMARK    4  A    between atoms: N_3  and  C_9 
REMARK    5  A    between atoms: C_13  and  N_8 
REMARK    6  A    between atoms: C_9  and  C_10 
REMARK    7  A    between atoms: C_10  and  C_13 
ROOT
ATOM      1  C   UNL d   1     -48.960  13.481  22.502  0.00  0.00     0.058 C 
ENDROOT
BRANCH   1   2
ATOM      2  C   UNL d   1     -48.271  13.431  22.027  0.00  0.00     0.279 C 
ATOM      3  O   UNL d   1     -48.364  13.372  21.190  0.00  0.00    -0.265 OA
ATOM      4  N   UNL d   1     -47.508  13.440  22.373  0.00  0.00    -0.206 NA
BRANCH   4   5
ATOM      5  C   UNL d   1     -46.838  13.391  21.899  0.00  0.00     0.104 C 
BRANCH   5   6
ATOM      6  C   UNL d   1     -46.161  13.015  22.167  0.00  0.00     0.040 C 
BRANCH   6   7
ATOM      7  C   UNL d   1     -45.432  13.364  22.061  0.00  0.00     0.082 C 
BRANCH   7   8
ATOM      8  N   UNL d   1     -44.768  12.897  22.065  0.00  0.00    -0.299 N 
ATOM      9  C   UNL d   1     -44.132  13.053  21.558  0.00  0.00     0.107 A 
ATOM     10  C   UNL d   1     -43.458  12.571  21.569  0.00  0.00     0.142 A 
ATOM     11  O   UNL d   1     -43.424  11.920  22.099  0.00  0.00    -0.300 OA
ATOM     12  C   UNL d   1     -44.057  11.759  22.608  0.00  0.00     0.142 A 
ATOM     13  C   UNL d   1     -44.725  12.245  22.590  0.00  0.00     0.107 A 
ENDBRANCH   7   8
ENDBRANCH   6   7
ENDBRANCH   5   6
ENDBRANCH   4   5
ENDBRANCH   1   2
BRANCH   1  14
ATOM     14  C   UNL d   1     -49.306  14.209  22.655  0.00  0.00     0.005 A 
ATOM     15  C   UNL d   1     -49.080  14.612  23.337  0.00  0.00     0.000 A 
ATOM     16  C   UNL d   1     -49.415  15.344  23.510  0.00  0.00     0.000 A 
ATOM     17  C   UNL d   1     -50.006  15.675  22.959  0.00  0.00     0.000 A 
ATOM     18  C   UNL d   1     -50.214  15.246  22.280  0.00  0.00     0.000 A 
ATOM     19  C   UNL d   1     -49.869  14.514  22.121  0.00  0.00     0.000 A 
ENDBRANCH   1  14
BRANCH   1  20
ATOM     20  C   UNL d   1     -49.272  12.780  22.806  0.00  0.00     0.005 A 
ATOM     21  C   UNL d   1     -49.987  12.494  22.533  0.00  0.00     0.000 A 
ATOM     22  C   UNL d   1     -50.300  11.789  22.839  0.00  0.00     0.000 A 
ATOM     23  C   UNL d   1     -49.876  11.372  23.433  0.00  0.00     0.000 A 
ATOM     24  C   UNL d   1     -49.158  11.673  23.697  0.00  0.00     0.000 A 
ATOM     25  C   UNL d   1     -48.858  12.372  23.387  0.00  0.00     0.000 A 
ENDBRANCH   1  20
TORSDOF 7
ENDMDL
MODEL 2
REMARK VINA RESULT:      -6.1      0.176      2.202
REMARK  7 active torsions:
REMARK  status: ('A' for Active; 'I' for Inactive)
REMARK    1  A    between atoms: C_2  and  C_1 
REMARK       I    between atoms: N_8  and  C_1 
REMARK    2  A    between atoms: C_5  and  C_2 
REMARK    3  A    between atoms: C_6  and  C_2 
REMARK    4  A    between atoms: N_3  and  C_9 
REMARK    5  A    between atoms: C_13  and  N_8 
REMARK    6  A    between atoms: C_9  and  C_10 
REMARK    7  A    between atoms: C_10  and  C_13 
ROOT
ATOM      1  C   UNL d   1     -48.895  13.303  22.507  0.00  0.00     0.058 C 
ENDROOT
BRANCH   1   2
ATOM      2  C   UNL d   1     -48.196  13.257  22.045  0.00  0.00     0.279 C 
ATOM      3  O   UNL d   1     -48.272  13.114  21.216  0.00  0.00    -0.265 OA
ATOM      4  N   UNL d   1     -47.442  13.352  22.396  0.00  0.00    -0.206 NA
BRANCH   4   5
ATOM      5  C   UNL d   1     -46.763  13.306  21.935  0.00  0.00     0.104 C 
BRANCH   5   6
ATOM      6  C   UNL d   1     -46.045  13.089  22.265  0.00  0.00     0.040 C 
BRANCH   6   7
ATOM      7  C   UNL d   1     -45.348  13.274  21.885  0.00  0.00     0.082 C 
BRANCH   7   8
ATOM      8  N   UNL d   1     -44.698  12.802  22.002  0.00  0.00    -0.299 N 
ATOM      9  C   UNL d   1     -44.706  12.196  22.566  0.00  0.00     0.107 A 
ATOM     10  C   UNL d   1     -44.038  11.719  22.678  0.00  0.00     0.142 A 
ATOM     11  O   UNL d   1     -43.350  11.854  22.215  0.00  0.00    -0.300 OA
ATOM     12  C   UNL d   1     -43.336  12.459  21.649  0.00  0.00     0.142 A 
ATOM     13  C   UNL d   1     -44.007  12.930  21.544  0.00  0.00     0.107 A 
ENDBRANCH   7   8
ENDBRANCH   6   7
ENDBRANCH   5   6
ENDBRANCH   4   5
ENDBRANCH   1   2
BRANCH   1  14
ATOM     14  C   UNL d   1     -49.216  12.624  22.841  0.00  0.00     0.005 A 
ATOM     15  C   UNL d   1     -48.744  12.181  23.350  0.00  0.00     0.000 A 
ATOM     16  C   UNL d   1     -49.046  11.497  23.695  0.00  0.00     0.000 A 
ATOM     17  C   UNL d   1     -49.866  11.260  23.508  0.00  0.00     0.000 A 
ATOM     18  C   UNL d   1     -50.316  11.727  22.992  0.00  0.00     0.000 A 
ATOM     19  C   UNL d   1     -49.999  12.409  22.654  0.00  0.00     0.000 A 
ENDBRANCH   1  14
BRANCH   1  20
ATOM     20  C   UNL d   1     -49.242  14.044  22.613  0.00  0.00     0.005 A 
ATOM     21  C   UNL d   1     -49.766  14.336  22.060  0.00  0.00     0.000 A 
ATOM     22  C   UNL d   1     -50.115  15.082  22.168  0.00  0.00     0.000 A 
ATOM     23  C   UNL d   1     -49.924  15.533  22.850  0.00  0.00     0.000 A 
ATOM     24  C   UNL d   1     -49.394  15.224  23.398  0.00  0.00     0.000 A 
ATOM     25  C   UNL d   1     -49.055  14.485  23.281  0.00  0.00     0.000 A 
ENDBRANCH   1  20
TORSDOF 7
ENDMDL
MODEL 3
REMARK VINA RESULT:      -6.1      8.800      9.966
REMARK  7 active torsions:
REMARK  status: ('A' for Active; 'I' for Inactive)
REMARK    1  A    between atoms: C_2  and  C_1 
REMARK       I    between atoms: N_8  and  C_1 
REMARK    2  A    between atoms: C_5  and  C_2 
REMARK    3  A    between atoms: C_6  and  C_2 
REMARK    4  A    between atoms: N_3  and  C_9 
REMARK    5  A    between atoms: C_13  and  N_8 
REMARK    6  A    between atoms: C_9  and  C_10 
REMARK    7  A    between atoms: C_10  and  C_13 
ROOT
ATOM      1  C   UNL d   1     -39.192  14.768  17.840  0.00  0.00     0.058 C 
ENDROOT
BRANCH   1   2
ATOM      2  C   UNL d   1     -38.809  15.194  18.453  0.00  0.00     0.279 C 
ATOM      3  O   UNL d   1     -38.224  15.764  18.241  0.00  0.00    -0.265 OA
ATOM      4  N   UNL d   1     -39.003  15.059  19.257  0.00  0.00    -0.206 NA
BRANCH   4   5
ATOM      5  C   UNL d   1     -38.623  15.482  19.851  0.00  0.00     0.104 C 
BRANCH   5   6
ATOM      6  C   UNL d   1     -38.591  15.192  20.617  0.00  0.00     0.040 C 
BRANCH   6   7
ATOM      7  C   UNL d   1     -39.061  15.520  21.197  0.00  0.00     0.082 C 
BRANCH   7   8
ATOM      8  N   UNL d   1     -38.929  15.319  21.971  0.00  0.00    -0.299 N 
ATOM      9  C   UNL d   1     -38.949  14.528  22.218  0.00  0.00     0.107 A 
ATOM     10  C   UNL d   1     -38.812  14.332  23.011  0.00  0.00     0.142 A 
ATOM     11  O   UNL d   1     -38.652  14.942  23.566  0.00  0.00    -0.300 OA
ATOM     12  C   UNL d   1     -38.630  15.735  23.326  0.00  0.00     0.142 A 
ATOM     13  C   UNL d   1     -38.767  15.921  22.533  0.00  0.00     0.107 A 
ENDBRANCH   7   8
ENDBRANCH   6   7
ENDBRANCH   5   6
ENDBRANCH   4   5
ENDBRANCH   1   2
BRANCH   1  14
ATOM     14  C   UNL d   1     -39.887  15.053  17.508  0.00  0.00     0.005 A 
ATOM     15  C   UNL d   1     -39.830  15.620  16.914  0.00  0.00     0.000 A 
ATOM     16  C   UNL d   1     -40.514  15.919  16.567  0.00  0.00     0.000 A 
ATOM     17  C   UNL d   1     -41.288  15.623  16.843  0.00  0.00     0.000 A 
ATOM     18  C   UNL d   1     -41.313  15.052  17.444  0.00  0.00     0.000 A 
ATOM     19  C   UNL d   1     -40.619  14.762  17.781  0.00  0.00     0.000 A 
ENDBRANCH   1  14
BRANCH   1  20
ATOM     20  C   UNL d   1     -38.848  14.061  17.587  0.00  0.00     0.005 A 
ATOM     21  C   UNL d   1     -39.061  13.353  17.932  0.00  0.00     0.000 A 
ATOM     22  C   UNL d   1     -38.715  12.642  17.677  0.00  0.00     0.000 A 
ATOM     23  C   UNL d   1     -38.144  12.659  17.061  0.00  0.00     0.000 A 
ATOM     24  C   UNL d   1     -37.940  13.382  16.724  0.00  0.00     0.000 A 
ATOM     25  C   UNL d   1     -38.290  14.078  16.984  0.00  0.00     0.000 A 
ENDBRANCH   1  20
TORSDOF 7
ENDMDL
MODEL 4
REMARK VINA RESULT:      -5.4      7.512      9.751
REMARK  7 active torsions:
REMARK  status: ('A' for Active; 'I' for Inactive)
REMARK    1  A    between atoms: C_2  and  C_1 
REMARK       I    between atoms: N_8  and  C_1 
REMARK    2  A    between atoms: C_5  and  C_2 
REMARK    3  A    between atoms: C_6  and  C_2 
REMARK    4  A    between atoms: N_3  and  C_9 
REMARK    5  A    between atoms: C_13  and  N_8 
REMARK    6  A    between atoms: C_9  and  C_10 
REMARK    7  A    between atoms: C_10  and  C_13 
ROOT
ATOM      1  C   UNL d   1     -39.227  14.943  21.139  0.00  0.00     0.058 C 
ENDROOT
BRANCH   1   2
ATOM      2  C   UNL d   1     -38.718  15.238  20.541  0.00  0.00     0.279 C 
ATOM      3  O   UNL d   1     -38.252  15.921  20.711  0.00  0.00    -0.265 OA
ATOM      4  N   UNL d   1     -38.674  14.865  19.792  0.00  0.00    -0.206 NA
BRANCH   4   5
ATOM      5  C   UNL d   1     -38.174  15.162  19.211  0.00  0.00     0.104 C 
BRANCH   5   6
ATOM      6  C   UNL d   1     -38.144  14.819  18.467  0.00  0.00     0.040 C 
BRANCH   6   7
ATOM      7  C   UNL d   1     -37.940  15.269  17.819  0.00  0.00     0.082 C 
BRANCH   7   8
ATOM      8  N   UNL d   1     -38.130  15.000  17.078  0.00  0.00    -0.299 N 
ATOM      9  C   UNL d   1     -38.117  14.191  16.899  0.00  0.00     0.107 A 
ATOM     10  C   UNL d   1     -38.313  13.925  16.140  0.00  0.00     0.142 A 
ATOM     11  O   UNL d   1     -38.527  14.483  15.549  0.00  0.00    -0.300 OA
ATOM     12  C   UNL d   1     -38.542  15.294  15.721  0.00  0.00     0.142 A 
ATOM     13  C   UNL d   1     -38.344  15.549  16.481  0.00  0.00     0.107 A 
ENDBRANCH   7   8
ENDBRANCH   6   7
ENDBRANCH   5   6
ENDBRANCH   4   5
ENDBRANCH   1   2
BRANCH   1  14
ATOM     14  C   UNL d   1     -38.916  14.546  21.788  0.00  0.00     0.005 A 
ATOM     15  C   UNL d   1     -38.729  13.749  21.703  0.00  0.00     0.000 A 
ATOM     16  C   UNL d   1     -38.416  13.332  22.340  0.00  0.00     0.000 A 
ATOM     17  C   UNL d   1     -38.292  13.752  23.096  0.00  0.00     0.000 A 
ATOM     18  C   UNL d   1     -38.491  14.555  23.151  0.00  0.00     0.000 A 
ATOM     19  C   UNL d   1     -38.803  14.959  22.503  0.00  0.00     0.000 A 
ENDBRANCH   1  14
BRANCH   1  20
ATOM     20  C   UNL d   1     -40.038  15.064  21.053  0.00  0.00     0.005 A 
ATOM     21  C   UNL d   1     -40.362  15.800  21.193  0.00  0.00     0.000 A 
ATOM     22  C   UNL d   1     -41.179  15.922  21.106  0.00  0.00     0.000 A 
ATOM     23  C   UNL d   1     -41.669  15.281  20.872  0.00  0.00     0.000 A 
ATOM     24  C   UNL d   1     -41.327  14.545  20.735  0.00  0.00     0.000 A 
ATOM     25  C   UNL d   1     -40.518  14.437  20.825  0.00  0.00     0.000 A 
ENDBRANCH   1  20
TORSDOF 7
ENDMDL
MODEL 5
REMARK VINA RESULT:      -5.2      1.493      2.017
REMARK  7 active torsions:
REMARK  status: ('A' for Active; 'I' for Inactive)
REMARK    1  A    between atoms: C_2  and  C_1 
REMARK       I    between atoms: N_8  and  C_1 
REMARK    2  A    between atoms: C_5  and  C_2 
REMARK    3  A    between atoms: C_6  and  C_2 
REMARK    4  A    between atoms: N_3  and  C_9 
REMARK    5  A    between atoms: C_13  and  N_8 
REMARK    6  A    between atoms: C_9  and  C_10 
REMARK    7  A    between atoms: C_10  and  C_13 
ROOT
ATOM      1  C   UNL d   1     -48.908  13.205  22.569  0.00  0.00     0.058 C 
ENDROOT
BRANCH   1   2
ATOM      2  C   UNL d   1     -48.520  12.614  23.020  0.00  0.00     0.279 C 
ATOM      3  O   UNL d   1     -48.930  12.274  23.674  0.00  0.00    -0.265 OA
ATOM      4  N   UNL d   1     -47.744  12.366  22.825  0.00  0.00    -0.206 NA
BRANCH   4   5
ATOM      5  C   UNL d   1     -47.371  11.786  23.273  0.00  0.00     0.104 C 
BRANCH   5   6
ATOM      6  C   UNL d   1     -46.617  11.527  23.081  0.00  0.00     0.040 C 
BRANCH   6   7
ATOM      7  C   UNL d   1     -46.067  11.401  23.669  0.00  0.00     0.082 C 
BRANCH   7   8
ATOM      8  N   UNL d   1     -45.367  11.035  23.482  0.00  0.00    -0.299 N 
ATOM      9  C   UNL d   1     -45.224  10.249  23.698  0.00  0.00     0.107 A 
ATOM     10  C   UNL d   1     -44.506   9.884  23.502  0.00  0.00     0.142 A 
ATOM     11  O   UNL d   1     -43.923  10.318  23.082  0.00  0.00    -0.300 OA
ATOM     12  C   UNL d   1     -44.060  11.105  22.863  0.00  0.00     0.142 A 
ATOM     13  C   UNL d   1     -44.779  11.461  23.062  0.00  0.00     0.107 A 
ENDBRANCH   7   8
ENDBRANCH   6   7
ENDBRANCH   5   6
ENDBRANCH   4   5
ENDBRANCH   1   2
BRANCH   1  14
ATOM     14  C   UNL d   1     -48.680  13.992  22.632  0.00  0.00     0.005 A 
ATOM     15  C   UNL d   1     -49.136  14.492  23.100  0.00  0.00     0.000 A 
ATOM     16  C   UNL d   1     -48.925  15.284  23.178  0.00  0.00     0.000 A 
ATOM     17  C   UNL d   1     -48.216  15.572  22.756  0.00  0.00     0.000 A 
ATOM     18  C   UNL d   1     -47.777  15.044  22.292  0.00  0.00     0.000 A 
ATOM     19  C   UNL d   1     -48.001  14.253  22.224  0.00  0.00     0.000 A 
ENDBRANCH   1  14
BRANCH   1  20
ATOM     20  C   UNL d   1     -49.520  12.970  22.067  0.00  0.00     0.005 A 
ATOM     21  C   UNL d   1     -49.399  12.929  21.260  0.00  0.00     0.000 A 
ATOM     22  C   UNL d   1     -50.014  12.693  20.756  0.00  0.00     0.000 A 
ATOM     23  C   UNL d   1     -50.763  12.496  21.083  0.00  0.00     0.000 A 
ATOM     24  C   UNL d   1     -50.869  12.543  21.897  0.00  0.00     0.000 A 
ATOM     25  C   UNL d   1     -50.252  12.778  22.386  0.00  0.00     0.000 A 
ENDBRANCH   1  20
TORSDOF 7
ENDMDL
