MODEL 1
REMARK VINA RESULT:      66.5      0.000      0.000
REMARK  5 active torsions:
REMARK  status: ('A' for Active; 'I' for Inactive)
REMARK    1  A    between atoms: N_2  and  S_1 
REMARK    2  A    between atoms: C_6  and  S_1 
REMARK       I    between atoms: C_3  and  N_4 
REMARK    3  A    between atoms: C_5  and  C_3 
REMARK    4  A    between atoms: C_11  and  O_13 
REMARK    5  A    between atoms: O_13  and  C_23 
ROOT
ATOM      1  S   UNL d   1      13.857  14.999  -4.647  0.00  0.00     0.271 S 
ATOM      2  O   UNL d   1      14.080  14.802  -3.873  0.00  0.00    -0.200 OA
ATOM      3  O   UNL d   1      13.432  14.459  -5.103  0.00  0.00    -0.200 OA
ENDROOT
BRANCH   1   4
ATOM      4  N   UNL d   1      13.755  14.334  -4.161  0.00  0.00    -0.226 N 
ATOM      5  C   UNL d   1      14.223  14.238  -3.487  0.00  0.00     0.111 A 
ATOM      6  C   UNL d   1      14.117  13.574  -3.007  0.00  0.00     0.103 A 
ATOM      7  N   UNL d   1      13.552  13.015  -3.198  0.00  0.00    -0.267 N 
ATOM      8  C   UNL d   1      13.447  12.351  -2.716  0.00  0.00     0.288 C 
ATOM      9  C   UNL d   1      13.079  13.105  -3.872  0.00  0.00     0.103 A 
ATOM     10  O   UNL d   1      12.872  11.779  -2.907  0.00  0.00    -0.264 OA
ATOM     11  C   UNL d   1      13.183  13.770  -4.355  0.00  0.00     0.111 A 
BRANCH   8  12
ATOM     12  C   UNL d   1      13.915  12.251  -2.038  0.00  0.00     0.156 A 
ATOM     13  O   UNL d   1      14.736  12.114  -2.023  0.00  0.00    -0.300 OA
ATOM     14  C   UNL d   1      14.969  12.048  -1.231  0.00  0.00     0.123 A 
ATOM     15  C   UNL d   1      14.295  12.144  -0.750  0.00  0.00     0.029 A 
ATOM     16  C   UNL d   1      13.643  12.269  -1.258  0.00  0.00     0.032 A 
ENDBRANCH   8  12
ENDBRANCH   1   4
BRANCH   1  17
ATOM     17  C   UNL d   1      14.062  15.738  -4.959  0.00  0.00     0.104 A 
ATOM     18  C   UNL d   1      13.998  15.877  -5.765  0.00  0.00     0.015 A 
ATOM     19  C   UNL d   1      14.202  16.614  -6.073  0.00  0.00     0.025 A 
ATOM     20  C   UNL d   1      14.471  17.208  -5.572  0.00  0.00     0.100 A 
ATOM     21  C   UNL d   1      14.535  17.066  -4.762  0.00  0.00     0.025 A 
ATOM     22  C   UNL d   1      14.330  16.332  -4.458  0.00  0.00     0.015 A 
BRANCH  20  23
ATOM     23  O   UNL d   1      14.680  17.956  -5.875  0.00  0.00    -0.307 OA
BRANCH  23  24
ATOM     24  C   UNL d   1      14.096  18.527  -5.987  0.00  0.00     0.100 A 
ATOM     25  C   UNL d   1      14.251  19.313  -5.808  0.00  0.00     0.023 A 
ATOM     26  C   UNL d   1      14.990  19.527  -5.518  0.00  0.00     0.002 C 
ATOM     27  C   UNL d   1      13.668  19.892  -5.917  0.00  0.00     0.002 A 
ATOM     28  C   UNL d   1      12.925  19.680  -6.209  0.00  0.00     0.000 A 
ATOM     29  C   UNL d   1      12.772  18.887  -6.388  0.00  0.00     0.002 A 
ATOM     30  C   UNL d   1      13.356  18.316  -6.276  0.00  0.00     0.025 A 
ENDBRANCH  23  24
ENDBRANCH  20  23
ENDBRANCH   1  17
TORSDOF 5
ENDMDL
