MODEL 1
REMARK VINA RESULT:       0.5      0.000      0.000
REMARK  5 active torsions:
REMARK  status: ('A' for Active; 'I' for Inactive)
REMARK    1  A    between atoms: N_5  and  S_1 
REMARK    2  A    between atoms: C_10  and  S_1 
REMARK    3  A    between atoms: C_2  and  N_6 
REMARK    4  A    between atoms: C_20  and  N_5 
REMARK    5  A    between atoms: C_7  and  C_14 
REMARK       I    between atoms: N_8  and  C_7 
ROOT
ATOM      1  C   UNL d   1      56.930   0.259  32.473  0.00  0.00     0.104 A 
ATOM      2  C   UNL d   1      57.482   0.127  30.944  0.00  0.00     0.057 A 
ATOM      3  C   UNL d   1      56.535  -0.201  31.901  0.00  0.00     0.013 A 
ATOM      4  C   UNL d   1      57.607   0.652  32.265  0.00  0.00     0.013 A 
ATOM      5  C   UNL d   1      56.825  -0.257  31.138  0.00  0.00     0.005 A 
ATOM      6  C   UNL d   1      57.890   0.591  31.500  0.00  0.00     0.005 A 
ENDROOT
BRANCH   2   7
ATOM      7  C   UNL d   1      57.764   0.063  30.172  0.00  0.00     0.265 C 
ATOM      8  N   UNL d   1      58.190  -0.605  29.933  0.00  0.00    -0.269 N 
ATOM      9  C   UNL d   1      58.501  -0.718  29.151  0.00  0.00     0.102 A 
ATOM     10  C   UNL d   1      58.332  -1.209  30.466  0.00  0.00     0.102 A 
ATOM     11  C   UNL d   1      58.913  -1.363  28.915  0.00  0.00     0.101 A 
ATOM     12  N   UNL d   1      59.044  -1.957  29.470  0.00  0.00    -0.281 N 
ATOM     13  C   UNL d   1      58.781  -1.918  30.221  0.00  0.00     0.101 A 
ATOM     14  O   UNL d   1      57.613   0.682  29.638  0.00  0.00    -0.267 OA
BRANCH  12  15
ATOM     15  C   UNL d   1      59.459  -2.621  29.257  0.00  0.00     0.179 A 
ATOM     16  N   UNL d   1      60.305  -2.715  29.237  0.00  0.00    -0.222 NA
ATOM     17  C   UNL d   1      60.425  -3.491  28.983  0.00  0.00     0.089 A 
ATOM     18  C   UNL d   1      61.109  -3.927  28.849  0.00  0.00     0.020 A 
ATOM     19  C   UNL d   1      59.680  -3.815  28.868  0.00  0.00     0.050 A 
ATOM     20  C   UNL d   1      61.076  -4.740  28.581  0.00  0.00     0.002 A 
ATOM     21  C   UNL d   1      60.299  -5.060  28.466  0.00  0.00     0.001 A 
ATOM     22  C   UNL d   1      59.609  -4.608  28.606  0.00  0.00     0.008 A 
ATOM     23  S   UNL d   1      59.105  -3.258  29.043  0.00  0.00    -0.048 SA
ENDBRANCH  12  15
ENDBRANCH   2   7
BRANCH   1  24
ATOM     24  S   UNL d   1      56.618   0.303  33.243  0.00  0.00     0.271 S 
ATOM     25  O   UNL d   1      55.912   0.630  32.926  0.00  0.00    -0.200 OA
ATOM     26  O   UNL d   1      57.318  -0.023  33.564  0.00  0.00    -0.200 OA
BRANCH  24  27
ATOM     27  N   UNL d   1      56.291   0.353  34.003  0.00  0.00    -0.229 N 
ATOM     28  C   UNL d   1      56.757   0.631  34.639  0.00  0.00     0.111 C 
BRANCH  27  29
ATOM     29  C   UNL d   1      55.509   0.129  34.131  0.00  0.00     0.075 A 
ATOM     30  C   UNL d   1      55.267  -0.645  33.971  0.00  0.00     0.018 A 
ATOM     31  C   UNL d   1      54.486  -0.869  34.098  0.00  0.00     0.002 A 
ATOM     32  C   UNL d   1      53.932  -0.323  34.387  0.00  0.00     0.000 A 
ATOM     33  C   UNL d   1      54.187   0.452  34.544  0.00  0.00     0.002 A 
ATOM     34  C   UNL d   1      54.969   0.676  34.417  0.00  0.00     0.018 A 
ENDBRANCH  27  29
ENDBRANCH  24  27
ENDBRANCH   1  24
TORSDOF 5
ENDMDL
MODEL 2
REMARK VINA RESULT:       1.6      1.591      6.359
REMARK  5 active torsions:
REMARK  status: ('A' for Active; 'I' for Inactive)
REMARK    1  A    between atoms: N_5  and  S_1 
REMARK    2  A    between atoms: C_10  and  S_1 
REMARK    3  A    between atoms: C_2  and  N_6 
REMARK    4  A    between atoms: C_20  and  N_5 
REMARK    5  A    between atoms: C_7  and  C_14 
REMARK       I    between atoms: N_8  and  C_7 
ROOT
ATOM      1  C   UNL d   1      59.152  -2.758  29.129  0.00  0.00     0.104 A 
ATOM      2  C   UNL d   1      58.725  -1.230  29.507  0.00  0.00     0.057 A 
ATOM      3  C   UNL d   1      58.423  -2.432  28.887  0.00  0.00     0.013 A 
ATOM      4  C   UNL d   1      59.663  -2.304  29.563  0.00  0.00     0.013 A 
ATOM      5  C   UNL d   1      58.224  -1.663  29.086  0.00  0.00     0.005 A 
ATOM      6  C   UNL d   1      59.456  -1.537  29.757  0.00  0.00     0.005 A 
ENDROOT
BRANCH   2   7
ATOM      7  C   UNL d   1      58.513  -0.457  29.701  0.00  0.00     0.265 C 
ATOM      8  N   UNL d   1      58.034  -0.303  30.357  0.00  0.00    -0.269 N 
ATOM      9  C   UNL d   1      57.789   0.474  30.597  0.00  0.00     0.102 A 
ATOM     10  C   UNL d   1      57.766  -0.923  30.819  0.00  0.00     0.102 A 
ATOM     11  C   UNL d   1      57.325   0.627  31.231  0.00  0.00     0.101 A 
ATOM     12  N   UNL d   1      57.067  -0.012  31.681  0.00  0.00    -0.281 N 
ATOM     13  C   UNL d   1      57.259  -0.767  31.514  0.00  0.00     0.101 A 
ATOM     14  O   UNL d   1      58.791   0.165  29.224  0.00  0.00    -0.267 OA
BRANCH  12  15
ATOM     15  C   UNL d   1      56.596   0.116  32.329  0.00  0.00     0.179 A 
ATOM     16  N   UNL d   1      55.748   0.048  32.370  0.00  0.00    -0.222 NA
ATOM     17  C   UNL d   1      55.560   0.238  33.152  0.00  0.00     0.089 A 
ATOM     18  C   UNL d   1      54.842   0.277  33.550  0.00  0.00     0.020 A 
ATOM     19  C   UNL d   1      56.270   0.403  33.527  0.00  0.00     0.050 A 
ATOM     20  C   UNL d   1      54.801   0.492  34.378  0.00  0.00     0.002 A 
ATOM     21  C   UNL d   1      55.543   0.661  34.752  0.00  0.00     0.001 A 
ATOM     22  C   UNL d   1      56.269   0.618  34.338  0.00  0.00     0.008 A 
ATOM     23  S   UNL d   1      56.890   0.321  32.999  0.00  0.00    -0.048 SA
ENDBRANCH  12  15
ENDBRANCH   2   7
BRANCH   1  24
ATOM     24  S   UNL d   1      59.334  -3.541  28.916  0.00  0.00     0.271 S 
ATOM     25  O   UNL d   1      58.615  -3.579  28.484  0.00  0.00    -0.200 OA
ATOM     26  O   UNL d   1      60.051  -3.509  29.345  0.00  0.00    -0.200 OA
BRANCH  24  27
ATOM     27  N   UNL d   1      59.500  -4.323  28.695  0.00  0.00    -0.229 N 
ATOM     28  C   UNL d   1      60.289  -4.557  28.553  0.00  0.00     0.111 C 
BRANCH  27  29
ATOM     29  C   UNL d   1      58.887  -4.867  28.616  0.00  0.00     0.075 A 
ATOM     30  C   UNL d   1      59.053  -5.673  28.537  0.00  0.00     0.018 A 
ATOM     31  C   UNL d   1      58.441  -6.217  28.457  0.00  0.00     0.002 A 
ATOM     32  C   UNL d   1      57.651  -5.965  28.456  0.00  0.00     0.000 A 
ATOM     33  C   UNL d   1      57.495  -5.152  28.536  0.00  0.00     0.002 A 
ATOM     34  C   UNL d   1      58.108  -4.608  28.615  0.00  0.00     0.018 A 
ENDBRANCH  27  29
ENDBRANCH  24  27
ENDBRANCH   1  24
TORSDOF 5
ENDMDL
MODEL 3
REMARK VINA RESULT:       2.9      1.663      6.849
REMARK  5 active torsions:
REMARK  status: ('A' for Active; 'I' for Inactive)
REMARK    1  A    between atoms: N_5  and  S_1 
REMARK    2  A    between atoms: C_10  and  S_1 
REMARK    3  A    between atoms: C_2  and  N_6 
REMARK    4  A    between atoms: C_20  and  N_5 
REMARK    5  A    between atoms: C_7  and  C_14 
REMARK       I    between atoms: N_8  and  C_7 
ROOT
ATOM      1  C   UNL d   1      58.246   0.124  30.877  0.00  0.00     0.104 A 
ATOM      2  C   UNL d   1      57.858   0.374  32.441  0.00  0.00     0.057 A 
ATOM      3  C   UNL d   1      57.459   0.079  31.148  0.00  0.00     0.013 A 
ATOM      4  C   UNL d   1      58.836   0.297  31.405  0.00  0.00     0.013 A 
ATOM      5  C   UNL d   1      57.281   0.207  31.936  0.00  0.00     0.005 A 
ATOM      6  C   UNL d   1      58.650   0.424  32.191  0.00  0.00     0.005 A 
ENDROOT
BRANCH   2   7
ATOM      7  C   UNL d   1      57.666   0.501  33.233  0.00  0.00     0.265 C 
ATOM      8  N   UNL d   1      56.876   0.527  33.477  0.00  0.00    -0.269 N 
ATOM      9  C   UNL d   1      56.628   0.655  34.279  0.00  0.00     0.102 A 
ATOM     10  C   UNL d   1      56.278   0.426  32.928  0.00  0.00     0.102 A 
ATOM     11  C   UNL d   1      55.865   0.681  34.518  0.00  0.00     0.101 A 
ATOM     12  N   UNL d   1      55.280   0.576  33.948  0.00  0.00    -0.281 N 
ATOM     13  C   UNL d   1      55.441   0.452  33.178  0.00  0.00     0.101 A 
ATOM     14  O   UNL d   1      58.282   0.603  33.782  0.00  0.00    -0.267 OA
BRANCH  12  15
ATOM     15  C   UNL d   1      54.499   0.598  34.165  0.00  0.00     0.179 A 
ATOM     16  N   UNL d   1      53.823   0.640  33.649  0.00  0.00    -0.222 NA
ATOM     17  C   UNL d   1      53.171   0.647  34.157  0.00  0.00     0.089 A 
ATOM     18  C   UNL d   1      52.362   0.682  34.013  0.00  0.00     0.020 A 
ATOM     19  C   UNL d   1      53.471   0.612  34.919  0.00  0.00     0.050 A 
ATOM     20  C   UNL d   1      51.794   0.682  34.653  0.00  0.00     0.002 A 
ATOM     21  C   UNL d   1      52.119   0.644  35.436  0.00  0.00     0.001 A 
ATOM     22  C   UNL d   1      52.944   0.610  35.571  0.00  0.00     0.008 A 
ATOM     23  S   UNL d   1      54.290   0.582  34.895  0.00  0.00    -0.048 SA
ENDBRANCH  12  15
ENDBRANCH   2   7
BRANCH   1  24
ATOM     24  S   UNL d   1      58.405  -0.010  30.072  0.00  0.00     0.271 S 
ATOM     25  O   UNL d   1      57.770  -0.559  30.049  0.00  0.00    -0.200 OA
ATOM     26  O   UNL d   1      59.038   0.536  30.088  0.00  0.00    -0.200 OA
BRANCH  24  27
ATOM     27  N   UNL d   1      58.549  -0.155  29.268  0.00  0.00    -0.229 N 
ATOM     28  C   UNL d   1      58.176   0.314  28.686  0.00  0.00     0.111 C 
BRANCH  27  29
ATOM     29  C   UNL d   1      59.060  -0.761  29.045  0.00  0.00     0.075 A 
ATOM     30  C   UNL d   1      58.762  -1.510  28.861  0.00  0.00     0.018 A 
ATOM     31  C   UNL d   1      59.271  -2.116  28.638  0.00  0.00     0.002 A 
ATOM     32  C   UNL d   1      60.090  -1.985  28.596  0.00  0.00     0.000 A 
ATOM     33  C   UNL d   1      60.379  -1.228  28.783  0.00  0.00     0.002 A 
ATOM     34  C   UNL d   1      59.868  -0.622  29.006  0.00  0.00     0.018 A 
ENDBRANCH  27  29
ENDBRANCH  24  27
ENDBRANCH   1  24
TORSDOF 5
ENDMDL
