MODEL 1
REMARK VINA RESULT:      69.6      0.000      0.000
REMARK  5 active torsions:
REMARK  status: ('A' for Active; 'I' for Inactive)
REMARK    1  A    between atoms: S_2  and  C_1 
REMARK    2  A    between atoms: C_7  and  S_2 
REMARK    3  A    between atoms: N_8  and  C_5 
REMARK    4  A    between atoms: C_14  and  N_8 
REMARK    5  A    between atoms: O_23  and  C_15 
ROOT
ATOM      1  C   UNL d   1     -47.941  29.999  35.208  0.00  0.00     0.187 A 
ATOM      2  N   UNL d   1     -48.374  29.340  34.988  0.00  0.00    -0.208 NA
ATOM      3  C   UNL d   1     -47.538  29.836  35.899  0.00  0.00     0.118 A 
ATOM      4  C   UNL d   1     -48.242  28.752  35.547  0.00  0.00     0.196 A 
ATOM      5  S   UNL d   1     -47.727  29.049  36.114  0.00  0.00    -0.035 SA
ATOM      6 CL   UNL d   1     -47.030  30.368  36.308  0.00  0.00    -0.073 Cl
ENDROOT
BRANCH   1   7
ATOM      7  S   UNL d   1     -47.882  30.746  34.828  0.00  0.00     0.228 S 
ATOM      8  O   UNL d   1     -48.602  30.576  34.446  0.00  0.00    -0.216 OA
ATOM      9  O   UNL d   1     -47.166  30.891  35.221  0.00  0.00    -0.216 OA
BRANCH   7  10
ATOM     10  C   UNL d   1     -47.825  31.471  34.459  0.00  0.00     0.089 A 
ATOM     11  C   UNL d   1     -47.122  31.920  34.489  0.00  0.00     0.011 A 
ATOM     12  C   UNL d   1     -47.074  32.650  34.114  0.00  0.00     0.001 A 
ATOM     13  C   UNL d   1     -47.723  32.960  33.695  0.00  0.00     0.000 A 
ATOM     14  C   UNL d   1     -48.431  32.507  33.666  0.00  0.00     0.001 A 
ATOM     15  C   UNL d   1     -47.679  33.688  33.320  0.00  0.00     0.000 C 
ATOM     16  C   UNL d   1     -48.485  31.784  34.034  0.00  0.00     0.011 A 
ENDBRANCH   7  10
ENDBRANCH   1   7
BRANCH   4  17
ATOM     17  N   UNL d   1     -48.519  27.977  35.628  0.00  0.00    -0.221 NA
BRANCH  17  18
ATOM     18  C   UNL d   1     -49.010  27.654  35.051  0.00  0.00     0.084 A 
ATOM     19  C   UNL d   1     -48.685  27.388  34.338  0.00  0.00     0.021 A 
ATOM     20  C   UNL d   1     -49.160  27.066  33.759  0.00  0.00     0.026 A 
ATOM     21  C   UNL d   1     -49.969  27.007  33.888  0.00  0.00     0.094 A 
ATOM     22  C   UNL d   1     -50.302  27.275  34.609  0.00  0.00     0.026 A 
ATOM     23  C   UNL d   1     -49.822  27.594  35.180  0.00  0.00     0.021 A 
BRANCH  21  24
ATOM     24  O   UNL d   1     -50.449  26.683  33.306  0.00  0.00    -0.328 OA
ATOM     25  C   UNL d   1     -51.256  26.556  33.469  0.00  0.00     0.181 C 
ENDBRANCH  21  24
ENDBRANCH  17  18
ENDBRANCH   4  17
TORSDOF 5
ENDMDL
MODEL 2
REMARK VINA RESULT:      70.8      1.319      4.854
REMARK  5 active torsions:
REMARK  status: ('A' for Active; 'I' for Inactive)
REMARK    1  A    between atoms: S_2  and  C_1 
REMARK    2  A    between atoms: C_7  and  S_2 
REMARK    3  A    between atoms: N_8  and  C_5 
REMARK    4  A    between atoms: C_14  and  N_8 
REMARK    5  A    between atoms: O_23  and  C_15 
ROOT
ATOM      1  C   UNL d   1     -48.599  28.561  34.845  0.00  0.00     0.187 A 
ATOM      2  N   UNL d   1     -48.751  29.335  35.061  0.00  0.00    -0.208 NA
ATOM      3  C   UNL d   1     -47.811  28.393  34.980  0.00  0.00     0.118 A 
ATOM      4  C   UNL d   1     -48.049  29.663  35.338  0.00  0.00     0.196 A 
ATOM      5  S   UNL d   1     -47.464  29.089  35.292  0.00  0.00    -0.035 SA
ATOM      6 CL   UNL d   1     -47.434  27.656  34.831  0.00  0.00    -0.073 Cl
ENDROOT
BRANCH   1   7
ATOM      7  S   UNL d   1     -49.124  27.986  34.530  0.00  0.00     0.228 S 
ATOM      8  O   UNL d   1     -49.138  28.427  33.823  0.00  0.00    -0.216 OA
ATOM      9  O   UNL d   1     -49.094  27.564  35.244  0.00  0.00    -0.216 OA
BRANCH   7  10
ATOM     10  C   UNL d   1     -49.634  27.428  34.223  0.00  0.00     0.089 A 
ATOM     11  C   UNL d   1     -49.399  26.915  33.608  0.00  0.00     0.011 A 
ATOM     12  C   UNL d   1     -49.921  26.356  33.306  0.00  0.00     0.001 A 
ATOM     13  C   UNL d   1     -50.695  26.285  33.605  0.00  0.00     0.000 A 
ATOM     14  C   UNL d   1     -50.931  26.802  34.225  0.00  0.00     0.001 A 
ATOM     15  C   UNL d   1     -51.217  25.728  33.306  0.00  0.00     0.000 C 
ATOM     16  C   UNL d   1     -50.420  27.358  34.528  0.00  0.00     0.011 A 
ENDBRANCH   7  10
ENDBRANCH   1   7
BRANCH   4  17
ATOM     17  N   UNL d   1     -47.851  30.410  35.630  0.00  0.00    -0.221 NA
BRANCH  17  18
ATOM     18  C   UNL d   1     -47.780  31.048  35.113  0.00  0.00     0.084 A 
ATOM     19  C   UNL d   1     -47.049  31.425  35.026  0.00  0.00     0.021 A 
ATOM     20  C   UNL d   1     -46.964  32.057  34.518  0.00  0.00     0.026 A 
ATOM     21  C   UNL d   1     -47.615  32.320  34.090  0.00  0.00     0.094 A 
ATOM     22  C   UNL d   1     -48.357  31.940  34.176  0.00  0.00     0.026 A 
ATOM     23  C   UNL d   1     -48.432  31.312  34.683  0.00  0.00     0.021 A 
BRANCH  21  24
ATOM     24  O   UNL d   1     -47.532  32.956  33.578  0.00  0.00    -0.328 OA
ATOM     25  C   UNL d   1     -48.113  33.552  33.573  0.00  0.00     0.181 C 
ENDBRANCH  21  24
ENDBRANCH  17  18
ENDBRANCH   4  17
TORSDOF 5
ENDMDL
