MODEL 1
REMARK VINA RESULT:     352.2      0.000      0.000
REMARK  3 active torsions:
REMARK  status: ('A' for Active; 'I' for Inactive)
REMARK    1  A    between atoms: N_2  and  S_1 
REMARK    2  A    between atoms: C_5  and  S_1 
REMARK    3  A    between atoms: C_4  and  N_3 
ROOT
ATOM      1  N   UNL d   1      55.248  -4.276  31.836  0.00  0.00    -0.226 N 
ATOM      2  N   UNL d   1      56.508  -5.341  31.864  0.00  0.00    -0.301 N 
ATOM      3  C   UNL d   1      55.132  -5.046  32.094  0.00  0.00     0.111 A 
ATOM      4  C   UNL d   1      56.003  -4.029  31.587  0.00  0.00     0.111 A 
ATOM      5  C   UNL d   1      55.762  -5.579  32.108  0.00  0.00     0.100 A 
ATOM      6  C   UNL d   1      56.633  -4.562  31.601  0.00  0.00     0.100 A 
ENDROOT
BRANCH   1   7
ATOM      7  S   UNL d   1      54.618  -3.743  31.822  0.00  0.00     0.271 S 
ATOM      8  O   UNL d   1      54.894  -3.399  32.518  0.00  0.00    -0.200 OA
ATOM      9  O   UNL d   1      54.342  -4.088  31.125  0.00  0.00    -0.200 OA
BRANCH   7  10
ATOM     10  C   UNL d   1      53.989  -3.210  31.808  0.00  0.00     0.104 A 
ATOM     11  C   UNL d   1      53.316  -3.356  32.254  0.00  0.00     0.015 A 
ATOM     12  C   UNL d   1      52.687  -2.824  32.240  0.00  0.00     0.030 A 
ATOM     13  C   UNL d   1      52.731  -2.146  31.781  0.00  0.00     0.140 A 
ATOM     14  C   UNL d   1      53.411  -1.992  31.327  0.00  0.00     0.030 A 
ATOM     15  F   UNL d   1      52.101  -1.613  31.767  0.00  0.00    -0.204 F 
ATOM     16  C   UNL d   1      54.040  -2.524  31.341  0.00  0.00     0.015 A 
ENDBRANCH   7  10
ENDBRANCH   1   7
BRANCH   2  17
ATOM     17  C   UNL d   1      57.134  -5.872  31.877  0.00  0.00     0.064 A 
ATOM     18  C   UNL d   1      57.642  -5.928  31.235  0.00  0.00     0.016 A 
ATOM     19  C   UNL d   1      58.271  -6.461  31.249  0.00  0.00     0.001 A 
ATOM     20  C   UNL d   1      57.521  -5.449  30.571  0.00  0.00     0.002 C 
ATOM     21  C   UNL d   1      58.392  -6.936  31.905  0.00  0.00     0.000 A 
ATOM     22  C   UNL d   1      57.883  -6.885  32.560  0.00  0.00     0.001 A 
ATOM     23  C   UNL d   1      57.254  -6.353  32.546  0.00  0.00     0.016 A 
ATOM     24  C   UNL d   1      56.746  -6.296  33.190  0.00  0.00     0.002 C 
ENDBRANCH   2  17
TORSDOF 3
ENDMDL
