MODEL 1
REMARK VINA RESULT:      54.9      0.000      0.000
REMARK  4 active torsions:
REMARK  status: ('A' for Active; 'I' for Inactive)
REMARK    1  A    between atoms: N_5  and  C_1 
REMARK    2  A    between atoms: N_8  and  C_3 
REMARK    3  A    between atoms: C_14  and  N_8 
REMARK    4  A    between atoms: C_16  and  C_14 
ROOT
ATOM      1  C   UNL d   1      14.777  15.046  -2.341  0.00  0.00     0.737 A 
ATOM      2  N   UNL d   1      14.391  14.440  -2.757  0.00  0.00    -0.041 NA
ATOM      3  C   UNL d   1      14.263  13.703  -2.396  0.00  0.00     0.182 A 
ATOM      4  N   UNL d   1      15.037  14.919  -1.563  0.00  0.00    -0.060 NA
ATOM      5  C   UNL d   1      14.522  13.572  -1.619  0.00  0.00     0.055 A 
ATOM      6  C   UNL d   1      14.906  14.172  -1.202  0.00  0.00     0.103 A 
ATOM      7  C   UNL d   1      14.395  12.835  -1.259  0.00  0.00     0.005 A 
ATOM      8  C   UNL d   1      15.169  14.045  -0.418  0.00  0.00     0.020 A 
ATOM      9  C   UNL d   1      14.651  12.704  -0.488  0.00  0.00     0.000 A 
ATOM     10  C   UNL d   1      15.039  13.310  -0.066  0.00  0.00     0.002 A 
ENDROOT
BRANCH   3  11
ATOM     11  N   UNL d   1      13.862  13.072  -2.827  0.00  0.00    -0.225 NA
BRANCH  11  12
ATOM     12  C   UNL d   1      13.220  13.174  -3.223  0.00  0.00     0.101 C 
BRANCH  12  13
ATOM     13  C   UNL d   1      13.147  12.846  -3.904  0.00  0.00     0.019 A 
ATOM     14  C   UNL d   1      13.377  13.222  -4.520  0.00  0.00     0.002 A 
ATOM     15  C   UNL d   1      13.310  12.908  -5.195  0.00  0.00     0.000 A 
ATOM     16  C   UNL d   1      13.009  12.207  -5.265  0.00  0.00     0.000 A 
ATOM     17  C   UNL d   1      12.783  11.840  -4.649  0.00  0.00     0.000 A 
ATOM     18  C   UNL d   1      12.850  12.155  -3.965  0.00  0.00     0.002 A 
ENDBRANCH  12  13
ENDBRANCH  11  12
ENDBRANCH   3  11
BRANCH   1  19
ATOM     19  N   UNL d   1      14.909  15.802  -2.707  0.00  0.00    -0.134 N 
ATOM     20  C   UNL d   1      14.970  15.862  -3.557  0.00  0.00     0.117 A 
ATOM     21  C   UNL d   1      15.103  16.626  -3.917  0.00  0.00     0.100 A 
ATOM     22  N   UNL d   1      15.175  17.322  -3.439  0.00  0.00    -0.299 N 
ATOM     23  C   UNL d   1      15.113  17.262  -2.590  0.00  0.00     0.100 A 
ATOM     24  C   UNL d   1      15.307  18.081  -3.805  0.00  0.00     0.100 C 
ATOM     25  C   UNL d   1      14.981  16.506  -2.219  0.00  0.00     0.117 A 
ENDBRANCH   1  19
TORSDOF 4
ENDMDL
