MODEL 1
REMARK VINA RESULT:      -2.9      0.000      0.000
REMARK  6 active torsions:
REMARK  status: ('A' for Active; 'I' for Inactive)
REMARK    1  A    between atoms: C_10  and  C_4 
REMARK    2  A    between atoms: N_12  and  C_5 
REMARK    3  A    between atoms: N_11  and  C_15 
REMARK    4  A    between atoms: C_20  and  N_12 
REMARK    5  A    between atoms: C_15  and  C_16 
REMARK    6  A    between atoms: C_16  and  C_20 
ROOT
ATOM      1  N   UNL d   1      57.023  -1.062  31.536  0.00  0.00    -0.195 N 
ATOM      2  C   UNL d   1      57.036  -0.459  32.098  0.00  0.00     0.167 A 
ATOM      3  N   UNL d   1      56.387  -1.555  31.701  0.00  0.00    -0.163 NA
ATOM      4  C   UNL d   1      56.409  -0.576  32.612  0.00  0.00     0.055 A 
ATOM      5  C   UNL d   1      57.592  -1.093  30.938  0.00  0.00     0.167 A 
ATOM      6  C   UNL d   1      56.007  -1.249  32.373  0.00  0.00     0.104 A 
ATOM      7  N   UNL d   1      57.620   0.120  32.066  0.00  0.00    -0.227 NA
ATOM      8  C   UNL d   1      58.183  -0.504  30.909  0.00  0.00     0.058 A 
ATOM      9  C   UNL d   1      58.196   0.099  31.470  0.00  0.00     0.086 A 
ATOM     10  C   UNL d   1      55.339  -1.570  32.734  0.00  0.00     0.023 C 
ATOM     11  C   UNL d   1      58.783   0.682  31.440  0.00  0.00     0.021 C 
ENDROOT
BRANCH   5  12
ATOM     12  N   UNL d   1      57.579  -1.690  30.382  0.00  0.00    -0.225 NA
BRANCH  12  13
ATOM     13  C   UNL d   1      58.099  -1.673  29.744  0.00  0.00     0.102 C 
BRANCH  13  14
ATOM     14  C   UNL d   1      58.217  -2.355  29.283  0.00  0.00     0.040 C 
BRANCH  14  15
ATOM     15  C   UNL d   1      58.793  -2.362  28.695  0.00  0.00     0.082 C 
BRANCH  15  16
ATOM     16  N   UNL d   1      59.328  -2.987  28.648  0.00  0.00    -0.299 N 
ATOM     17  C   UNL d   1      59.051  -3.769  28.642  0.00  0.00     0.107 A 
ATOM     18  C   UNL d   1      59.588  -4.397  28.595  0.00  0.00     0.142 A 
ATOM     19  O   UNL d   1      60.403  -4.241  28.554  0.00  0.00    -0.300 OA
ATOM     20  C   UNL d   1      60.674  -3.464  28.560  0.00  0.00     0.142 A 
ATOM     21  C   UNL d   1      60.136  -2.836  28.607  0.00  0.00     0.107 A 
ENDBRANCH  15  16
ENDBRANCH  14  15
ENDBRANCH  13  14
ENDBRANCH  12  13
ENDBRANCH   5  12
BRANCH   4  22
ATOM     22  C   UNL d   1      56.148  -0.159  33.271  0.00  0.00     0.004 A 
ATOM     23  C   UNL d   1      56.659  -0.015  33.902  0.00  0.00     0.000 A 
ATOM     24  C   UNL d   1      56.392   0.407  34.565  0.00  0.00     0.000 A 
ATOM     25  C   UNL d   1      55.614   0.681  34.591  0.00  0.00     0.000 A 
ATOM     26  C   UNL d   1      55.103   0.537  33.960  0.00  0.00     0.000 A 
ATOM     27  C   UNL d   1      55.364   0.119  33.301  0.00  0.00     0.000 A 
ENDBRANCH   4  22
TORSDOF 6
ENDMDL
MODEL 2
REMARK VINA RESULT:      -2.2      1.964      5.473
REMARK  6 active torsions:
REMARK  status: ('A' for Active; 'I' for Inactive)
REMARK    1  A    between atoms: C_10  and  C_4 
REMARK    2  A    between atoms: N_12  and  C_5 
REMARK    3  A    between atoms: N_11  and  C_15 
REMARK    4  A    between atoms: C_20  and  N_12 
REMARK    5  A    between atoms: C_15  and  C_16 
REMARK    6  A    between atoms: C_16  and  C_20 
ROOT
ATOM      1  N   UNL d   1      58.673  -0.923  29.855  0.00  0.00    -0.195 N 
ATOM      2  C   UNL d   1      59.432  -1.174  29.655  0.00  0.00     0.167 A 
ATOM      3  N   UNL d   1      58.163  -1.564  29.791  0.00  0.00    -0.163 NA
ATOM      4  C   UNL d   1      59.394  -1.970  29.465  0.00  0.00     0.055 A 
ATOM      5  C   UNL d   1      58.533  -0.138  30.074  0.00  0.00     0.167 A 
ATOM      6  C   UNL d   1      58.616  -2.215  29.547  0.00  0.00     0.104 A 
ATOM      7  N   UNL d   1      60.059  -0.642  29.671  0.00  0.00    -0.227 NA
ATOM      8  C   UNL d   1      59.171   0.398  30.090  0.00  0.00     0.058 A 
ATOM      9  C   UNL d   1      59.930   0.148  29.890  0.00  0.00     0.086 A 
ATOM     10  C   UNL d   1      58.329  -2.976  29.412  0.00  0.00     0.023 C 
ATOM     11  C   UNL d   1      60.563   0.682  29.906  0.00  0.00     0.021 C 
ENDROOT
BRANCH   5  12
ATOM     12  N   UNL d   1      57.781   0.110  30.273  0.00  0.00    -0.225 NA
BRANCH  12  13
ATOM     13  C   UNL d   1      57.665   0.591  30.931  0.00  0.00     0.102 C 
BRANCH  13  14
ATOM     14  C   UNL d   1      56.986   0.498  31.402  0.00  0.00     0.040 C 
BRANCH  14  15
ATOM     15  C   UNL d   1      57.037   0.570  32.220  0.00  0.00     0.082 C 
BRANCH  15  16
ATOM     16  N   UNL d   1      56.492   0.185  32.704  0.00  0.00    -0.299 N 
ATOM     17  C   UNL d   1      56.368  -0.631  32.619  0.00  0.00     0.107 A 
ATOM     18  C   UNL d   1      55.821  -1.017  33.105  0.00  0.00     0.142 A 
ATOM     19  O   UNL d   1      55.398  -0.586  33.675  0.00  0.00    -0.300 OA
ATOM     20  C   UNL d   1      55.524   0.223  33.756  0.00  0.00     0.142 A 
ATOM     21  C   UNL d   1      56.071   0.609  33.270  0.00  0.00     0.107 A 
ENDBRANCH  15  16
ENDBRANCH  14  15
ENDBRANCH  13  14
ENDBRANCH  12  13
ENDBRANCH   5  12
BRANCH   4  22
ATOM     22  C   UNL d   1      59.967  -2.510  29.227  0.00  0.00     0.004 A 
ATOM     23  C   UNL d   1      60.557  -2.285  28.696  0.00  0.00     0.000 A 
ATOM     24  C   UNL d   1      61.133  -2.833  28.459  0.00  0.00     0.000 A 
ATOM     25  C   UNL d   1      61.115  -3.603  28.755  0.00  0.00     0.000 A 
ATOM     26  C   UNL d   1      60.525  -3.828  29.287  0.00  0.00     0.000 A 
ATOM     27  C   UNL d   1      59.952  -3.288  29.524  0.00  0.00     0.000 A 
ENDBRANCH   4  22
TORSDOF 6
ENDMDL
