MODEL 1
REMARK VINA RESULT:      -4.1      0.000      0.000
REMARK  4 active torsions:
REMARK  status: ('A' for Active; 'I' for Inactive)
REMARK    1  A    between atoms: C_2  and  C_1 
REMARK       I    between atoms: N_6  and  C_2 
REMARK    2  A    between atoms: C_4  and  C_11 
REMARK    3  A    between atoms: N_8  and  N_6 
REMARK    4  A    between atoms: C_11  and  N_8 
ROOT
ATOM      1  C   UNL d   1      58.107   0.338  29.266  0.00  0.00     0.300 C 
ATOM      2  O   UNL d   1      57.919   0.634  28.519  0.00  0.00    -0.264 OA
ATOM      3  N   UNL d   1      57.564   0.402  29.891  0.00  0.00    -0.105 NA
ENDROOT
BRANCH   3   4
ATOM      4  N   UNL d   1      57.751   0.107  30.639  0.00  0.00    -0.143 NA
BRANCH   4   5
ATOM      5  C   UNL d   1      57.390   0.429  31.325  0.00  0.00     0.126 C 
BRANCH   5   6
ATOM      6  C   UNL d   1      57.045  -0.065  31.881  0.00  0.00     0.060 A 
ATOM      7  C   UNL d   1      57.170   0.059  32.695  0.00  0.00     0.197 A 
ATOM      8  O   UNL d   1      57.642   0.682  32.938  0.00  0.00    -0.286 OA
ATOM      9  C   UNL d   1      56.825  -0.434  33.250  0.00  0.00     0.042 A 
ATOM     10  C   UNL d   1      56.351  -1.059  33.008  0.00  0.00     0.003 A 
ATOM     11  C   UNL d   1      56.218  -1.194  32.185  0.00  0.00     0.000 A 
ATOM     12  C   UNL d   1      56.565  -0.698  31.627  0.00  0.00     0.005 A 
ENDBRANCH   5   6
ENDBRANCH   4   5
ENDBRANCH   3   4
BRANCH   1  13
ATOM     13  C   UNL d   1      58.838  -0.023  29.394  0.00  0.00     0.098 A 
ATOM     14  C   UNL d   1      58.978  -0.773  29.076  0.00  0.00     0.200 A 
ATOM     15  O   UNL d   1      58.391  -1.146  28.641  0.00  0.00    -0.286 OA
ATOM     16  C   UNL d   1      59.705  -1.152  29.194  0.00  0.00     0.042 A 
ATOM     17  C   UNL d   1      60.293  -0.778  29.630  0.00  0.00     0.003 A 
ATOM     18  C   UNL d   1      60.161  -0.020  29.955  0.00  0.00     0.000 A 
ATOM     19  C   UNL d   1      59.441   0.360  29.841  0.00  0.00     0.008 A 
ENDBRANCH   1  13
TORSDOF 4
ENDMDL
MODEL 2
REMARK VINA RESULT:      -3.1      1.409      4.271
REMARK  4 active torsions:
REMARK  status: ('A' for Active; 'I' for Inactive)
REMARK    1  A    between atoms: C_2  and  C_1 
REMARK       I    between atoms: N_6  and  C_2 
REMARK    2  A    between atoms: C_4  and  C_11 
REMARK    3  A    between atoms: N_8  and  N_6 
REMARK    4  A    between atoms: C_11  and  N_8 
ROOT
ATOM      1  C   UNL d   1      56.368  -1.030  32.416  0.00  0.00     0.300 C 
ATOM      2  O   UNL d   1      56.027  -1.776  32.503  0.00  0.00    -0.264 OA
ATOM      3  N   UNL d   1      56.817  -0.850  31.741  0.00  0.00    -0.105 NA
ENDROOT
BRANCH   3   4
ATOM      4  N   UNL d   1      57.160  -0.105  31.653  0.00  0.00    -0.143 NA
BRANCH   4   5
ATOM      5  C   UNL d   1      57.289   0.216  30.888  0.00  0.00     0.126 C 
BRANCH   5   6
ATOM      6  C   UNL d   1      58.051   0.370  30.627  0.00  0.00     0.060 A 
ATOM      7  C   UNL d   1      58.222   0.401  29.812  0.00  0.00     0.197 A 
ATOM      8  O   UNL d   1      57.622   0.276  29.270  0.00  0.00    -0.286 OA
ATOM      9  C   UNL d   1      58.983   0.556  29.552  0.00  0.00     0.042 A 
ATOM     10  C   UNL d   1      59.587   0.682  30.094  0.00  0.00     0.003 A 
ATOM     11  C   UNL d   1      59.422   0.652  30.922  0.00  0.00     0.000 A 
ATOM     12  C   UNL d   1      58.658   0.497  31.184  0.00  0.00     0.005 A 
ENDBRANCH   5   6
ENDBRANCH   4   5
ENDBRANCH   3   4
BRANCH   1  13
ATOM     13  C   UNL d   1      56.264  -0.458  33.003  0.00  0.00     0.098 A 
ATOM     14  C   UNL d   1      55.504  -0.306  33.286  0.00  0.00     0.200 A 
ATOM     15  O   UNL d   1      54.866  -0.723  32.984  0.00  0.00    -0.286 OA
ATOM     16  C   UNL d   1      55.379   0.264  33.875  0.00  0.00     0.042 A 
ATOM     17  C   UNL d   1      56.019   0.682  34.178  0.00  0.00     0.003 A 
ATOM     18  C   UNL d   1      56.792   0.535  33.897  0.00  0.00     0.000 A 
ATOM     19  C   UNL d   1      56.920  -0.029  33.314  0.00  0.00     0.008 A 
ENDBRANCH   1  13
TORSDOF 4
ENDMDL
MODEL 3
REMARK VINA RESULT:      -2.5      1.632      3.774
REMARK  4 active torsions:
REMARK  status: ('A' for Active; 'I' for Inactive)
REMARK    1  A    between atoms: C_2  and  C_1 
REMARK       I    between atoms: N_6  and  C_2 
REMARK    2  A    between atoms: C_4  and  C_11 
REMARK    3  A    between atoms: N_8  and  N_6 
REMARK    4  A    between atoms: C_11  and  N_8 
ROOT
ATOM      1  C   UNL d   1      58.011   0.169  29.390  0.00  0.00     0.300 C 
ATOM      2  O   UNL d   1      57.460   0.682  29.054  0.00  0.00    -0.264 OA
ATOM      3  N   UNL d   1      58.244  -0.519  28.988  0.00  0.00    -0.105 NA
ENDROOT
BRANCH   3   4
ATOM      4  N   UNL d   1      58.796  -1.033  29.323  0.00  0.00    -0.143 NA
BRANCH   4   5
ATOM      5  C   UNL d   1      58.800  -1.846  29.114  0.00  0.00     0.126 C 
BRANCH   5   6
ATOM      6  C   UNL d   1      59.511  -2.244  29.017  0.00  0.00     0.060 A 
ATOM      7  C   UNL d   1      59.569  -3.057  29.191  0.00  0.00     0.197 A 
ATOM      8  O   UNL d   1      58.909  -3.458  29.461  0.00  0.00    -0.286 OA
ATOM      9  C   UNL d   1      60.279  -3.454  29.094  0.00  0.00     0.042 A 
ATOM     10  C   UNL d   1      60.942  -3.053  28.822  0.00  0.00     0.003 A 
ATOM     11  C   UNL d   1      60.892  -2.229  28.644  0.00  0.00     0.000 A 
ATOM     12  C   UNL d   1      60.179  -1.830  28.741  0.00  0.00     0.005 A 
ENDBRANCH   5   6
ENDBRANCH   4   5
ENDBRANCH   3   4
BRANCH   1  13
ATOM     13  C   UNL d   1      58.335   0.339  30.131  0.00  0.00     0.098 A 
ATOM     14  C   UNL d   1      57.843   0.336  30.795  0.00  0.00     0.200 A 
ATOM     15  O   UNL d   1      57.046   0.165  30.710  0.00  0.00    -0.286 OA
ATOM     16  C   UNL d   1      58.149   0.505  31.546  0.00  0.00     0.042 A 
ATOM     17  C   UNL d   1      58.949   0.677  31.631  0.00  0.00     0.003 A 
ATOM     18  C   UNL d   1      59.453   0.682  30.965  0.00  0.00     0.000 A 
ATOM     19  C   UNL d   1      59.154   0.515  30.217  0.00  0.00     0.008 A 
ENDBRANCH   1  13
TORSDOF 4
ENDMDL
MODEL 4
REMARK VINA RESULT:      -1.1      9.064     10.102
REMARK  4 active torsions:
REMARK  status: ('A' for Active; 'I' for Inactive)
REMARK    1  A    between atoms: C_2  and  C_1 
REMARK       I    between atoms: N_6  and  C_2 
REMARK    2  A    between atoms: C_4  and  C_11 
REMARK    3  A    between atoms: N_8  and  N_6 
REMARK    4  A    between atoms: C_11  and  N_8 
ROOT
ATOM      1  C   UNL d   1      59.441  -8.037  34.775  0.00  0.00     0.300 C 
ATOM      2  O   UNL d   1      59.310  -7.283  35.084  0.00  0.00    -0.264 OA
ATOM      3  N   UNL d   1      59.160  -8.233  34.018  0.00  0.00    -0.105 NA
ENDROOT
BRANCH   3   4
ATOM      4  N   UNL d   1      59.290  -8.986  33.707  0.00  0.00    -0.143 NA
BRANCH   4   5
ATOM      5  C   UNL d   1      58.713  -9.348  33.216  0.00  0.00     0.126 C 
BRANCH   5   6
ATOM      6  C   UNL d   1      58.880  -9.504  32.428  0.00  0.00     0.060 A 
ATOM      7  C   UNL d   1      58.267  -9.549  31.866  0.00  0.00     0.197 A 
ATOM      8  O   UNL d   1      57.492  -9.436  32.106  0.00  0.00    -0.286 OA
ATOM      9  C   UNL d   1      58.433  -9.704  31.079  0.00  0.00     0.042 A 
ATOM     10  C   UNL d   1      59.209  -9.818  30.837  0.00  0.00     0.003 A 
ATOM     11  C   UNL d   1      59.837  -9.774  31.399  0.00  0.00     0.000 A 
ATOM     12  C   UNL d   1      59.670  -9.618  32.190  0.00  0.00     0.005 A 
ENDBRANCH   5   6
ENDBRANCH   4   5
ENDBRANCH   3   4
BRANCH   1  13
ATOM     13  C   UNL d   1      59.852  -8.599  35.218  0.00  0.00     0.098 A 
ATOM     14  C   UNL d   1      60.668  -8.519  35.312  0.00  0.00     0.200 A 
ATOM     15  O   UNL d   1      61.058  -7.886  34.966  0.00  0.00    -0.286 OA
ATOM     16  C   UNL d   1      61.098  -9.073  35.753  0.00  0.00     0.042 A 
ATOM     17  C   UNL d   1      60.707  -9.708  36.101  0.00  0.00     0.003 A 
ATOM     18  C   UNL d   1      59.882  -9.797  36.011  0.00  0.00     0.000 A 
ATOM     19  C   UNL d   1      59.451  -9.250  35.574  0.00  0.00     0.008 A 
ENDBRANCH   1  13
TORSDOF 4
ENDMDL
