MODEL 1
REMARK VINA RESULT:      -2.8      0.000      0.000
REMARK  5 active torsions:
REMARK  status: ('A' for Active; 'I' for Inactive)
REMARK    1  A    between atoms: N_6  and  C_1 
REMARK    2  A    between atoms: C_11  and  C_5 
REMARK       I    between atoms: C_7  and  N_8 
REMARK    3  A    between atoms: C_10  and  C_7 
REMARK    4  A    between atoms: O_27  and  C_14 
REMARK    5  A    between atoms: O_28  and  C_21 
ROOT
ATOM      1  C   UNL d   1     -46.814  13.440  22.564  0.00  0.00     0.197 A 
ATOM      2  C   UNL d   1     -47.290  12.884  22.968  0.00  0.00     0.191 A 
ATOM      3  O   UNL d   1     -47.275  14.113  22.415  0.00  0.00    -0.270 OA
ATOM      4  N   UNL d   1     -48.027  13.228  23.057  0.00  0.00    -0.208 NA
ATOM      5  C   UNL d   1     -48.019  13.950  22.732  0.00  0.00     0.185 A 
ATOM      6  C   UNL d   1     -47.052  12.111  23.236  0.00  0.00     0.124 C 
ATOM      7  N   UNL d   1     -46.837  11.352  23.504  0.00  0.00    -0.190 NA
ENDROOT
BRANCH   1   8
ATOM      8  N   UNL d   1     -46.048  13.126  22.453  0.00  0.00    -0.280 N 
ATOM      9  C   UNL d   1     -45.831  12.435  22.888  0.00  0.00     0.101 A 
ATOM     10  C   UNL d   1     -45.065  12.122  22.777  0.00  0.00     0.102 A 
ATOM     11  N   UNL d   1     -44.526  12.492  22.241  0.00  0.00    -0.267 N 
ATOM     12  C   UNL d   1     -43.761  12.179  22.130  0.00  0.00     0.288 C 
ATOM     13  C   UNL d   1     -44.758  13.168  21.824  0.00  0.00     0.102 A 
ATOM     14  O   UNL d   1     -43.530  11.502  22.547  0.00  0.00    -0.264 OA
ATOM     15  C   UNL d   1     -45.529  13.476  21.943  0.00  0.00     0.101 A 
BRANCH  12  16
ATOM     16  C   UNL d   1     -43.224  12.546  21.598  0.00  0.00     0.156 A 
ATOM     17  O   UNL d   1     -43.312  12.838  20.829  0.00  0.00    -0.300 OA
ATOM     18  C   UNL d   1     -42.597  13.132  20.594  0.00  0.00     0.123 A 
ATOM     19  C   UNL d   1     -42.042  13.040  21.191  0.00  0.00     0.029 A 
ATOM     20  C   UNL d   1     -42.430  12.674  21.820  0.00  0.00     0.032 A 
ENDBRANCH  12  16
ENDBRANCH   1   8
BRANCH   5  21
ATOM     21  C   UNL d   1     -48.740  14.280  22.821  0.00  0.00     0.043 A 
ATOM     22  C   UNL d   1     -49.368  14.035  22.378  0.00  0.00     0.030 A 
ATOM     23  C   UNL d   1     -50.110  14.369  22.464  0.00  0.00     0.116 A 
ATOM     24  C   UNL d   1     -50.221  14.966  23.012  0.00  0.00     0.116 A 
ATOM     25  C   UNL d   1     -49.587  15.209  23.456  0.00  0.00     0.026 A 
ATOM     26  C   UNL d   1     -48.846  14.875  23.369  0.00  0.00     0.006 A 
BRANCH  23  27
ATOM     27  O   UNL d   1     -50.747  14.087  21.983  0.00  0.00    -0.326 OA
ATOM     28  C   UNL d   1     -50.826  13.294  21.801  0.00  0.00     0.181 C 
ENDBRANCH  23  27
BRANCH  24  29
ATOM     29  O   UNL d   1     -50.962  15.314  23.114  0.00  0.00    -0.326 OA
ATOM     30  C   UNL d   1     -51.064  15.921  23.650  0.00  0.00     0.181 C 
ENDBRANCH  24  29
ENDBRANCH   5  21
TORSDOF 5
ENDMDL
MODEL 2
REMARK VINA RESULT:      -2.7      3.519      6.394
REMARK  5 active torsions:
REMARK  status: ('A' for Active; 'I' for Inactive)
REMARK    1  A    between atoms: N_6  and  C_1 
REMARK    2  A    between atoms: C_11  and  C_5 
REMARK       I    between atoms: C_7  and  N_8 
REMARK    3  A    between atoms: C_10  and  C_7 
REMARK    4  A    between atoms: O_27  and  C_14 
REMARK    5  A    between atoms: O_28  and  C_21 
ROOT
ATOM      1  C   UNL d   1     -41.413  13.793  20.415  0.00  0.00     0.197 A 
ATOM      2  C   UNL d   1     -41.684  14.393  20.929  0.00  0.00     0.191 A 
ATOM      3  O   UNL d   1     -41.919  13.139  20.492  0.00  0.00    -0.270 OA
ATOM      4  N   UNL d   1     -42.346  14.096  21.307  0.00  0.00    -0.208 NA
ATOM      5  C   UNL d   1     -42.485  13.360  21.052  0.00  0.00     0.185 A 
ATOM      6  C   UNL d   1     -41.338  15.164  21.036  0.00  0.00     0.124 C 
ATOM      7  N   UNL d   1     -41.013  15.922  21.154  0.00  0.00    -0.190 NA
ENDROOT
BRANCH   1   8
ATOM      8  N   UNL d   1     -40.735  14.057  20.006  0.00  0.00    -0.280 N 
ATOM      9  C   UNL d   1     -39.983  13.965  20.378  0.00  0.00     0.101 A 
ATOM     10  C   UNL d   1     -39.304  14.229  19.969  0.00  0.00     0.102 A 
ATOM     11  N   UNL d   1     -39.376  14.579  19.203  0.00  0.00    -0.267 N 
ATOM     12  C   UNL d   1     -38.698  14.843  18.795  0.00  0.00     0.288 C 
ATOM     13  C   UNL d   1     -40.123  14.660  18.855  0.00  0.00     0.102 A 
ATOM     14  O   UNL d   1     -37.952  14.761  19.142  0.00  0.00    -0.264 OA
ATOM     15  C   UNL d   1     -40.798  14.392  19.274  0.00  0.00     0.101 A 
BRANCH  12  16
ATOM     16  C   UNL d   1     -38.769  15.190  18.033  0.00  0.00     0.156 A 
ATOM     17  O   UNL d   1     -39.172  15.859  17.759  0.00  0.00    -0.300 OA
ATOM     18  C   UNL d   1     -39.036  15.920  16.965  0.00  0.00     0.123 A 
ATOM     19  C   UNL d   1     -38.554  15.307  16.710  0.00  0.00     0.029 A 
ATOM     20  C   UNL d   1     -38.385  14.848  17.376  0.00  0.00     0.032 A 
ENDBRANCH  12  16
ENDBRANCH   1   8
BRANCH   5  21
ATOM     21  C   UNL d   1     -43.130  13.076  21.425  0.00  0.00     0.043 A 
ATOM     22  C   UNL d   1     -43.114  12.362  21.801  0.00  0.00     0.030 A 
ATOM     23  C   UNL d   1     -43.772  12.065  22.185  0.00  0.00     0.116 A 
ATOM     24  C   UNL d   1     -44.466  12.499  22.190  0.00  0.00     0.116 A 
ATOM     25  C   UNL d   1     -44.477  13.216  21.810  0.00  0.00     0.026 A 
ATOM     26  C   UNL d   1     -43.820  13.512  21.427  0.00  0.00     0.006 A 
BRANCH  23  27
ATOM     27  O   UNL d   1     -43.720  11.313  22.570  0.00  0.00    -0.326 OA
ATOM     28  C   UNL d   1     -43.031  11.068  22.937  0.00  0.00     0.181 C 
ENDBRANCH  23  27
BRANCH  24  29
ATOM     29  O   UNL d   1     -45.140  12.216  22.572  0.00  0.00    -0.326 OA
ATOM     30  C   UNL d   1     -45.836  12.641  22.553  0.00  0.00     0.181 C 
ENDBRANCH  24  29
ENDBRANCH   5  21
TORSDOF 5
ENDMDL
MODEL 3
REMARK VINA RESULT:      -2.1      1.690      3.062
REMARK  5 active torsions:
REMARK  status: ('A' for Active; 'I' for Inactive)
REMARK    1  A    between atoms: N_6  and  C_1 
REMARK    2  A    between atoms: C_11  and  C_5 
REMARK       I    between atoms: C_7  and  N_8 
REMARK    3  A    between atoms: C_10  and  C_7 
REMARK    4  A    between atoms: O_27  and  C_14 
REMARK    5  A    between atoms: O_28  and  C_21 
ROOT
ATOM      1  C   UNL d   1     -44.548  13.213  21.852  0.00  0.00     0.197 A 
ATOM      2  C   UNL d   1     -44.522  12.517  22.314  0.00  0.00     0.191 A 
ATOM      3  O   UNL d   1     -45.320  13.517  21.887  0.00  0.00    -0.270 OA
ATOM      4  N   UNL d   1     -45.274  12.412  22.620  0.00  0.00    -0.208 NA
ATOM      5  C   UNL d   1     -45.743  12.998  22.371  0.00  0.00     0.185 A 
ATOM      6  C   UNL d   1     -43.845  12.017  22.441  0.00  0.00     0.124 C 
ATOM      7  N   UNL d   1     -43.193  11.516  22.575  0.00  0.00    -0.190 NA
ENDROOT
BRANCH   1   8
ATOM      8  N   UNL d   1     -43.797  13.358  21.519  0.00  0.00    -0.280 N 
ATOM      9  C   UNL d   1     -43.525  12.845  20.906  0.00  0.00     0.101 A 
ATOM     10  C   UNL d   1     -42.773  12.990  20.573  0.00  0.00     0.102 A 
ATOM     11  N   UNL d   1     -42.302  13.636  20.847  0.00  0.00    -0.267 N 
ATOM     12  C   UNL d   1     -41.551  13.781  20.514  0.00  0.00     0.288 C 
ATOM     13  C   UNL d   1     -42.586  14.128  21.449  0.00  0.00     0.102 A 
ATOM     14  O   UNL d   1     -41.266  13.290  19.913  0.00  0.00    -0.264 OA
ATOM     15  C   UNL d   1     -43.343  13.974  21.777  0.00  0.00     0.101 A 
BRANCH  12  16
ATOM     16  C   UNL d   1     -41.082  14.423  20.787  0.00  0.00     0.156 A 
ATOM     17  O   UNL d   1     -41.210  15.240  20.807  0.00  0.00    -0.300 OA
ATOM     18  C   UNL d   1     -40.556  15.584  21.134  0.00  0.00     0.123 A 
ATOM     19  C   UNL d   1     -40.001  15.013  21.329  0.00  0.00     0.029 A 
ATOM     20  C   UNL d   1     -40.326  14.285  21.113  0.00  0.00     0.032 A 
ENDBRANCH  12  16
ENDBRANCH   1   8
BRANCH   5  21
ATOM     21  C   UNL d   1     -46.473  12.889  22.672  0.00  0.00     0.043 A 
ATOM     22  C   UNL d   1     -47.041  13.459  22.605  0.00  0.00     0.030 A 
ATOM     23  C   UNL d   1     -47.792  13.354  22.912  0.00  0.00     0.116 A 
ATOM     24  C   UNL d   1     -47.975  12.656  23.297  0.00  0.00     0.116 A 
ATOM     25  C   UNL d   1     -47.402  12.086  23.362  0.00  0.00     0.026 A 
ATOM     26  C   UNL d   1     -46.652  12.191  23.055  0.00  0.00     0.006 A 
BRANCH  23  27
ATOM     27  O   UNL d   1     -48.363  13.973  22.824  0.00  0.00    -0.326 OA
ATOM     28  C   UNL d   1     -48.137  14.744  22.672  0.00  0.00     0.181 C 
ENDBRANCH  23  27
BRANCH  24  29
ATOM     29  O   UNL d   1     -48.727  12.532  23.613  0.00  0.00    -0.326 OA
ATOM     30  C   UNL d   1     -49.022  11.776  23.698  0.00  0.00     0.181 C 
ENDBRANCH  24  29
ENDBRANCH   5  21
TORSDOF 5
ENDMDL
MODEL 4
REMARK VINA RESULT:      -1.9      1.789      6.222
REMARK  5 active torsions:
REMARK  status: ('A' for Active; 'I' for Inactive)
REMARK    1  A    between atoms: N_6  and  C_1 
REMARK    2  A    between atoms: C_11  and  C_5 
REMARK       I    between atoms: C_7  and  N_8 
REMARK    3  A    between atoms: C_10  and  C_7 
REMARK    4  A    between atoms: O_27  and  C_14 
REMARK    5  A    between atoms: O_28  and  C_21 
ROOT
ATOM      1  C   UNL d   1     -44.776  13.408  21.949  0.00  0.00     0.197 A 
ATOM      2  C   UNL d   1     -44.344  12.732  22.181  0.00  0.00     0.191 A 
ATOM      3  O   UNL d   1     -44.257  13.923  21.556  0.00  0.00    -0.270 OA
ATOM      4  N   UNL d   1     -43.575  12.847  21.926  0.00  0.00    -0.208 NA
ATOM      5  C   UNL d   1     -43.522  13.546  21.559  0.00  0.00     0.185 A 
ATOM      6  C   UNL d   1     -44.647  12.055  22.600  0.00  0.00     0.124 C 
ATOM      7  N   UNL d   1     -44.927  11.386  23.010  0.00  0.00    -0.190 NA
ENDROOT
BRANCH   1   8
ATOM      8  N   UNL d   1     -45.571  13.332  22.191  0.00  0.00    -0.280 N 
ATOM      9  C   UNL d   1     -45.794  13.650  22.940  0.00  0.00     0.101 A 
ATOM     10  C   UNL d   1     -46.589  13.573  23.182  0.00  0.00     0.102 A 
ATOM     11  N   UNL d   1     -47.151  13.186  22.685  0.00  0.00    -0.267 N 
ATOM     12  C   UNL d   1     -47.946  13.109  22.926  0.00  0.00     0.288 C 
ATOM     13  C   UNL d   1     -46.913  12.880  21.953  0.00  0.00     0.102 A 
ATOM     14  O   UNL d   1     -48.185  13.414  23.657  0.00  0.00    -0.264 OA
ATOM     15  C   UNL d   1     -46.112  12.962  21.719  0.00  0.00     0.101 A 
BRANCH  12  16
ATOM     16  C   UNL d   1     -48.506  12.724  22.432  0.00  0.00     0.156 A 
ATOM     17  O   UNL d   1     -48.769  12.874  21.663  0.00  0.00    -0.300 OA
ATOM     18  C   UNL d   1     -49.318  12.312  21.476  0.00  0.00     0.123 A 
ATOM     19  C   UNL d   1     -49.422  11.795  22.104  0.00  0.00     0.029 A 
ATOM     20  C   UNL d   1     -48.916  12.049  22.704  0.00  0.00     0.032 A 
ENDBRANCH  12  16
ENDBRANCH   1   8
BRANCH   5  21
ATOM     21  C   UNL d   1     -42.771  13.652  21.314  0.00  0.00     0.043 A 
ATOM     22  C   UNL d   1     -42.440  14.387  21.290  0.00  0.00     0.030 A 
ATOM     23  C   UNL d   1     -41.670  14.503  21.039  0.00  0.00     0.116 A 
ATOM     24  C   UNL d   1     -41.221  13.859  20.807  0.00  0.00     0.116 A 
ATOM     25  C   UNL d   1     -41.558  13.122  20.833  0.00  0.00     0.026 A 
ATOM     26  C   UNL d   1     -42.327  13.007  21.084  0.00  0.00     0.006 A 
BRANCH  23  27
ATOM     27  O   UNL d   1     -41.354  15.288  21.026  0.00  0.00    -0.326 OA
ATOM     28  C   UNL d   1     -41.797  15.921  20.756  0.00  0.00     0.181 C 
ENDBRANCH  23  27
BRANCH  24  29
ATOM     29  O   UNL d   1     -40.443  13.956  20.551  0.00  0.00    -0.326 OA
ATOM     30  C   UNL d   1     -39.861  13.436  20.789  0.00  0.00     0.181 C 
ENDBRANCH  24  29
ENDBRANCH   5  21
TORSDOF 5
ENDMDL
