MODEL 1
REMARK VINA RESULT:      -3.8      0.000      0.000
REMARK  6 active torsions:
REMARK  status: ('A' for Active; 'I' for Inactive)
REMARK    1  A    between atoms: N_3  and  C_1 
REMARK       I    between atoms: C_4  and  N_3 
REMARK       I    between atoms: N_10  and  C_4 
REMARK    2  A    between atoms: C_7  and  C_5 
REMARK    3  A    between atoms: C_9  and  C_7 
REMARK       I    between atoms: N_12  and  C_9 
REMARK    4  A    between atoms: C_14  and  N_10 
REMARK    5  A    between atoms: C_19  and  N_12 
REMARK    6  A    between atoms: C_17  and  C_19 
ROOT
ATOM      1  C   UNL d   1      32.989  19.186 -23.341  0.00  0.00     0.199 A 
ATOM      2  N   UNL d   1      32.533  18.944 -23.986  0.00  0.00    -0.220 NA
ATOM      3  C   UNL d   1      32.420  18.133 -23.923  0.00  0.00     0.095 A 
ATOM      4  S   UNL d   1      33.157  18.538 -22.884  0.00  0.00    -0.046 SA
ATOM      5  C   UNL d   1      32.808  17.881 -23.237  0.00  0.00     0.058 A 
ENDROOT
BRANCH   1   6
ATOM      6  N   UNL d   1      33.239  19.969 -23.180  0.00  0.00    -0.166 NA
ATOM      7  C   UNL d   1      32.975  20.356 -22.489  0.00  0.00     0.370 C 
ATOM      8  N   UNL d   1      33.217  21.129 -22.320  0.00  0.00    -0.191 NA
ATOM      9  O   UNL d   1      32.464  19.966 -21.961  0.00  0.00    -0.242 OA
BRANCH   8  10
ATOM     10  C   UNL d   1      32.961  21.515 -21.644  0.00  0.00     0.087 A 
ATOM     11  C   UNL d   1      32.479  22.181 -21.694  0.00  0.00     0.031 A 
ATOM     12  C   UNL d   1      32.224  22.566 -21.026  0.00  0.00     0.059 A 
ATOM     13 CL   UNL d   1      31.739  23.235 -21.084  0.00  0.00    -0.082 Cl
ATOM     14  C   UNL d   1      32.454  22.282 -20.275  0.00  0.00     0.011 A 
ATOM     15  C   UNL d   1      32.937  21.616 -20.225  0.00  0.00     0.002 A 
ATOM     16  C   UNL d   1      33.191  21.231 -20.909  0.00  0.00     0.019 A 
ENDBRANCH   8  10
ENDBRANCH   1   6
BRANCH   3  17
ATOM     17  C   UNL d   1      31.993  17.656 -24.452  0.00  0.00     0.082 C 
BRANCH  17  18
ATOM     18  C   UNL d   1      31.645  16.936 -24.196  0.00  0.00     0.281 C 
ATOM     19  N   UNL d   1      30.826  16.864 -24.128  0.00  0.00    -0.205 NA
ATOM     20  O   UNL d   1      32.141  16.303 -24.013  0.00  0.00    -0.265 OA
BRANCH  19  21
ATOM     21  C   UNL d   1      30.495  16.156 -23.877  0.00  0.00     0.121 C 
BRANCH  21  22
ATOM     22  C   UNL d   1      29.702  16.098 -23.729  0.00  0.00     0.101 A 
ATOM     23  N   UNL d   1      29.412  15.512 -23.206  0.00  0.00    -0.242 NA
ATOM     24  C   UNL d   1      28.603  15.461 -23.062  0.00  0.00     0.099 A 
ATOM     25  C   UNL d   1      28.076  15.978 -23.425  0.00  0.00     0.021 A 
ATOM     26  C   UNL d   1      28.362  16.557 -23.941  0.00  0.00     0.003 A 
ATOM     27  C   UNL d   1      29.178  16.609 -24.087  0.00  0.00     0.021 A 
ENDBRANCH  21  22
ENDBRANCH  19  21
ENDBRANCH  17  18
ENDBRANCH   3  17
TORSDOF 6
ENDMDL
