MODEL 1
REMARK VINA RESULT:      99.7      0.000      0.000
REMARK  9 active torsions:
REMARK  status: ('A' for Active; 'I' for Inactive)
REMARK    1  A    between atoms: C_27  and  N_1 
REMARK    2  A    between atoms: S_11  and  C_2 
REMARK    3  A    between atoms: C_28  and  S_11 
REMARK    4  A    between atoms: C_18  and  C_28 
REMARK    5  A    between atoms: C_19  and  C_35 
REMARK       I    between atoms: N_23  and  C_19 
REMARK    6  A    between atoms: C_32  and  N_23 
REMARK    7  A    between atoms: C_34  and  C_27 
REMARK    8  A    between atoms: C_30  and  C_32 
REMARK    9  A    between atoms: C_35  and  C_34 
ROOT
ATOM      1  N   UNL d   1      59.447  49.694  50.796  0.00  0.00    -0.253 N 
ATOM      2  C   UNL d   1      58.629  49.686  50.703  0.00  0.00     0.182 A 
ATOM      3  C   UNL d   1      59.774  49.698  51.561  0.00  0.00     0.268 A 
ATOM      4  C   UNL d   1      59.284  49.695  52.225  0.00  0.00     0.076 A 
ATOM      5  N   UNL d   1      58.151  49.683  51.376  0.00  0.00    -0.222 NA
ATOM      6  C   UNL d   1      58.466  49.688  52.131  0.00  0.00     0.090 A 
ATOM      7  C   UNL d   1      59.612  49.700  52.986  0.00  0.00     0.033 A 
ATOM      8  C   UNL d   1      57.987  49.685  52.814  0.00  0.00     0.046 A 
ATOM      9  C   UNL d   1      59.119  49.697  53.670  0.00  0.00     0.119 A 
ATOM     10  C   UNL d   1      58.301  49.689  53.577  0.00  0.00     0.121 A 
ATOM     11  O   UNL d   1      60.592  49.706  51.655  0.00  0.00    -0.267 OA
ATOM     12  O   UNL d   1      59.276  49.700  54.497  0.00  0.00    -0.300 OA
ATOM     13  O   UNL d   1      57.967  49.688  54.342  0.00  0.00    -0.299 OA
ATOM     14  C   UNL d   1      58.563  49.694  54.916  0.00  0.00     0.304 A 
ENDROOT
BRANCH   1  15
ATOM     15  C   UNL d   1      59.940  49.697  50.112  0.00  0.00     0.085 C 
BRANCH  15  16
ATOM     16  C   UNL d   1      60.518  49.127  50.035  0.00  0.00     0.024 C 
BRANCH  16  17
ATOM     17  C   UNL d   1      61.254  49.243  50.398  0.00  0.00     0.064 C 
BRANCH  17  18
ATOM     18  C   UNL d   1      61.937  48.928  50.064  0.00  0.00     0.279 C 
ATOM     19  N   UNL d   1      61.983  48.117  49.913  0.00  0.00    -0.206 NA
ATOM     20  O   UNL d   1      62.570  49.416  49.880  0.00  0.00    -0.265 OA
BRANCH  19  21
ATOM     21  C   UNL d   1      61.348  47.626  50.097  0.00  0.00     0.102 C 
BRANCH  21  22
ATOM     22  C   UNL d   1      61.416  46.815  49.986  0.00  0.00     0.021 A 
ATOM     23  C   UNL d   1      61.427  46.315  50.643  0.00  0.00     0.028 A 
ATOM     24  C   UNL d   1      61.495  45.505  50.532  0.00  0.00     0.119 A 
ATOM     25  O   UNL d   1      61.522  44.876  51.066  0.00  0.00    -0.300 OA
ATOM     26  C   UNL d   1      61.553  45.193  49.772  0.00  0.00     0.119 A 
ATOM     27  C   UNL d   1      61.595  44.181  50.633  0.00  0.00     0.304 A 
ATOM     28  O   UNL d   1      61.614  44.375  49.832  0.00  0.00    -0.300 OA
ATOM     29  C   UNL d   1      61.541  45.700  49.120  0.00  0.00     0.026 A 
ATOM     30  C   UNL d   1      61.473  46.505  49.229  0.00  0.00     0.004 A 
ENDBRANCH  21  22
ENDBRANCH  19  21
ENDBRANCH  17  18
ENDBRANCH  16  17
ENDBRANCH  15  16
ENDBRANCH   1  15
BRANCH   2  31
ATOM     31  S   UNL d   1      58.316  49.682  49.926  0.00  0.00    -0.044 SA
BRANCH  31  32
ATOM     32  C   UNL d   1      57.766  49.097  49.713  0.00  0.00     0.102 C 
BRANCH  32  33
ATOM     33  C   UNL d   1      56.981  49.308  49.563  0.00  0.00     0.303 C 
ATOM     34  O   UNL d   1      56.549  49.705  50.140  0.00  0.00    -0.263 OA
ATOM     35  N   UNL d   1      56.644  49.117  48.839  0.00  0.00    -0.102 N 
ENDBRANCH  32  33
ENDBRANCH  31  32
ENDBRANCH   2  31
TORSDOF 9
ENDMDL
