MODEL 1
REMARK VINA RESULT:      19.0      0.000      0.000
REMARK  2 active torsions:
REMARK  status: ('A' for Active; 'I' for Inactive)
REMARK    1  A    between atoms: N_7  and  C_3 
REMARK       I    between atoms: C_8  and  N_7 
REMARK    2  A    between atoms: C_10  and  C_8 
ROOT
ATOM      1  C   UNL d   1      44.600 -14.246  44.704  0.00  0.00     0.343 A 
ATOM      2  N   UNL d   1      44.720 -15.055  44.748  0.00  0.00    -0.241 N 
ATOM      3  C   UNL d   1      45.478 -15.365  44.678  0.00  0.00     0.159 A 
ATOM      4  N   UNL d   1      45.243 -13.740  44.589  0.00  0.00    -0.224 N 
ATOM      5  C   UNL d   1      46.120 -14.858  44.563  0.00  0.00     0.099 A 
ATOM      6  C   UNL d   1      46.011 -14.037  44.517  0.00  0.00     0.271 A 
ATOM      7  O   UNL d   1      43.837 -13.936  44.775  0.00  0.00    -0.245 OA
ATOM      8  O   UNL d   1      46.647 -13.535  44.403  0.00  0.00    -0.266 OA
ATOM      9  C   UNL d   1      44.078 -15.561  44.864  0.00  0.00     0.105 C 
ATOM     10  C   UNL d   1      45.121 -12.922  44.545  0.00  0.00     0.107 C 
ENDROOT
BRANCH   3  11
ATOM     11  N   UNL d   1      45.600 -16.183  44.723  0.00  0.00    -0.190 NA
ATOM     12  C   UNL d   1      45.949 -16.582  44.092  0.00  0.00     0.280 C 
ATOM     13  O   UNL d   1      46.177 -16.168  43.415  0.00  0.00    -0.265 OA
BRANCH  12  14
ATOM     14  C   UNL d   1      46.069 -17.396  44.138  0.00  0.00     0.058 A 
ATOM     15  C   UNL d   1      46.209 -17.814  43.460  0.00  0.00     0.006 A 
ATOM     16  C   UNL d   1      46.328 -18.618  43.500  0.00  0.00     0.012 A 
ATOM     17  C   UNL d   1      46.311 -19.018  44.218  0.00  0.00     0.058 A 
ATOM     18  C   UNL d   1      46.164 -18.570  44.922  0.00  0.00     0.012 A 
ATOM     19 CL   UNL d   1      46.432 -19.835  44.262  0.00  0.00    -0.082 Cl
ATOM     20  C   UNL d   1      46.045 -17.767  44.882  0.00  0.00     0.006 A 
ENDBRANCH  12  14
ENDBRANCH   3  11
TORSDOF 2
ENDMDL
