MODEL 1
REMARK VINA RESULT:      10.7      0.000      0.000
REMARK  9 active torsions:
REMARK  status: ('A' for Active; 'I' for Inactive)
REMARK    1  A    between atoms: C_5  and  C_1 
REMARK    2  A    between atoms: C_10  and  C_2 
REMARK    3  A    between atoms: S_11  and  C_3 
REMARK    4  A    between atoms: C_9  and  C_4 
REMARK       I    between atoms: N_8  and  C_5 
REMARK    5  A    between atoms: C_13  and  N_8 
REMARK    6  A    between atoms: C_18  and  S_11 
REMARK    7  A    between atoms: C_16  and  C_18 
REMARK    8  A    between atoms: C_23  and  C_16 
REMARK    9  A    between atoms: O_25  and  C_20 
ROOT
ATOM      1  C   UNL d   1     -42.373-122.802 -50.189  0.00  0.00     0.077 A 
ATOM      2  C   UNL d   1     -42.524-121.984 -51.348  0.00  0.00     0.047 A 
ATOM      3  C   UNL d   1     -41.753-122.175 -51.583  0.00  0.00     0.112 A 
ATOM      4  C   UNL d   1     -42.835-122.298 -50.651  0.00  0.00     0.032 A 
ATOM      5  C   UNL d   1     -41.601-122.992 -50.424  0.00  0.00     0.087 A 
ATOM      6  N   UNL d   1     -41.291-122.679 -51.122  0.00  0.00    -0.239 NA
ATOM      7  C   UNL d   1     -41.124-123.503 -49.962  0.00  0.00     0.021 C 
ENDROOT
BRANCH   1   8
ATOM      8  C   UNL d   1     -42.699-123.114 -49.482  0.00  0.00     0.281 C 
ATOM      9  N   UNL d   1     -42.389-122.884 -48.760  0.00  0.00    -0.206 NA
ATOM     10  O   UNL d   1     -43.319-123.643 -49.520  0.00  0.00    -0.265 OA
BRANCH   9  11
ATOM     11  C   UNL d   1     -42.702-123.185 -48.069  0.00  0.00     0.107 A 
ATOM     12  C   UNL d   1     -42.270-123.169 -47.374  0.00  0.00     0.112 A 
ATOM     13  C   UNL d   1     -42.602-123.477 -46.684  0.00  0.00     0.026 A 
ATOM     14  C   UNL d   1     -43.371-123.802 -46.699  0.00  0.00     0.002 A 
ATOM     15  C   UNL d   1     -43.798-123.815 -47.397  0.00  0.00     0.002 A 
ATOM     16  C   UNL d   1     -43.467-123.507 -48.087  0.00  0.00     0.021 A 
BRANCH  12  17
ATOM     17  O   UNL d   1     -41.500-122.847 -47.347  0.00  0.00    -0.327 OA
ATOM     18  C   UNL d   1     -41.129-121.964 -47.097  0.00  0.00     0.181 C 
ENDBRANCH  12  17
ENDBRANCH   9  11
ENDBRANCH   1   8
BRANCH   4  19
ATOM     19  C   UNL d   1     -43.612-122.105 -50.414  0.00  0.00     0.100 A 
ATOM     20  O   UNL d   1     -44.220-122.647 -50.528  0.00  0.00    -0.305 OA
ATOM     21  C   UNL d   1     -44.919-122.298 -50.238  0.00  0.00     0.123 A 
ATOM     22  C   UNL d   1     -44.747-121.568 -49.956  0.00  0.00     0.029 A 
ATOM     23  C   UNL d   1     -43.952-121.427 -50.053  0.00  0.00     0.027 A 
ENDBRANCH   4  19
BRANCH   2  24
ATOM     24  C   UNL d   1     -43.003-121.470 -51.814  0.00  0.00     0.124 C 
ATOM     25  N   UNL d   1     -42.859-120.666 -51.816  0.00  0.00    -0.146 N 
ENDBRANCH   2  24
BRANCH   3  26
ATOM     26  S   UNL d   1     -41.428-121.859 -52.295  0.00  0.00    -0.064 SA
BRANCH  26  27
ATOM     27  C   UNL d   1     -41.424-122.307 -52.977  0.00  0.00     0.079 C 
BRANCH  27  28
ATOM     28  C   UNL d   1     -41.381-121.932 -53.691  0.00  0.00     0.202 C 
ATOM     29  O   UNL d   1     -41.193-121.123 -53.718  0.00  0.00    -0.286 OA
BRANCH  28  30
ATOM     30  C   UNL d   1     -41.522-122.346 -54.383  0.00  0.00     0.040 A 
ATOM     31  C   UNL d   1     -41.145-123.073 -54.520  0.00  0.00     0.003 A 
ATOM     32  C   UNL d   1     -41.283-123.493 -55.215  0.00  0.00     0.000 A 
ATOM     33  C   UNL d   1     -41.819-123.170 -55.792  0.00  0.00     0.000 A 
ATOM     34  C   UNL d   1     -42.183-122.447 -55.636  0.00  0.00     0.000 A 
ATOM     35  C   UNL d   1     -42.039-122.037 -54.943  0.00  0.00     0.003 A 
ENDBRANCH  28  30
ENDBRANCH  27  28
ENDBRANCH  26  27
ENDBRANCH   3  26
TORSDOF 9
ENDMDL
