MODEL 1
REMARK VINA RESULT:      16.5      0.000      0.000
REMARK  2 active torsions:
REMARK  status: ('A' for Active; 'I' for Inactive)
REMARK    1  A    between atoms: C_6  and  C_1 
REMARK    2  A    between atoms: O_12  and  C_9 
ROOT
ATOM      1  C   UNL d   1      59.499  49.657  50.644  0.00  0.00     0.123 A 
ATOM      2  C   UNL d   1      59.322  49.676  49.838  0.00  0.00     0.305 A 
ATOM      3  O   UNL d   1      58.552  49.686  49.594  0.00  0.00    -0.271 OA
ATOM      4  C   UNL d   1      58.901  49.650  51.184  0.00  0.00     0.012 A 
ATOM      5  C   UNL d   1      57.916  49.678  50.148  0.00  0.00     0.125 A 
ATOM      6  C   UNL d   1      58.093  49.660  50.953  0.00  0.00     0.025 A 
ATOM      7  O   UNL d   1      59.918  49.683  49.294  0.00  0.00    -0.259 OA
ATOM      8  C   UNL d   1      57.124  49.689  49.908  0.00  0.00     0.117 A 
ATOM      9  C   UNL d   1      57.473  49.652  51.498  0.00  0.00     0.002 A 
ATOM     10  C   UNL d   1      56.679  49.663  51.264  0.00  0.00     0.002 A 
ATOM     11  C   UNL d   1      56.502  49.681  50.458  0.00  0.00     0.026 A 
ENDROOT
BRANCH   1  12
ATOM     12  C   UNL d   1      60.274  49.646  50.914  0.00  0.00     0.302 C 
ATOM     13  O   UNL d   1      60.923  49.581  50.374  0.00  0.00    -0.263 OA
ATOM     14  N   UNL d   1      60.400  49.702  51.730  0.00  0.00    -0.102 N 
ENDBRANCH   1  12
BRANCH   8  15
ATOM     15  O   UNL d   1      56.949  49.707  49.111  0.00  0.00    -0.326 OA
ATOM     16  C   UNL d   1      56.181  49.661  48.861  0.00  0.00     0.181 C 
ENDBRANCH   8  15
TORSDOF 2
ENDMDL
MODEL 2
REMARK VINA RESULT:      17.6      1.547      3.448
REMARK  2 active torsions:
REMARK  status: ('A' for Active; 'I' for Inactive)
REMARK    1  A    between atoms: C_6  and  C_1 
REMARK    2  A    between atoms: O_12  and  C_9 
ROOT
ATOM      1  C   UNL d   1      57.809  49.708  50.317  0.00  0.00     0.123 A 
ATOM      2  C   UNL d   1      57.930  49.708  51.133  0.00  0.00     0.305 A 
ATOM      3  O   UNL d   1      58.682  49.708  51.430  0.00  0.00    -0.271 OA
ATOM      4  C   UNL d   1      58.443  49.708  49.820  0.00  0.00     0.012 A 
ATOM      5  C   UNL d   1      59.355  49.708  50.922  0.00  0.00     0.125 A 
ATOM      6  C   UNL d   1      59.233  49.708  50.106  0.00  0.00     0.025 A 
ATOM      7  O   UNL d   1      57.298  49.708  51.636  0.00  0.00    -0.259 OA
ATOM      8  C   UNL d   1      60.128  49.708  51.215  0.00  0.00     0.117 A 
ATOM      9  C   UNL d   1      59.889  49.708  49.605  0.00  0.00     0.002 A 
ATOM     10  C   UNL d   1      60.666  49.708  49.893  0.00  0.00     0.002 A 
ATOM     11  C   UNL d   1      60.787  49.708  50.709  0.00  0.00     0.026 A 
ENDROOT
BRANCH   1  12
ATOM     12  C   UNL d   1      57.055  49.708  49.995  0.00  0.00     0.302 C 
ATOM     13  O   UNL d   1      56.368  49.708  50.491  0.00  0.00    -0.263 OA
ATOM     14  N   UNL d   1      56.987  49.708  49.169  0.00  0.00    -0.102 N 
ENDBRANCH   1  12
BRANCH   8  15
ATOM     15  O   UNL d   1      60.248  49.708  52.023  0.00  0.00    -0.326 OA
ATOM     16  C   UNL d   1      60.998  49.672  52.324  0.00  0.00     0.181 C 
ENDBRANCH   8  15
TORSDOF 2
ENDMDL
