MODEL 1
REMARK VINA RESULT:       3.9      0.000      0.000
REMARK  5 active torsions:
REMARK  status: ('A' for Active; 'I' for Inactive)
REMARK    1  A    between atoms: N_2  and  S_1 
REMARK    2  A    between atoms: C_10  and  S_1 
REMARK    3  A    between atoms: C_4  and  C_3 
REMARK       I    between atoms: N_5  and  C_4 
REMARK    4  A    between atoms: C_6  and  N_5 
REMARK    5  A    between atoms: O_24  and  C_21 
ROOT
ATOM      1  N   UNL d   1      32.782  20.386 -21.560  0.00  0.00    -0.226 N 
ATOM      2  C   UNL d   1      32.948  21.169 -21.803  0.00  0.00     0.133 A 
ATOM      3  C   UNL d   1      32.771  20.198 -20.760  0.00  0.00     0.092 A 
ATOM      4  C   UNL d   1      33.101  21.755 -21.243  0.00  0.00     0.023 A 
ATOM      5  C   UNL d   1      32.923  20.780 -20.194  0.00  0.00     0.018 A 
ATOM      6  C   UNL d   1      33.088  21.562 -20.440  0.00  0.00     0.003 A 
ATOM      7  C   UNL d   1      32.912  20.597 -19.394  0.00  0.00     0.002 A 
ATOM      8  C   UNL d   1      33.241  22.144 -19.874  0.00  0.00     0.000 A 
ATOM      9  C   UNL d   1      33.064  21.177 -18.836  0.00  0.00     0.000 A 
ATOM     10  C   UNL d   1      33.227  21.946 -19.075  0.00  0.00     0.000 A 
ENDROOT
BRANCH   1  11
ATOM     11  S   UNL d   1      32.629  19.801 -22.136  0.00  0.00     0.271 S 
ATOM     12  O   UNL d   1      33.241  19.352 -21.828  0.00  0.00    -0.200 OA
ATOM     13  O   UNL d   1      32.023  20.259 -22.433  0.00  0.00    -0.200 OA
BRANCH  11  14
ATOM     14  C   UNL d   1      32.481  19.225 -22.700  0.00  0.00     0.104 A 
ATOM     15  C   UNL d   1      33.102  18.756 -22.981  0.00  0.00     0.015 A 
ATOM     16  C   UNL d   1      32.953  18.180 -23.546  0.00  0.00     0.025 A 
ATOM     17  C   UNL d   1      32.188  18.065 -23.835  0.00  0.00     0.094 A 
ATOM     18  C   UNL d   1      31.575  18.535 -23.551  0.00  0.00     0.025 A 
ATOM     19  C   UNL d   1      31.717  19.118 -22.982  0.00  0.00     0.015 A 
BRANCH  17  20
ATOM     20  O   UNL d   1      32.039  17.489 -24.399  0.00  0.00    -0.328 OA
ATOM     21  C   UNL d   1      31.584  17.674 -25.065  0.00  0.00     0.181 C 
ENDBRANCH  17  20
ENDBRANCH  11  14
ENDBRANCH   1  11
BRANCH   2  22
ATOM     22  C   UNL d   1      32.959  21.355 -22.612  0.00  0.00     0.298 C 
ATOM     23  N   UNL d   1      32.859  22.135 -22.852  0.00  0.00    -0.181 NA
ATOM     24  O   UNL d   1      33.070  20.754 -23.171  0.00  0.00    -0.264 OA
BRANCH  23  25
ATOM     25  C   UNL d   1      32.869  22.324 -23.653  0.00  0.00     0.197 A 
ATOM     26  N   UNL d   1      33.238  21.930 -24.390  0.00  0.00    -0.219 NA
ATOM     27  C   UNL d   1      33.035  22.429 -25.096  0.00  0.00     0.108 A 
ATOM     28  C   UNL d   1      32.542  23.133 -24.816  0.00  0.00     0.059 A 
ATOM     29  S   UNL d   1      32.438  23.070 -23.927  0.00  0.00    -0.046 SA
ENDBRANCH  23  25
ENDBRANCH   2  22
TORSDOF 5
ENDMDL
MODEL 2
REMARK VINA RESULT:       4.7      3.497      5.981
REMARK  5 active torsions:
REMARK  status: ('A' for Active; 'I' for Inactive)
REMARK    1  A    between atoms: N_2  and  S_1 
REMARK    2  A    between atoms: C_10  and  S_1 
REMARK    3  A    between atoms: C_4  and  C_3 
REMARK       I    between atoms: N_5  and  C_4 
REMARK    4  A    between atoms: C_6  and  N_5 
REMARK    5  A    between atoms: O_24  and  C_21 
ROOT
ATOM      1  N   UNL d   1      29.625  17.212 -24.006  0.00  0.00    -0.226 N 
ATOM      2  C   UNL d   1      29.851  16.415 -23.892  0.00  0.00     0.133 A 
ATOM      3  C   UNL d   1      28.829  17.417 -24.006  0.00  0.00     0.092 A 
ATOM      4  C   UNL d   1      29.279  15.832 -23.779  0.00  0.00     0.023 A 
ATOM      5  C   UNL d   1      28.250  16.837 -23.893  0.00  0.00     0.018 A 
ATOM      6  C   UNL d   1      28.481  16.042 -23.780  0.00  0.00     0.003 A 
ATOM      7  C   UNL d   1      27.455  17.038 -23.893  0.00  0.00     0.002 A 
ATOM      8  C   UNL d   1      27.902  15.462 -23.667  0.00  0.00     0.000 A 
ATOM      9  C   UNL d   1      26.885  16.460 -23.781  0.00  0.00     0.000 A 
ATOM     10  C   UNL d   1      27.108  15.677 -23.669  0.00  0.00     0.000 A 
ENDROOT
BRANCH   1  11
ATOM     11  S   UNL d   1      30.213  17.794 -24.119  0.00  0.00     0.271 S 
ATOM     12  O   UNL d   1      30.396  17.751 -23.322  0.00  0.00    -0.200 OA
ATOM     13  O   UNL d   1      30.020  17.827 -24.911  0.00  0.00    -0.200 OA
BRANCH  11  14
ATOM     14  C   UNL d   1      30.791  18.365 -24.227  0.00  0.00     0.104 A 
ATOM     15  C   UNL d   1      31.064  18.534 -24.990  0.00  0.00     0.015 A 
ATOM     16  C   UNL d   1      31.643  19.106 -25.097  0.00  0.00     0.025 A 
ATOM     17  C   UNL d   1      31.953  19.514 -24.449  0.00  0.00     0.094 A 
ATOM     18  C   UNL d   1      31.676  19.341 -23.693  0.00  0.00     0.025 A 
ATOM     19  C   UNL d   1      31.094  18.766 -23.577  0.00  0.00     0.015 A 
BRANCH  17  20
ATOM     20  O   UNL d   1      32.531  20.086 -24.557  0.00  0.00    -0.328 OA
ATOM     21  C   UNL d   1      33.178  20.118 -24.042  0.00  0.00     0.181 C 
ENDBRANCH  17  20
ENDBRANCH  11  14
ENDBRANCH   1  11
BRANCH   2  22
ATOM     22  C   UNL d   1      30.657  16.213 -23.892  0.00  0.00     0.298 C 
ATOM     23  N   UNL d   1      31.035  16.043 -23.181  0.00  0.00    -0.181 NA
ATOM     24  O   UNL d   1      31.074  16.183 -24.607  0.00  0.00    -0.264 OA
BRANCH  23  25
ATOM     25  C   UNL d   1      31.833  15.842 -23.177  0.00  0.00     0.197 A 
ATOM     26  N   UNL d   1      32.466  15.756 -23.830  0.00  0.00    -0.219 NA
ATOM     27  C   UNL d   1      33.228  15.521 -23.441  0.00  0.00     0.108 A 
ATOM     28  C   UNL d   1      33.087  15.457 -22.551  0.00  0.00     0.059 A 
ATOM     29  S   UNL d   1      32.227  15.655 -22.385  0.00  0.00    -0.046 SA
ENDBRANCH  23  25
ENDBRANCH   2  22
TORSDOF 5
ENDMDL
