MODEL 1
REMARK VINA RESULT:      82.6      0.000      0.000
REMARK  8 active torsions:
REMARK  status: ('A' for Active; 'I' for Inactive)
REMARK    1  A    between atoms: C_6  and  C_1 
REMARK    2  A    between atoms: C_8  and  C_2 
REMARK    3  A    between atoms: S_10  and  C_3 
REMARK    4  A    between atoms: C_15  and  C_4 
REMARK       I    between atoms: N_9  and  C_6 
REMARK    5  A    between atoms: C_19  and  N_9 
REMARK    6  A    between atoms: C_18  and  S_10 
REMARK    7  A    between atoms: C_12  and  C_18 
REMARK       I    between atoms: N_14  and  C_12 
REMARK    8  A    between atoms: C_21  and  N_14 
ROOT
ATOM      1  C   UNL d   1      14.057  15.358  -3.922  0.00  0.00     0.076 A 
ATOM      2  C   UNL d   1      14.834  16.416  -3.377  0.00  0.00     0.045 A 
ATOM      3  C   UNL d   1      14.750  16.845  -4.091  0.00  0.00     0.112 A 
ATOM      4  C   UNL d   1      14.486  15.677  -3.301  0.00  0.00     0.010 A 
ATOM      5  C   UNL d   1      13.974  15.786  -4.635  0.00  0.00     0.087 A 
ATOM      6  N   UNL d   1      14.321  16.527  -4.715  0.00  0.00    -0.239 NA
ATOM      7  C   UNL d   1      13.528  15.458  -5.287  0.00  0.00     0.021 C 
ENDROOT
BRANCH   3   8
ATOM      8  S   UNL d   1      15.110  17.616  -4.176  0.00  0.00    -0.062 SA
BRANCH   8   9
ATOM      9  C   UNL d   1      14.883  18.124  -4.817  0.00  0.00     0.099 C 
BRANCH   9  10
ATOM     10  C   UNL d   1      15.462  18.542  -5.252  0.00  0.00     0.286 C 
ATOM     11  N   UNL d   1      15.243  19.181  -5.718  0.00  0.00    -0.208 NA
ATOM     12  O   UNL d   1      16.264  18.309  -5.213  0.00  0.00    -0.265 OA
BRANCH  11  13
ATOM     13  C   UNL d   1      14.460  19.408  -5.757  0.00  0.00     0.085 A 
ATOM     14  C   UNL d   1      14.172  19.914  -5.199  0.00  0.00     0.019 A 
ATOM     15  C   UNL d   1      13.384  20.145  -5.234  0.00  0.00     0.002 A 
ATOM     16  C   UNL d   1      12.891  19.863  -5.834  0.00  0.00     0.000 A 
ATOM     17  C   UNL d   1      13.197  19.353  -6.388  0.00  0.00     0.002 A 
ATOM     18  C   UNL d   1      13.981  19.126  -6.350  0.00  0.00     0.019 A 
ENDBRANCH  11  13
ENDBRANCH   9  10
ENDBRANCH   8   9
ENDBRANCH   3   8
BRANCH   2  19
ATOM     19  C   UNL d   1      15.280  16.744  -2.726  0.00  0.00     0.124 C 
ATOM     20  N   UNL d   1      15.065  17.498  -2.399  0.00  0.00    -0.146 N 
ENDBRANCH   2  19
BRANCH   4  21
ATOM     21  C   UNL d   1      14.569  15.249  -2.589  0.00  0.00     0.003 A 
ATOM     22  C   UNL d   1      14.974  14.534  -2.581  0.00  0.00     0.021 A 
ATOM     23  C   UNL d   1      15.058  14.106  -1.868  0.00  0.00     0.099 A 
ATOM     24  N   UNL d   1      14.736  14.395  -1.167  0.00  0.00    -0.242 NA
ATOM     25  C   UNL d   1      14.330  15.113  -1.179  0.00  0.00     0.099 A 
ATOM     26  C   UNL d   1      14.246  15.541  -1.891  0.00  0.00     0.021 A 
ENDBRANCH   4  21
BRANCH   1  27
ATOM     27  C   UNL d   1      13.697  14.587  -3.837  0.00  0.00     0.281 C 
ATOM     28  N   UNL d   1      13.790  14.003  -4.446  0.00  0.00    -0.208 NA
ATOM     29  O   UNL d   1      13.247  14.412  -3.138  0.00  0.00    -0.265 OA
BRANCH  28  30
ATOM     30  C   UNL d   1      13.458  13.279  -4.375  0.00  0.00     0.085 A 
ATOM     31  C   UNL d   1      13.401  12.785  -5.008  0.00  0.00     0.019 A 
ATOM     32  C   UNL d   1      13.057  12.027  -4.953  0.00  0.00     0.002 A 
ATOM     33  C   UNL d   1      12.769  11.780  -4.230  0.00  0.00     0.000 A 
ATOM     34  C   UNL d   1      12.825  12.282  -3.580  0.00  0.00     0.002 A 
ATOM     35  C   UNL d   1      13.166  13.031  -3.638  0.00  0.00     0.019 A 
ENDBRANCH  28  30
ENDBRANCH   1  27
TORSDOF 8
ENDMDL
MODEL 2
REMARK VINA RESULT:      83.4      1.609      5.642
REMARK  8 active torsions:
REMARK  status: ('A' for Active; 'I' for Inactive)
REMARK    1  A    between atoms: C_6  and  C_1 
REMARK    2  A    between atoms: C_8  and  C_2 
REMARK    3  A    between atoms: S_10  and  C_3 
REMARK    4  A    between atoms: C_15  and  C_4 
REMARK       I    between atoms: N_9  and  C_6 
REMARK    5  A    between atoms: C_19  and  N_9 
REMARK    6  A    between atoms: C_18  and  S_10 
REMARK    7  A    between atoms: C_12  and  C_18 
REMARK       I    between atoms: N_14  and  C_12 
REMARK    8  A    between atoms: C_21  and  N_14 
ROOT
ATOM      1  C   UNL d   1      14.793  16.641  -3.536  0.00  0.00     0.076 A 
ATOM      2  C   UNL d   1      14.351  15.339  -3.176  0.00  0.00     0.045 A 
ATOM      3  C   UNL d   1      14.495  15.514  -2.371  0.00  0.00     0.112 A 
ATOM      4  C   UNL d   1      14.502  15.905  -3.750  0.00  0.00     0.010 A 
ATOM      5  C   UNL d   1      14.937  16.815  -2.731  0.00  0.00     0.087 A 
ATOM      6  N   UNL d   1      14.787  16.251  -2.153  0.00  0.00    -0.239 NA
ATOM      7  C   UNL d   1      15.240  17.581  -2.503  0.00  0.00     0.021 C 
ENDROOT
BRANCH   3   8
ATOM      8  S   UNL d   1      14.340  14.928  -1.767  0.00  0.00    -0.062 SA
BRANCH   8   9
ATOM      9  C   UNL d   1      14.982  14.578  -1.337  0.00  0.00     0.099 C 
BRANCH   9  10
ATOM     10  C   UNL d   1      15.036  14.667  -0.507  0.00  0.00     0.286 C 
ATOM     11  N   UNL d   1      14.987  14.009  -0.019  0.00  0.00    -0.208 NA
ATOM     12  O   UNL d   1      15.138  15.427  -0.174  0.00  0.00    -0.265 OA
BRANCH  11  13
ATOM     13  C   UNL d   1      14.887  13.267  -0.345  0.00  0.00     0.085 A 
ATOM     14  C   UNL d   1      14.208  12.861  -0.189  0.00  0.00     0.019 A 
ATOM     15  C   UNL d   1      14.103  12.114  -0.515  0.00  0.00     0.002 A 
ATOM     16  C   UNL d   1      14.686  11.781  -0.996  0.00  0.00     0.000 A 
ATOM     17  C   UNL d   1      15.364  12.203  -1.143  0.00  0.00     0.002 A 
ATOM     18  C   UNL d   1      15.465  12.946  -0.817  0.00  0.00     0.019 A 
ENDBRANCH  11  13
ENDBRANCH   9  10
ENDBRANCH   8   9
ENDBRANCH   3   8
BRANCH   2  19
ATOM     19  C   UNL d   1      14.048  14.573  -3.404  0.00  0.00     0.124 C 
ATOM     20  N   UNL d   1      13.232  14.380  -3.270  0.00  0.00    -0.146 N 
ENDBRANCH   2  19
BRANCH   4  21
ATOM     21  C   UNL d   1      14.359  15.731  -4.554  0.00  0.00     0.003 A 
ATOM     22  C   UNL d   1      14.984  15.555  -5.057  0.00  0.00     0.021 A 
ATOM     23  C   UNL d   1      14.841  15.381  -5.861  0.00  0.00     0.099 A 
ATOM     24  N   UNL d   1      14.073  15.384  -6.159  0.00  0.00    -0.242 NA
ATOM     25  C   UNL d   1      13.447  15.561  -5.652  0.00  0.00     0.099 A 
ATOM     26  C   UNL d   1      13.590  15.735  -4.848  0.00  0.00     0.021 A 
ENDBRANCH   4  21
BRANCH   1  27
ATOM     27  C   UNL d   1      14.949  17.227  -4.139  0.00  0.00     0.281 C 
ATOM     28  N   UNL d   1      14.428  17.891  -4.233  0.00  0.00    -0.208 NA
ATOM     29  O   UNL d   1      15.627  17.137  -4.642  0.00  0.00    -0.265 OA
BRANCH  28  30
ATOM     30  C   UNL d   1      14.565  18.444  -4.795  0.00  0.00     0.085 A 
ATOM     31  C   UNL d   1      15.306  18.731  -4.923  0.00  0.00     0.019 A 
ATOM     32  C   UNL d   1      15.466  19.307  -5.503  0.00  0.00     0.002 A 
ATOM     33  C   UNL d   1      14.848  19.590  -5.956  0.00  0.00     0.000 A 
ATOM     34  C   UNL d   1      14.088  19.300  -5.828  0.00  0.00     0.002 A 
ATOM     35  C   UNL d   1      13.932  18.729  -5.253  0.00  0.00     0.019 A 
ENDBRANCH  28  30
ENDBRANCH   1  27
TORSDOF 8
ENDMDL
MODEL 3
REMARK VINA RESULT:      84.3      1.371      1.864
REMARK  8 active torsions:
REMARK  status: ('A' for Active; 'I' for Inactive)
REMARK    1  A    between atoms: C_6  and  C_1 
REMARK    2  A    between atoms: C_8  and  C_2 
REMARK    3  A    between atoms: S_10  and  C_3 
REMARK    4  A    between atoms: C_15  and  C_4 
REMARK       I    between atoms: N_9  and  C_6 
REMARK    5  A    between atoms: C_19  and  N_9 
REMARK    6  A    between atoms: C_18  and  S_10 
REMARK    7  A    between atoms: C_12  and  C_18 
REMARK       I    between atoms: N_14  and  C_12 
REMARK    8  A    between atoms: C_21  and  N_14 
ROOT
ATOM      1  C   UNL d   1      14.298  15.066  -3.327  0.00  0.00     0.076 A 
ATOM      2  C   UNL d   1      14.743  16.363  -3.699  0.00  0.00     0.045 A 
ATOM      3  C   UNL d   1      14.533  16.207  -4.493  0.00  0.00     0.112 A 
ATOM      4  C   UNL d   1      14.623  15.791  -3.124  0.00  0.00     0.010 A 
ATOM      5  C   UNL d   1      14.088  14.910  -4.121  0.00  0.00     0.087 A 
ATOM      6  N   UNL d   1      14.207  15.481  -4.699  0.00  0.00    -0.239 NA
ATOM      7  C   UNL d   1      13.749  14.156  -4.338  0.00  0.00     0.021 C 
ENDROOT
BRANCH   3   8
ATOM      8  S   UNL d   1      14.656  16.800  -5.097  0.00  0.00    -0.062 SA
BRANCH   8   9
ATOM      9  C   UNL d   1      14.053  17.375  -5.260  0.00  0.00     0.099 C 
BRANCH   9  10
ATOM     10  C   UNL d   1      13.650  17.371  -5.992  0.00  0.00     0.286 C 
ATOM     11  N   UNL d   1      13.512  18.076  -6.389  0.00  0.00    -0.208 NA
ATOM     12  O   UNL d   1      13.387  16.649  -6.321  0.00  0.00    -0.265 OA
BRANCH  11  13
ATOM     13  C   UNL d   1      13.769  18.782  -6.067  0.00  0.00     0.085 A 
ATOM     14  C   UNL d   1      14.486  19.075  -6.293  0.00  0.00     0.019 A 
ATOM     15  C   UNL d   1      14.748  19.785  -5.971  0.00  0.00     0.002 A 
ATOM     16  C   UNL d   1      14.283  20.194  -5.424  0.00  0.00     0.000 A 
ATOM     17  C   UNL d   1      13.564  19.884  -5.208  0.00  0.00     0.002 A 
ATOM     18  C   UNL d   1      13.307  19.178  -5.530  0.00  0.00     0.019 A 
ENDBRANCH  11  13
ENDBRANCH   9  10
ENDBRANCH   8   9
ENDBRANCH   3   8
BRANCH   2  19
ATOM     19  C   UNL d   1      15.082  17.118  -3.482  0.00  0.00     0.124 C 
ATOM     20  N   UNL d   1      15.850  17.338  -3.769  0.00  0.00    -0.146 N 
ENDBRANCH   2  19
BRANCH   4  21
ATOM     21  C   UNL d   1      14.832  15.946  -2.331  0.00  0.00     0.003 A 
ATOM     22  C   UNL d   1      14.342  16.405  -1.856  0.00  0.00     0.021 A 
ATOM     23  C   UNL d   1      14.552  16.561  -1.063  0.00  0.00     0.099 A 
ATOM     24  N   UNL d   1      15.250  16.258  -0.748  0.00  0.00    -0.242 NA
ATOM     25  C   UNL d   1      15.739  15.798  -1.226  0.00  0.00     0.099 A 
ATOM     26  C   UNL d   1      15.530  15.642  -2.020  0.00  0.00     0.021 A 
ENDBRANCH   4  21
BRANCH   1  27
ATOM     27  C   UNL d   1      14.175  14.473  -2.723  0.00  0.00     0.281 C 
ATOM     28  N   UNL d   1      14.424  13.672  -2.855  0.00  0.00    -0.208 NA
ATOM     29  O   UNL d   1      13.803  14.693  -1.992  0.00  0.00    -0.265 OA
BRANCH  28  30
ATOM     30  C   UNL d   1      14.313  13.110  -2.297  0.00  0.00     0.085 A 
ATOM     31  C   UNL d   1      13.770  12.525  -2.398  0.00  0.00     0.019 A 
ATOM     32  C   UNL d   1      13.642  11.932  -1.827  0.00  0.00     0.002 A 
ATOM     33  C   UNL d   1      14.085  11.946  -1.141  0.00  0.00     0.000 A 
ATOM     34  C   UNL d   1      14.642  12.543  -1.033  0.00  0.00     0.002 A 
ATOM     35  C   UNL d   1      14.767  13.129  -1.600  0.00  0.00     0.019 A 
ENDBRANCH  28  30
ENDBRANCH   1  27
TORSDOF 8
ENDMDL
MODEL 4
REMARK VINA RESULT:      85.4      1.413      5.421
REMARK  8 active torsions:
REMARK  status: ('A' for Active; 'I' for Inactive)
REMARK    1  A    between atoms: C_6  and  C_1 
REMARK    2  A    between atoms: C_8  and  C_2 
REMARK    3  A    between atoms: S_10  and  C_3 
REMARK    4  A    between atoms: C_15  and  C_4 
REMARK       I    between atoms: N_9  and  C_6 
REMARK    5  A    between atoms: C_19  and  N_9 
REMARK    6  A    between atoms: C_18  and  S_10 
REMARK    7  A    between atoms: C_12  and  C_18 
REMARK       I    between atoms: N_14  and  C_12 
REMARK    8  A    between atoms: C_21  and  N_14 
ROOT
ATOM      1  C   UNL d   1      14.184  16.070  -4.480  0.00  0.00     0.076 A 
ATOM      2  C   UNL d   1      13.882  15.133  -3.455  0.00  0.00     0.045 A 
ATOM      3  C   UNL d   1      13.501  14.643  -4.015  0.00  0.00     0.112 A 
ATOM      4  C   UNL d   1      14.220  15.841  -3.693  0.00  0.00     0.010 A 
ATOM      5  C   UNL d   1      13.803  15.580  -5.040  0.00  0.00     0.087 A 
ATOM      6  N   UNL d   1      13.464  14.870  -4.804  0.00  0.00    -0.239 NA
ATOM      7  C   UNL d   1      13.763  15.814  -5.861  0.00  0.00     0.021 C 
ENDROOT
BRANCH   3   8
ATOM      8  S   UNL d   1      13.147  13.903  -3.772  0.00  0.00    -0.062 SA
BRANCH   8   9
ATOM      9  C   UNL d   1      13.627  13.209  -3.686  0.00  0.00     0.099 C 
BRANCH   9  10
ATOM     10  C   UNL d   1      13.403  12.490  -4.049  0.00  0.00     0.286 C 
ATOM     11  N   UNL d   1      13.458  11.785  -3.633  0.00  0.00    -0.208 NA
ATOM     12  O   UNL d   1      13.122  12.489  -4.836  0.00  0.00    -0.265 OA
BRANCH  11  13
ATOM     13  C   UNL d   1      13.733  11.786  -2.864  0.00  0.00     0.085 A 
ATOM     14  C   UNL d   1      14.529  11.786  -2.734  0.00  0.00     0.019 A 
ATOM     15  C   UNL d   1      14.809  11.787  -1.961  0.00  0.00     0.002 A 
ATOM     16  C   UNL d   1      14.283  11.788  -1.324  0.00  0.00     0.000 A 
ATOM     17  C   UNL d   1      13.484  11.787  -1.473  0.00  0.00     0.002 A 
ATOM     18  C   UNL d   1      13.209  11.786  -2.242  0.00  0.00     0.019 A 
ENDBRANCH  11  13
ENDBRANCH   9  10
ENDBRANCH   8   9
ENDBRANCH   3   8
BRANCH   2  19
ATOM     19  C   UNL d   1      13.922  14.899  -2.633  0.00  0.00     0.124 C 
ATOM     20  N   UNL d   1      14.673  14.848  -2.240  0.00  0.00    -0.146 N 
ENDBRANCH   2  19
BRANCH   4  21
ATOM     21  C   UNL d   1      14.601  16.330  -3.134  0.00  0.00     0.003 A 
ATOM     22  C   UNL d   1      14.193  16.597  -2.472  0.00  0.00     0.021 A 
ATOM     23  C   UNL d   1      14.574  17.086  -1.912  0.00  0.00     0.099 A 
ATOM     24  N   UNL d   1      15.361  17.306  -2.017  0.00  0.00    -0.242 NA
ATOM     25  C   UNL d   1      15.768  17.037  -2.682  0.00  0.00     0.099 A 
ATOM     26  C   UNL d   1      15.387  16.548  -3.242  0.00  0.00     0.021 A 
ENDBRANCH   4  21
BRANCH   1  27
ATOM     27  C   UNL d   1      14.538  16.809  -4.722  0.00  0.00     0.281 C 
ATOM     28  N   UNL d   1      14.048  17.456  -4.970  0.00  0.00    -0.208 NA
ATOM     29  O   UNL d   1      15.384  16.890  -4.713  0.00  0.00    -0.265 OA
BRANCH  28  30
ATOM     30  C   UNL d   1      14.369  18.152  -5.199  0.00  0.00     0.085 A 
ATOM     31  C   UNL d   1      13.909  18.801  -5.322  0.00  0.00     0.019 A 
ATOM     32  C   UNL d   1      14.227  19.534  -5.561  0.00  0.00     0.002 A 
ATOM     33  C   UNL d   1      15.034  19.593  -5.673  0.00  0.00     0.000 A 
ATOM     34  C   UNL d   1      15.508  18.931  -5.548  0.00  0.00     0.002 A 
ATOM     35  C   UNL d   1      15.191  18.207  -5.312  0.00  0.00     0.019 A 
ENDBRANCH  28  30
ENDBRANCH   1  27
TORSDOF 8
ENDMDL
