MODEL 1
REMARK VINA RESULT:      40.6      0.000      0.000
REMARK  6 active torsions:
REMARK  status: ('A' for Active; 'I' for Inactive)
REMARK    1  A    between atoms: C_13  and  C_3 
REMARK    2  A    between atoms: N_16  and  C_4 
REMARK    3  A    between atoms: N_11  and  C_17 
REMARK    4  A    between atoms: C_20  and  N_16 
REMARK    5  A    between atoms: C_17  and  C_18 
REMARK    6  A    between atoms: C_18  and  C_20 
ROOT
ATOM      1  C   UNL d   1     -51.202  25.533  33.374  0.00  0.00     0.167 A 
ATOM      2  N   UNL d   1     -50.924  26.308  33.404  0.00  0.00    -0.195 N 
ATOM      3  C   UNL d   1     -52.020  25.558  33.383  0.00  0.00     0.057 A 
ATOM      4  C   UNL d   1     -50.114  26.457  33.402  0.00  0.00     0.167 A 
ATOM      5  N   UNL d   1     -51.573  26.806  33.431  0.00  0.00    -0.161 NA
ATOM      6  N   UNL d   1     -50.669  24.906  33.342  0.00  0.00    -0.227 NA
ATOM      7  C   UNL d   1     -49.580  25.824  33.370  0.00  0.00     0.058 A 
ATOM      8  C   UNL d   1     -52.244  26.352  33.419  0.00  0.00     0.124 A 
ATOM      9  C   UNL d   1     -49.855  25.057  33.340  0.00  0.00     0.086 A 
ATOM     10  C   UNL d   1     -49.304  24.442  33.309  0.00  0.00     0.021 C 
ENDROOT
BRANCH   4  11
ATOM     11  N   UNL d   1     -49.837  27.232  33.432  0.00  0.00    -0.225 NA
BRANCH  11  12
ATOM     12  C   UNL d   1     -49.682  27.586  34.159  0.00  0.00     0.102 C 
BRANCH  12  13
ATOM     13  C   UNL d   1     -49.002  28.057  34.257  0.00  0.00     0.040 C 
BRANCH  13  14
ATOM     14  C   UNL d   1     -48.626  28.086  34.986  0.00  0.00     0.083 C 
BRANCH  14  15
ATOM     15  N   UNL d   1     -48.096  28.701  35.153  0.00  0.00    -0.285 N 
ATOM     16  C   UNL d   1     -47.273  28.780  35.045  0.00  0.00     0.183 A 
ATOM     17  N   UNL d   1     -47.053  29.514  35.314  0.00  0.00    -0.222 NA
ATOM     18  C   UNL d   1     -47.718  29.904  35.592  0.00  0.00     0.120 A 
ATOM     19  C   UNL d   1     -48.365  29.402  35.493  0.00  0.00     0.102 A 
ENDBRANCH  14  15
ENDBRANCH  13  14
ENDBRANCH  12  13
ENDBRANCH  11  12
ENDBRANCH   4  11
BRANCH   3  20
ATOM     20  C   UNL d   1     -52.464  24.861  33.358  0.00  0.00     0.004 A 
ATOM     21  C   UNL d   1     -52.073  24.132  33.335  0.00  0.00     0.000 A 
ATOM     22  C   UNL d   1     -52.508  23.436  33.309  0.00  0.00     0.000 A 
ATOM     23  C   UNL d   1     -53.340  23.463  33.307  0.00  0.00     0.000 A 
ATOM     24  C   UNL d   1     -53.720  24.193  33.330  0.00  0.00     0.000 A 
ATOM     25  C   UNL d   1     -53.281  24.891  33.355  0.00  0.00     0.000 A 
ENDBRANCH   3  20
TORSDOF 6
ENDMDL
MODEL 2
REMARK VINA RESULT:      41.9      0.703      1.573
REMARK  6 active torsions:
REMARK  status: ('A' for Active; 'I' for Inactive)
REMARK    1  A    between atoms: C_13  and  C_3 
REMARK    2  A    between atoms: N_16  and  C_4 
REMARK    3  A    between atoms: N_11  and  C_17 
REMARK    4  A    between atoms: C_20  and  N_16 
REMARK    5  A    between atoms: C_17  and  C_18 
REMARK    6  A    between atoms: C_18  and  C_20 
ROOT
ATOM      1  C   UNL d   1     -51.416  25.678  33.346  0.00  0.00     0.167 A 
ATOM      2  N   UNL d   1     -50.634  25.936  33.363  0.00  0.00    -0.195 N 
ATOM      3  C   UNL d   1     -51.410  24.859  33.350  0.00  0.00     0.057 A 
ATOM      4  C   UNL d   1     -50.467  26.743  33.363  0.00  0.00     0.167 A 
ATOM      5  N   UNL d   1     -50.152  25.275  33.377  0.00  0.00    -0.161 NA
ATOM      6  N   UNL d   1     -52.031  26.226  33.329  0.00  0.00    -0.227 NA
ATOM      7  C   UNL d   1     -51.087  27.292  33.347  0.00  0.00     0.058 A 
ATOM      8  C   UNL d   1     -50.622  24.615  33.369  0.00  0.00     0.124 A 
ATOM      9  C   UNL d   1     -51.861  27.036  33.330  0.00  0.00     0.086 A 
ATOM     10  C   UNL d   1     -52.462  27.602  33.313  0.00  0.00     0.021 C 
ENDROOT
BRANCH   4  11
ATOM     11  N   UNL d   1     -49.684  27.001  33.381  0.00  0.00    -0.225 NA
BRANCH  11  12
ATOM     12  C   UNL d   1     -49.378  27.342  34.065  0.00  0.00     0.102 C 
BRANCH  12  13
ATOM     13  C   UNL d   1     -48.700  27.824  34.023  0.00  0.00     0.040 C 
BRANCH  13  14
ATOM     14  C   UNL d   1     -48.745  28.612  34.248  0.00  0.00     0.083 C 
BRANCH  14  15
ATOM     15  N   UNL d   1     -48.414  28.854  34.968  0.00  0.00    -0.285 N 
ATOM     16  C   UNL d   1     -48.528  28.603  35.754  0.00  0.00     0.183 A 
ATOM     17  N   UNL d   1     -48.047  29.047  36.234  0.00  0.00    -0.222 NA
ATOM     18  C   UNL d   1     -47.628  29.578  35.770  0.00  0.00     0.120 A 
ATOM     19  C   UNL d   1     -47.854  29.460  34.985  0.00  0.00     0.102 A 
ENDBRANCH  14  15
ENDBRANCH  13  14
ENDBRANCH  12  13
ENDBRANCH  11  12
ENDBRANCH   4  11
BRANCH   3  20
ATOM     20  C   UNL d   1     -52.119  24.432  33.335  0.00  0.00     0.004 A 
ATOM     21  C   UNL d   1     -52.838  24.840  33.323  0.00  0.00     0.000 A 
ATOM     22  C   UNL d   1     -53.545  24.423  33.308  0.00  0.00     0.000 A 
ATOM     23  C   UNL d   1     -53.538  23.590  33.306  0.00  0.00     0.000 A 
ATOM     24  C   UNL d   1     -52.817  23.192  33.318  0.00  0.00     0.000 A 
ATOM     25  C   UNL d   1     -52.108  23.615  33.333  0.00  0.00     0.000 A 
ENDBRANCH   3  20
TORSDOF 6
ENDMDL
