MODEL 1
REMARK VINA RESULT:      -7.8      0.000      0.000
REMARK  3 active torsions:
REMARK  status: ('A' for Active; 'I' for Inactive)
REMARK    1  A    between atoms: C_10  and  N_2 
REMARK       I    between atoms: N_3  and  C_6 
REMARK    2  A    between atoms: C_6  and  C_11 
REMARK    3  A    between atoms: C_11  and  C_10 
ROOT
ATOM      1  N   UNL d   1      50.227  34.476  52.383  0.00  0.00    -0.275 N 
ATOM      2  C   UNL d   1      49.973  34.708  53.132  0.00  0.00     0.067 A 
ATOM      3  C   UNL d   1      50.970  34.185  52.192  0.00  0.00     0.266 C 
ATOM      4  C   UNL d   1      49.592  34.590  51.864  0.00  0.00     0.067 A 
ATOM      5  C   UNL d   1      48.962  34.888  52.287  0.00  0.00     0.018 A 
ATOM      6  C   UNL d   1      49.197  34.963  53.079  0.00  0.00     0.019 A 
ATOM      7  O   UNL d   1      51.140  33.974  51.412  0.00  0.00    -0.267 OA
ATOM      8  C   UNL d   1      50.434  34.687  53.830  0.00  0.00     0.019 C 
ATOM      9  C   UNL d   1      49.519  34.457  51.051  0.00  0.00     0.018 A 
ATOM     10  C   UNL d   1      48.252  35.060  51.925  0.00  0.00     0.002 A 
ATOM     11  C   UNL d   1      48.813  34.624  50.672  0.00  0.00     0.002 A 
ATOM     12  C   UNL d   1      48.168  34.928  51.102  0.00  0.00     0.000 A 
ENDROOT
BRANCH   3  13
ATOM     13  C   UNL d   1      51.549  34.101  52.773  0.00  0.00     0.080 C 
BRANCH  13  14
ATOM     14  C   UNL d   1      52.316  33.886  52.572  0.00  0.00     0.088 C 
BRANCH  14  15
ATOM     15  N   UNL d   1      52.841  33.628  53.151  0.00  0.00    -0.268 N 
ATOM     16  C   UNL d   1      53.258  34.106  53.675  0.00  0.00     0.296 A 
ATOM     17  S   UNL d   1      53.727  33.580  54.163  0.00  0.00    -0.025 SA
ATOM     18  O   UNL d   1      53.222  34.929  53.711  0.00  0.00    -0.259 OA
ATOM     19  C   UNL d   1      53.583  32.837  53.927  0.00  0.00     0.050 A 
ATOM     20  C   UNL d   1      53.886  32.118  54.207  0.00  0.00     0.008 A 
ATOM     21  C   UNL d   1      53.041  32.842  53.305  0.00  0.00     0.073 A 
ATOM     22  C   UNL d   1      53.645  31.402  53.862  0.00  0.00     0.001 A 
ATOM     23  C   UNL d   1      53.102  31.419  53.240  0.00  0.00     0.002 A 
ATOM     24  C   UNL d   1      52.802  32.139  52.963  0.00  0.00     0.018 A 
ENDBRANCH  14  15
ENDBRANCH  13  14
ENDBRANCH   3  13
TORSDOF 3
ENDMDL
MODEL 2
REMARK VINA RESULT:      -7.4      2.523      3.851
REMARK  3 active torsions:
REMARK  status: ('A' for Active; 'I' for Inactive)
REMARK    1  A    between atoms: C_10  and  N_2 
REMARK       I    between atoms: N_3  and  C_6 
REMARK    2  A    between atoms: C_6  and  C_11 
REMARK    3  A    between atoms: C_11  and  C_10 
ROOT
ATOM      1  N   UNL d   1      52.888  33.470  53.822  0.00  0.00    -0.275 N 
ATOM      2  C   UNL d   1      52.144  33.498  53.469  0.00  0.00     0.067 A 
ATOM      3  C   UNL d   1      53.375  32.811  53.874  0.00  0.00     0.266 C 
ATOM      4  C   UNL d   1      53.049  34.228  54.113  0.00  0.00     0.067 A 
ATOM      5  C   UNL d   1      52.415  34.711  53.941  0.00  0.00     0.018 A 
ATOM      6  C   UNL d   1      51.848  34.258  53.539  0.00  0.00     0.019 A 
ATOM      7  O   UNL d   1      54.109  32.872  54.247  0.00  0.00    -0.267 OA
ATOM      8  C   UNL d   1      51.756  32.855  53.101  0.00  0.00     0.019 C 
ATOM      9  C   UNL d   1      53.704  34.532  54.517  0.00  0.00     0.018 A 
ATOM     10  C   UNL d   1      52.410  35.497  54.159  0.00  0.00     0.002 A 
ATOM     11  C   UNL d   1      53.715  35.319  54.743  0.00  0.00     0.002 A 
ATOM     12  C   UNL d   1      53.069  35.814  54.568  0.00  0.00     0.000 A 
ENDROOT
BRANCH   3  13
ATOM     13  C   UNL d   1      53.137  32.089  53.556  0.00  0.00     0.080 C 
BRANCH  13  14
ATOM     14  C   UNL d   1      53.657  31.452  53.531  0.00  0.00     0.088 C 
BRANCH  14  15
ATOM     15  N   UNL d   1      53.372  30.687  53.424  0.00  0.00    -0.268 N 
ATOM     16  C   UNL d   1      53.063  30.377  52.728  0.00  0.00     0.296 A 
ATOM     17  S   UNL d   1      52.844  29.565  52.899  0.00  0.00    -0.025 SA
ATOM     18  O   UNL d   1      52.985  30.780  52.012  0.00  0.00    -0.259 OA
ATOM     19  C   UNL d   1      53.021  29.422  53.659  0.00  0.00     0.050 A 
ATOM     20  C   UNL d   1      52.926  28.732  54.109  0.00  0.00     0.008 A 
ATOM     21  C   UNL d   1      53.347  30.098  54.002  0.00  0.00     0.073 A 
ATOM     22  C   UNL d   1      53.157  28.721  54.906  0.00  0.00     0.001 A 
ATOM     23  C   UNL d   1      53.482  29.403  55.239  0.00  0.00     0.002 A 
ATOM     24  C   UNL d   1      53.576  30.089  54.786  0.00  0.00     0.018 A 
ENDBRANCH  14  15
ENDBRANCH  13  14
ENDBRANCH   3  13
TORSDOF 3
ENDMDL
MODEL 3
REMARK VINA RESULT:      -7.3      0.998      1.548
REMARK  3 active torsions:
REMARK  status: ('A' for Active; 'I' for Inactive)
REMARK    1  A    between atoms: C_10  and  N_2 
REMARK       I    between atoms: N_3  and  C_6 
REMARK    2  A    between atoms: C_6  and  C_11 
REMARK    3  A    between atoms: C_11  and  C_10 
ROOT
ATOM      1  N   UNL d   1      49.414  34.813  52.298  0.00  0.00    -0.275 N 
ATOM      2  C   UNL d   1      49.513  34.524  51.533  0.00  0.00     0.067 A 
ATOM      3  C   UNL d   1      49.939  34.721  52.922  0.00  0.00     0.266 C 
ATOM      4  C   UNL d   1      48.688  35.211  52.317  0.00  0.00     0.067 A 
ATOM      5  C   UNL d   1      48.349  35.166  51.577  0.00  0.00     0.018 A 
ATOM      6  C   UNL d   1      48.861  34.738  51.085  0.00  0.00     0.019 A 
ATOM      7  O   UNL d   1      49.760  35.045  53.660  0.00  0.00    -0.267 OA
ATOM      8  C   UNL d   1      50.170  34.084  51.259  0.00  0.00     0.019 C 
ATOM      9  C   UNL d   1      48.298  35.610  52.928  0.00  0.00     0.018 A 
ATOM     10  C   UNL d   1      47.625  35.510  51.421  0.00  0.00     0.002 A 
ATOM     11  C   UNL d   1      47.571  35.960  52.789  0.00  0.00     0.002 A 
ATOM     12  C   UNL d   1      47.223  35.916  52.033  0.00  0.00     0.000 A 
ENDROOT
BRANCH   3  13
ATOM     13  C   UNL d   1      50.645  34.307  52.818  0.00  0.00     0.080 C 
BRANCH  13  14
ATOM     14  C   UNL d   1      51.064  34.025  53.466  0.00  0.00     0.088 C 
BRANCH  14  15
ATOM     15  N   UNL d   1      51.865  33.848  53.398  0.00  0.00    -0.268 N 
ATOM     16  C   UNL d   1      52.483  34.390  53.393  0.00  0.00     0.296 A 
ATOM     17  S   UNL d   1      53.205  33.935  53.311  0.00  0.00    -0.025 SA
ATOM     18  O   UNL d   1      52.407  35.209  53.454  0.00  0.00    -0.259 OA
ATOM     19  C   UNL d   1      53.005  33.169  53.272  0.00  0.00     0.050 A 
ATOM     20  C   UNL d   1      53.482  32.495  53.193  0.00  0.00     0.008 A 
ATOM     21  C   UNL d   1      52.186  33.090  53.324  0.00  0.00     0.073 A 
ATOM     22  C   UNL d   1      53.135  31.742  53.165  0.00  0.00     0.001 A 
ATOM     23  C   UNL d   1      52.315  31.675  53.217  0.00  0.00     0.002 A 
ATOM     24  C   UNL d   1      51.842  32.350  53.296  0.00  0.00     0.018 A 
ENDBRANCH  14  15
ENDBRANCH  13  14
ENDBRANCH   3  13
TORSDOF 3
ENDMDL
MODEL 4
REMARK VINA RESULT:      -7.2      1.787      5.061
REMARK  3 active torsions:
REMARK  status: ('A' for Active; 'I' for Inactive)
REMARK    1  A    between atoms: C_10  and  N_2 
REMARK       I    between atoms: N_3  and  C_6 
REMARK    2  A    between atoms: C_6  and  C_11 
REMARK    3  A    between atoms: C_11  and  C_10 
ROOT
ATOM      1  N   UNL d   1      53.192  30.663  53.920  0.00  0.00    -0.275 N 
ATOM      2  C   UNL d   1      53.054  30.481  53.128  0.00  0.00     0.067 A 
ATOM      3  C   UNL d   1      53.209  31.414  54.249  0.00  0.00     0.266 C 
ATOM      4  C   UNL d   1      53.310  29.946  54.317  0.00  0.00     0.067 A 
ATOM      5  C   UNL d   1      53.245  29.338  53.779  0.00  0.00     0.018 A 
ATOM      6  C   UNL d   1      53.086  29.668  53.035  0.00  0.00     0.019 A 
ATOM      7  O   UNL d   1      53.355  31.506  55.056  0.00  0.00    -0.267 OA
ATOM      8  C   UNL d   1      52.907  31.037  52.520  0.00  0.00     0.019 C 
ATOM      9  C   UNL d   1      53.469  29.780  55.113  0.00  0.00     0.018 A 
ATOM     10  C   UNL d   1      53.335  28.559  54.006  0.00  0.00     0.002 A 
ATOM     11  C   UNL d   1      53.562  29.005  55.357  0.00  0.00     0.002 A 
ATOM     12  C   UNL d   1      53.496  28.381  54.809  0.00  0.00     0.000 A 
ENDROOT
BRANCH   3  13
ATOM     13  C   UNL d   1      53.081  32.080  53.779  0.00  0.00     0.080 C 
BRANCH  13  14
ATOM     14  C   UNL d   1      52.863  32.796  54.119  0.00  0.00     0.088 C 
BRANCH  14  15
ATOM     15  N   UNL d   1      52.709  33.451  53.645  0.00  0.00    -0.268 N 
ATOM     16  C   UNL d   1      53.266  33.980  53.353  0.00  0.00     0.296 A 
ATOM     17  S   UNL d   1      52.833  34.561  52.894  0.00  0.00    -0.025 SA
ATOM     18  O   UNL d   1      54.080  33.947  53.484  0.00  0.00    -0.259 OA
ATOM     19  C   UNL d   1      52.064  34.369  52.924  0.00  0.00     0.050 A 
ATOM     20  C   UNL d   1      51.407  34.739  52.581  0.00  0.00     0.008 A 
ATOM     21  C   UNL d   1      51.963  33.690  53.381  0.00  0.00     0.073 A 
ATOM     22  C   UNL d   1      50.647  34.427  52.697  0.00  0.00     0.001 A 
ATOM     23  C   UNL d   1      50.557  33.747  53.155  0.00  0.00     0.002 A 
ATOM     24  C   UNL d   1      51.217  33.380  53.497  0.00  0.00     0.018 A 
ENDBRANCH  14  15
ENDBRANCH  13  14
ENDBRANCH   3  13
TORSDOF 3
ENDMDL
MODEL 5
REMARK VINA RESULT:      -6.9      1.540      4.783
REMARK  3 active torsions:
REMARK  status: ('A' for Active; 'I' for Inactive)
REMARK    1  A    between atoms: C_10  and  N_2 
REMARK       I    between atoms: N_3  and  C_6 
REMARK    2  A    between atoms: C_6  and  C_11 
REMARK    3  A    between atoms: C_11  and  C_10 
ROOT
ATOM      1  N   UNL d   1      52.114  33.695  53.220  0.00  0.00    -0.275 N 
ATOM      2  C   UNL d   1      52.467  34.438  53.263  0.00  0.00     0.067 A 
ATOM      3  C   UNL d   1      51.329  33.542  53.033  0.00  0.00     0.266 C 
ATOM      4  C   UNL d   1      52.697  33.136  53.401  0.00  0.00     0.067 A 
ATOM      5  C   UNL d   1      53.395  33.530  53.551  0.00  0.00     0.018 A 
ATOM      6  C   UNL d   1      53.255  34.343  53.466  0.00  0.00     0.019 A 
ATOM      7  O   UNL d   1      51.057  32.763  53.013  0.00  0.00    -0.267 OA
ATOM      8  C   UNL d   1      52.084  35.168  53.122  0.00  0.00     0.019 C 
ATOM      9  C   UNL d   1      52.670  32.310  53.445  0.00  0.00     0.018 A 
ATOM     10  C   UNL d   1      54.076  33.125  53.746  0.00  0.00     0.002 A 
ATOM     11  C   UNL d   1      53.344  31.889  53.639  0.00  0.00     0.002 A 
ATOM     12  C   UNL d   1      54.058  32.290  53.794  0.00  0.00     0.000 A 
ENDROOT
BRANCH   3  13
ATOM     13  C   UNL d   1      50.810  34.160  52.865  0.00  0.00     0.080 C 
BRANCH  13  14
ATOM     14  C   UNL d   1      49.997  34.046  52.906  0.00  0.00     0.088 C 
BRANCH  14  15
ATOM     15  N   UNL d   1      49.487  34.548  52.500  0.00  0.00    -0.268 N 
ATOM     16  C   UNL d   1      49.368  34.565  51.686  0.00  0.00     0.296 A 
ATOM     17  S   UNL d   1      48.788  35.178  51.537  0.00  0.00    -0.025 SA
ATOM     18  O   UNL d   1      49.741  34.079  51.133  0.00  0.00    -0.259 OA
ATOM     19  C   UNL d   1      48.587  35.496  52.235  0.00  0.00     0.050 A 
ATOM     20  C   UNL d   1      48.053  36.105  52.412  0.00  0.00     0.008 A 
ATOM     21  C   UNL d   1      49.004  35.124  52.842  0.00  0.00     0.073 A 
ATOM     22  C   UNL d   1      47.938  36.341  53.199  0.00  0.00     0.001 A 
ATOM     23  C   UNL d   1      48.360  35.963  53.798  0.00  0.00     0.002 A 
ATOM     24  C   UNL d   1      48.893  35.355  53.618  0.00  0.00     0.018 A 
ENDBRANCH  14  15
ENDBRANCH  13  14
ENDBRANCH   3  13
TORSDOF 3
ENDMDL
