MODEL 1
REMARK VINA RESULT:      -8.2      0.000      0.000
REMARK  1 active torsions:
REMARK  status: ('A' for Active; 'I' for Inactive)
REMARK    1  A    between atoms: C_12  and  C_1 
ROOT
ATOM      1  C   UNL d   1     -47.078  13.060  23.119  0.00  0.00     0.019 A 
ATOM      2  C   UNL d   1     -47.795  11.898  23.550  0.00  0.00     0.103 A 
ATOM      3  C   UNL d   1     -47.789  12.670  23.264  0.00  0.00     0.024 A 
ATOM      4  O   UNL d   1     -47.085  11.505  23.695  0.00  0.00    -0.273 OA
ATOM      5  C   UNL d   1     -46.370  11.895  23.550  0.00  0.00     0.300 A 
ATOM      6  C   UNL d   1     -46.364  12.668  23.264  0.00  0.00     0.070 A 
ATOM      7  C   UNL d   1     -48.503  13.059  23.121  0.00  0.00     0.002 A 
ATOM      8  C   UNL d   1     -48.515  11.512  23.694  0.00  0.00     0.025 A 
ATOM      9  C   UNL d   1     -49.218  12.681  23.262  0.00  0.00     0.000 A 
ATOM     10  O   UNL d   1     -45.652  11.502  23.695  0.00  0.00    -0.259 OA
ATOM     11  C   UNL d   1     -49.224  11.903  23.550  0.00  0.00     0.002 A 
ATOM     12  C   UNL d   1     -48.505  13.833  22.835  0.00  0.00     0.000 C 
ATOM     13  C   UNL d   1     -49.948  11.522  23.691  0.00  0.00     0.000 C 
ENDROOT
BRANCH   1  14
ATOM     14  C   UNL d   1     -47.080  13.834  22.833  0.00  0.00     0.069 C 
ATOM     15 CL   UNL d   1     -46.364  14.217  22.695  0.00  0.00    -0.082 Cl
ENDBRANCH   1  14
TORSDOF 1
ENDMDL
MODEL 2
REMARK VINA RESULT:      -8.2      1.395      2.367
REMARK  1 active torsions:
REMARK  status: ('A' for Active; 'I' for Inactive)
REMARK    1  A    between atoms: C_12  and  C_1 
ROOT
ATOM      1  C   UNL d   1     -47.366  12.297  23.327  0.00  0.00     0.019 A 
ATOM      2  C   UNL d   1     -48.521  13.111  23.092  0.00  0.00     0.103 A 
ATOM      3  C   UNL d   1     -47.703  13.018  23.113  0.00  0.00     0.024 A 
ATOM      4  O   UNL d   1     -49.014  12.480  23.286  0.00  0.00    -0.273 OA
ATOM      5  C   UNL d   1     -48.678  11.755  23.501  0.00  0.00     0.300 A 
ATOM      6  C   UNL d   1     -47.859  11.661  23.522  0.00  0.00     0.070 A 
ATOM      7  C   UNL d   1     -47.213  13.653  22.918  0.00  0.00     0.002 A 
ATOM      8  C   UNL d   1     -48.852  13.840  22.876  0.00  0.00     0.025 A 
ATOM      9  C   UNL d   1     -47.537  14.377  22.703  0.00  0.00     0.000 A 
ATOM     10  O   UNL d   1     -49.172  11.116  23.697  0.00  0.00    -0.259 OA
ATOM     11  C   UNL d   1     -48.360  14.471  22.682  0.00  0.00     0.002 A 
ATOM     12  C   UNL d   1     -46.393  13.567  22.936  0.00  0.00     0.000 C 
ATOM     13  C   UNL d   1     -48.686  15.203  22.465  0.00  0.00     0.000 C 
ENDROOT
BRANCH   1  14
ATOM     14  C   UNL d   1     -46.546  12.211  23.345  0.00  0.00     0.069 C 
ATOM     15 CL   UNL d   1     -46.216  11.538  23.688  0.00  0.00    -0.082 Cl
ENDBRANCH   1  14
TORSDOF 1
ENDMDL
MODEL 3
REMARK VINA RESULT:      -7.9      1.414      2.246
REMARK  1 active torsions:
REMARK  status: ('A' for Active; 'I' for Inactive)
REMARK    1  A    between atoms: C_12  and  C_1 
ROOT
ATOM      1  C   UNL d   1     -47.351  12.677  23.176  0.00  0.00     0.019 A 
ATOM      2  C   UNL d   1     -47.503  14.047  22.788  0.00  0.00     0.103 A 
ATOM      3  C   UNL d   1     -47.830  13.331  23.032  0.00  0.00     0.024 A 
ATOM      4  O   UNL d   1     -46.688  14.115  22.684  0.00  0.00    -0.273 OA
ATOM      5  C   UNL d   1     -46.205  13.459  22.829  0.00  0.00     0.300 A 
ATOM      6  C   UNL d   1     -46.533  12.743  23.074  0.00  0.00     0.070 A 
ATOM      7  C   UNL d   1     -48.647  13.268  23.134  0.00  0.00     0.002 A 
ATOM      8  C   UNL d   1     -47.992  14.701  22.644  0.00  0.00     0.025 A 
ATOM      9  C   UNL d   1     -49.134  13.913  22.993  0.00  0.00     0.000 A 
ATOM     10  O   UNL d   1     -45.383  13.524  22.726  0.00  0.00    -0.259 OA
ATOM     11  C   UNL d   1     -48.805  14.634  22.747  0.00  0.00     0.002 A 
ATOM     12  C   UNL d   1     -48.981  12.555  23.379  0.00  0.00     0.000 C 
ATOM     13  C   UNL d   1     -49.300  15.285  22.605  0.00  0.00     0.000 C 
ENDROOT
BRANCH   1  14
ATOM     14  C   UNL d   1     -47.685  11.964  23.421  0.00  0.00     0.069 C 
ATOM     15 CL   UNL d   1     -47.195  11.346  23.661  0.00  0.00    -0.082 Cl
ENDBRANCH   1  14
TORSDOF 1
ENDMDL
MODEL 4
REMARK VINA RESULT:      -7.7      2.515      3.555
REMARK  1 active torsions:
REMARK  status: ('A' for Active; 'I' for Inactive)
REMARK    1  A    between atoms: C_12  and  C_1 
ROOT
ATOM      1  C   UNL d   1     -49.416  13.938  21.979  0.00  0.00     0.019 A 
ATOM      2  C   UNL d   1     -48.273  14.492  22.641  0.00  0.00     0.103 A 
ATOM      3  C   UNL d   1     -48.624  13.890  22.201  0.00  0.00     0.024 A 
ATOM      4  O   UNL d   1     -48.713  15.151  22.866  0.00  0.00    -0.273 OA
ATOM      5  C   UNL d   1     -49.509  15.201  22.644  0.00  0.00     0.300 A 
ATOM      6  C   UNL d   1     -49.861  14.599  22.203  0.00  0.00     0.070 A 
ATOM      7  C   UNL d   1     -48.178  13.232  21.979  0.00  0.00     0.002 A 
ATOM      8  C   UNL d   1     -47.475  14.436  22.861  0.00  0.00     0.025 A 
ATOM      9  C   UNL d   1     -47.388  13.173  22.194  0.00  0.00     0.000 A 
ATOM     10  O   UNL d   1     -49.956  15.864  22.868  0.00  0.00    -0.259 OA
ATOM     11  C   UNL d   1     -47.034  13.778  22.637  0.00  0.00     0.002 A 
ATOM     12  C   UNL d   1     -48.523  12.626  21.538  0.00  0.00     0.000 C 
ATOM     13  C   UNL d   1     -46.235  13.717  22.854  0.00  0.00     0.000 C 
ENDROOT
BRANCH   1  14
ATOM     14  C   UNL d   1     -49.761  13.332  21.538  0.00  0.00     0.069 C 
ATOM     15 CL   UNL d   1     -50.580  13.309  21.451  0.00  0.00    -0.082 Cl
ENDBRANCH   1  14
TORSDOF 1
ENDMDL
MODEL 5
REMARK VINA RESULT:      -7.7      1.373      2.595
REMARK  1 active torsions:
REMARK  status: ('A' for Active; 'I' for Inactive)
REMARK    1  A    between atoms: C_12  and  C_1 
ROOT
ATOM      1  C   UNL d   1     -49.039  13.110  23.225  0.00  0.00     0.019 A 
ATOM      2  C   UNL d   1     -47.691  12.636  23.128  0.00  0.00     0.103 A 
ATOM      3  C   UNL d   1     -48.241  13.247  23.074  0.00  0.00     0.024 A 
ATOM      4  O   UNL d   1     -47.936  11.877  23.335  0.00  0.00    -0.273 OA
ATOM      5  C   UNL d   1     -48.737  11.737  23.487  0.00  0.00     0.300 A 
ATOM      6  C   UNL d   1     -49.287  12.349  23.433  0.00  0.00     0.070 A 
ATOM      7  C   UNL d   1     -47.991  14.006  22.866  0.00  0.00     0.002 A 
ATOM      8  C   UNL d   1     -46.889  12.783  22.974  0.00  0.00     0.025 A 
ATOM      9  C   UNL d   1     -47.198  14.155  22.713  0.00  0.00     0.000 A 
ATOM     10  O   UNL d   1     -48.987  10.973  23.697  0.00  0.00    -0.259 OA
ATOM     11  C   UNL d   1     -46.645  13.540  22.768  0.00  0.00     0.002 A 
ATOM     12  C   UNL d   1     -48.536  14.623  22.810  0.00  0.00     0.000 C 
ATOM     13  C   UNL d   1     -45.843  13.693  22.613  0.00  0.00     0.000 C 
ENDROOT
BRANCH   1  14
ATOM     14  C   UNL d   1     -49.584  13.726  23.169  0.00  0.00     0.069 C 
ATOM     15 CL   UNL d   1     -50.377  13.585  23.345  0.00  0.00    -0.082 Cl
ENDBRANCH   1  14
TORSDOF 1
ENDMDL
MODEL 6
REMARK VINA RESULT:      -7.5      1.866      3.191
REMARK  1 active torsions:
REMARK  status: ('A' for Active; 'I' for Inactive)
REMARK    1  A    between atoms: C_12  and  C_1 
ROOT
ATOM      1  C   UNL d   1     -48.872  12.668  23.365  0.00  0.00     0.019 A 
ATOM      2  C   UNL d   1     -47.988  13.680  22.871  0.00  0.00     0.103 A 
ATOM      3  C   UNL d   1     -48.113  12.924  23.175  0.00  0.00     0.024 A 
ATOM      4  O   UNL d   1     -48.625  14.189  22.754  0.00  0.00    -0.273 OA
ATOM      5  C   UNL d   1     -49.388  13.933  22.944  0.00  0.00     0.300 A 
ATOM      6  C   UNL d   1     -49.514  13.177  23.248  0.00  0.00     0.070 A 
ATOM      7  C   UNL d   1     -47.471  12.418  23.290  0.00  0.00     0.002 A 
ATOM      8  C   UNL d   1     -47.220  13.931  22.682  0.00  0.00     0.025 A 
ATOM      9  C   UNL d   1     -46.710  12.663  23.105  0.00  0.00     0.000 A 
ATOM     10  O   UNL d   1     -50.033  14.444  22.827  0.00  0.00    -0.259 OA
ATOM     11  C   UNL d   1     -46.584  13.423  22.799  0.00  0.00     0.002 A 
ATOM     12  C   UNL d   1     -47.589  11.660  23.594  0.00  0.00     0.000 C 
ATOM     13  C   UNL d   1     -45.813  13.669  22.612  0.00  0.00     0.000 C 
ENDROOT
BRANCH   1  14
ATOM     14  C   UNL d   1     -48.990  11.910  23.668  0.00  0.00     0.069 C 
ATOM     15 CL   UNL d   1     -49.753  11.598  23.698  0.00  0.00    -0.082 Cl
ENDBRANCH   1  14
TORSDOF 1
ENDMDL
MODEL 7
REMARK VINA RESULT:      -7.1      1.389      2.528
REMARK  1 active torsions:
REMARK  status: ('A' for Active; 'I' for Inactive)
REMARK    1  A    between atoms: C_12  and  C_1 
ROOT
ATOM      1  C   UNL d   1     -47.613  13.049  23.177  0.00  0.00     0.019 A 
ATOM      2  C   UNL d   1     -46.261  12.578  23.201  0.00  0.00     0.103 A 
ATOM      3  C   UNL d   1     -47.068  12.445  23.302  0.00  0.00     0.024 A 
ATOM      4  O   UNL d   1     -45.990  13.321  22.971  0.00  0.00    -0.273 OA
ATOM      5  C   UNL d   1     -46.537  13.930  22.844  0.00  0.00     0.300 A 
ATOM      6  C   UNL d   1     -47.344  13.797  22.946  0.00  0.00     0.070 A 
ATOM      7  C   UNL d   1     -47.333  11.698  23.533  0.00  0.00     0.002 A 
ATOM      8  C   UNL d   1     -45.718  11.964  23.329  0.00  0.00     0.025 A 
ATOM      9  C   UNL d   1     -46.799  11.088  23.661  0.00  0.00     0.000 A 
ATOM     10  O   UNL d   1     -46.268  14.681  22.613  0.00  0.00    -0.259 OA
ATOM     11  C   UNL d   1     -45.987  11.221  23.558  0.00  0.00     0.002 A 
ATOM     12  C   UNL d   1     -48.140  11.557  23.636  0.00  0.00     0.000 C 
ATOM     13  C   UNL d   1     -45.448  10.603  23.688  0.00  0.00     0.000 C 
ENDROOT
BRANCH   1  14
ATOM     14  C   UNL d   1     -48.419  12.909  23.281  0.00  0.00     0.069 C 
ATOM     15 CL   UNL d   1     -48.962  13.501  23.098  0.00  0.00    -0.082 Cl
ENDBRANCH   1  14
TORSDOF 1
ENDMDL
MODEL 8
REMARK VINA RESULT:      -5.9      9.065      9.922
REMARK  1 active torsions:
REMARK  status: ('A' for Active; 'I' for Inactive)
REMARK    1  A    between atoms: C_12  and  C_1 
ROOT
ATOM      1  C   UNL d   1     -40.411  15.097  18.497  0.00  0.00     0.019 A 
ATOM      2  C   UNL d   1     -39.895  14.266  17.450  0.00  0.00     0.103 A 
ATOM      3  C   UNL d   1     -39.892  14.512  18.237  0.00  0.00     0.024 A 
ATOM      4  O   UNL d   1     -40.419  14.606  16.913  0.00  0.00    -0.273 OA
ATOM      5  C   UNL d   1     -40.940  15.194  17.172  0.00  0.00     0.300 A 
ATOM      6  C   UNL d   1     -40.938  15.440  17.959  0.00  0.00     0.070 A 
ATOM      7  C   UNL d   1     -39.365  14.169  18.771  0.00  0.00     0.002 A 
ATOM      8  C   UNL d   1     -39.370  13.677  17.196  0.00  0.00     0.025 A 
ATOM      9  C   UNL d   1     -38.844  13.584  18.523  0.00  0.00     0.000 A 
ATOM     10  O   UNL d   1     -41.470  15.539  16.633  0.00  0.00    -0.259 OA
ATOM     11  C   UNL d   1     -38.846  13.337  17.732  0.00  0.00     0.002 A 
ATOM     12  C   UNL d   1     -39.357  14.409  19.560  0.00  0.00     0.000 C 
ATOM     13  C   UNL d   1     -38.318  12.746  17.484  0.00  0.00     0.000 C 
ENDROOT
BRANCH   1  14
ATOM     14  C   UNL d   1     -40.402  15.338  19.286  0.00  0.00     0.069 C 
ATOM     15 CL   UNL d   1     -40.930  15.918  19.539  0.00  0.00    -0.082 Cl
ENDBRANCH   1  14
TORSDOF 1
ENDMDL
MODEL 9
REMARK VINA RESULT:      -5.9      8.579      9.444
REMARK  1 active torsions:
REMARK  status: ('A' for Active; 'I' for Inactive)
REMARK    1  A    between atoms: C_12  and  C_1 
ROOT
ATOM      1  C   UNL d   1     -39.898  14.412  18.031  0.00  0.00     0.019 A 
ATOM      2  C   UNL d   1     -40.716  15.360  18.727  0.00  0.00     0.103 A 
ATOM      3  C   UNL d   1     -40.118  14.792  18.728  0.00  0.00     0.024 A 
ATOM      4  O   UNL d   1     -41.102  15.552  18.025  0.00  0.00    -0.273 OA
ATOM      5  C   UNL d   1     -40.882  15.171  17.325  0.00  0.00     0.300 A 
ATOM      6  C   UNL d   1     -40.284  14.604  17.325  0.00  0.00     0.070 A 
ATOM      7  C   UNL d   1     -39.735  14.603  19.434  0.00  0.00     0.002 A 
ATOM      8  C   UNL d   1     -40.932  15.738  19.433  0.00  0.00     0.025 A 
ATOM      9  C   UNL d   1     -39.946  14.975  20.135  0.00  0.00     0.000 A 
ATOM     10  O   UNL d   1     -41.269  15.363  16.614  0.00  0.00    -0.259 OA
ATOM     11  C   UNL d   1     -40.548  15.546  20.134  0.00  0.00     0.002 A 
ATOM     12  C   UNL d   1     -39.136  14.036  19.443  0.00  0.00     0.000 C 
ATOM     13  C   UNL d   1     -40.760  15.922  20.844  0.00  0.00     0.000 C 
ENDROOT
BRANCH   1  14
ATOM     14  C   UNL d   1     -39.299  13.845  18.040  0.00  0.00     0.069 C 
ATOM     15 CL   UNL d   1     -39.053  13.503  17.332  0.00  0.00    -0.082 Cl
ENDBRANCH   1  14
TORSDOF 1
ENDMDL
