MODEL 1
REMARK VINA RESULT:      45.6      0.000      0.000
REMARK  5 active torsions:
REMARK  status: ('A' for Active; 'I' for Inactive)
REMARK    1  A    between atoms: N_2  and  C_1 
REMARK    2  A    between atoms: N_3  and  C_1 
REMARK       I    between atoms: C_4  and  N_2 
REMARK    3  A    between atoms: C_15  and  C_4 
REMARK    4  A    between atoms: O_17  and  C_9 
REMARK    5  A    between atoms: O_18  and  C_10 
ROOT
ATOM      1  N   UNL d   1      13.994  13.262  -1.441  0.00  0.00    -0.281 N 
ATOM      2  C   UNL d   1      13.559  13.146  -2.806  0.00  0.00     0.020 A 
ATOM      3  C   UNL d   1      13.635  13.586  -2.112  0.00  0.00     0.082 A 
ATOM      4  C   UNL d   1      13.848  12.365  -2.827  0.00  0.00     0.005 A 
ATOM      5  C   UNL d   1      13.204  13.463  -3.478  0.00  0.00     0.028 A 
ATOM      6  C   UNL d   1      13.133  13.015  -4.164  0.00  0.00     0.116 A 
ATOM      7  C   UNL d   1      13.419  12.242  -4.185  0.00  0.00     0.116 A 
ATOM      8  C   UNL d   1      13.776  11.917  -3.518  0.00  0.00     0.026 A 
ATOM      9  C   UNL d   1      14.284  12.477  -1.462  0.00  0.00     0.082 A 
ATOM     10  C   UNL d   1      14.209  12.028  -2.161  0.00  0.00     0.019 A 
ENDROOT
BRANCH   1  11
ATOM     11  C   UNL d   1      14.067  13.710  -0.747  0.00  0.00     0.209 C 
ATOM     12  S   UNL d   1      13.923  13.358  -0.015  0.00  0.00    -0.038 SA
BRANCH  11  13
ATOM     13  N   UNL d   1      14.283  14.505  -0.792  0.00  0.00    -0.180 NA
ATOM     14  C   UNL d   1      15.072  14.722  -0.680  0.00  0.00     0.281 C 
ATOM     15  O   UNL d   1      15.640  14.145  -0.525  0.00  0.00    -0.265 OA
BRANCH  14  16
ATOM     16  C   UNL d   1      15.285  15.521  -0.725  0.00  0.00     0.058 A 
ATOM     17  C   UNL d   1      15.038  15.970  -1.368  0.00  0.00     0.005 A 
ATOM     18  C   UNL d   1      15.248  16.764  -1.419  0.00  0.00     0.000 A 
ATOM     19  C   UNL d   1      15.704  17.105  -0.823  0.00  0.00     0.000 A 
ATOM     20  C   UNL d   1      15.952  16.649  -0.175  0.00  0.00     0.000 A 
ATOM     21  C   UNL d   1      15.738  15.851  -0.130  0.00  0.00     0.005 A 
ENDBRANCH  14  16
ENDBRANCH  11  13
ENDBRANCH   1  11
BRANCH   6  22
ATOM     22  O   UNL d   1      12.777  13.340  -4.830  0.00  0.00    -0.326 OA
ATOM     23  C   UNL d   1      13.233  13.740  -5.390  0.00  0.00     0.181 C 
ENDBRANCH   6  22
BRANCH   7  24
ATOM     24  O   UNL d   1      13.346  11.794  -4.879  0.00  0.00    -0.326 OA
ATOM     25  C   UNL d   1      12.788  12.000  -5.447  0.00  0.00     0.181 C 
ENDBRANCH   7  24
TORSDOF 5
ENDMDL
MODEL 2
REMARK VINA RESULT:      47.4      1.967      3.713
REMARK  5 active torsions:
REMARK  status: ('A' for Active; 'I' for Inactive)
REMARK    1  A    between atoms: N_2  and  C_1 
REMARK    2  A    between atoms: N_3  and  C_1 
REMARK       I    between atoms: C_4  and  N_2 
REMARK    3  A    between atoms: C_15  and  C_4 
REMARK    4  A    between atoms: O_17  and  C_9 
REMARK    5  A    between atoms: O_18  and  C_10 
ROOT
ATOM      1  N   UNL d   1      15.045  15.749  -1.381  0.00  0.00    -0.281 N 
ATOM      2  C   UNL d   1      14.647  15.832  -2.759  0.00  0.00     0.020 A 
ATOM      3  C   UNL d   1      14.663  15.428  -2.039  0.00  0.00     0.082 A 
ATOM      4  C   UNL d   1      15.022  16.574  -2.818  0.00  0.00     0.005 A 
ATOM      5  C   UNL d   1      14.269  15.518  -3.418  0.00  0.00     0.028 A 
ATOM      6  C   UNL d   1      14.259  15.929  -4.131  0.00  0.00     0.116 A 
ATOM      7  C   UNL d   1      14.630  16.664  -4.189  0.00  0.00     0.116 A 
ATOM      8  C   UNL d   1      15.011  16.986  -3.535  0.00  0.00     0.026 A 
ATOM      9  C   UNL d   1      15.422  16.495  -1.440  0.00  0.00     0.082 A 
ATOM     10  C   UNL d   1      15.408  16.907  -2.164  0.00  0.00     0.019 A 
ENDROOT
BRANCH   1  11
ATOM     11  C   UNL d   1      15.057  15.338  -0.661  0.00  0.00     0.209 C 
ATOM     12  S   UNL d   1      15.460  15.654  -0.014  0.00  0.00    -0.038 SA
BRANCH  11  13
ATOM     13  N   UNL d   1      14.667  14.614  -0.594  0.00  0.00    -0.180 NA
ATOM     14  C   UNL d   1      15.081  13.946  -0.339  0.00  0.00     0.281 C 
ATOM     15  O   UNL d   1      15.882  14.006  -0.152  0.00  0.00    -0.265 OA
BRANCH  14  16
ATOM     16  C   UNL d   1      14.687  13.222  -0.273  0.00  0.00     0.058 A 
ATOM     17  C   UNL d   1      15.101  12.523  -0.402  0.00  0.00     0.005 A 
ATOM     18  C   UNL d   1      14.715  11.800  -0.337  0.00  0.00     0.000 A 
ATOM     19  C   UNL d   1      13.913  11.779  -0.144  0.00  0.00     0.000 A 
ATOM     20  C   UNL d   1      13.499  12.487  -0.015  0.00  0.00     0.000 A 
ATOM     21  C   UNL d   1      13.893  13.211  -0.081  0.00  0.00     0.005 A 
ENDBRANCH  14  16
ENDBRANCH  11  13
ENDBRANCH   1  11
BRANCH   6  22
ATOM     22  O   UNL d   1      13.878  15.607  -4.785  0.00  0.00    -0.326 OA
ATOM     23  C   UNL d   1      13.688  14.804  -4.799  0.00  0.00     0.181 C 
ENDBRANCH   6  22
BRANCH   7  24
ATOM     24  O   UNL d   1      14.618  17.076  -4.909  0.00  0.00    -0.326 OA
ATOM     25  C   UNL d   1      14.861  17.861  -4.940  0.00  0.00     0.181 C 
ENDBRANCH   7  24
TORSDOF 5
ENDMDL
