MODEL 1
REMARK VINA RESULT:      85.2      0.000      0.000
REMARK  8 active torsions:
REMARK  status: ('A' for Active; 'I' for Inactive)
REMARK    1  A    between atoms: C_13  and  N_1 
REMARK    2  A    between atoms: C_2  and  N_6 
REMARK    3  A    between atoms: C_9  and  C_5 
REMARK       I    between atoms: N_6  and  C_9 
REMARK    4  A    between atoms: S_16  and  C_7 
REMARK    5  A    between atoms: C_14  and  C_27 
REMARK       I    between atoms: N_20  and  C_14 
REMARK    6  A    between atoms: C_15  and  C_28 
REMARK    7  A    between atoms: C_27  and  S_16 
REMARK    8  A    between atoms: C_28  and  N_20 
ROOT
ATOM      1  C   UNL d   1     -49.641  27.440  35.807  0.00  0.00     0.219 A 
ATOM      2  S   UNL d   1     -49.181  28.054  35.879  0.00  0.00    -0.019 SA
ATOM      3  C   UNL d   1     -48.802  28.143  35.224  0.00  0.00     0.165 A 
ATOM      4  N   UNL d   1     -49.545  27.147  35.102  0.00  0.00    -0.120 NA
ATOM      5  N   UNL d   1     -49.017  27.589  34.734  0.00  0.00    -0.133 NA
ENDROOT
BRANCH   1   6
ATOM      6  N   UNL d   1     -50.116  27.164  36.346  0.00  0.00    -0.181 NA
ATOM      7  C   UNL d   1     -50.117  27.467  37.054  0.00  0.00     0.283 C 
ATOM      8  O   UNL d   1     -49.643  28.049  37.225  0.00  0.00    -0.265 OA
BRANCH   7   9
ATOM      9  C   UNL d   1     -50.592  27.188  37.587  0.00  0.00     0.080 A 
ATOM     10  C   UNL d   1     -50.992  26.535  37.547  0.00  0.00     0.088 A 
ATOM     11  N   UNL d   1     -51.397  26.463  38.196  0.00  0.00    -0.273 N 
ATOM     12  C   UNL d   1     -51.249  27.069  38.636  0.00  0.00     0.265 A 
ATOM     13  C   UNL d   1     -50.749  27.525  38.262  0.00  0.00     0.067 A 
ATOM     14  O   UNL d   1     -51.548  27.208  39.337  0.00  0.00    -0.267 OA
BRANCH  11  15
ATOM     15  C   UNL d   1     -51.907  25.833  38.382  0.00  0.00     0.067 A 
ATOM     16  C   UNL d   1     -52.676  25.831  38.085  0.00  0.00     0.020 A 
ATOM     17  C   UNL d   1     -53.175  25.199  38.276  0.00  0.00     0.031 A 
ATOM     18  C   UNL d   1     -52.913  24.586  38.750  0.00  0.00     0.140 A 
ATOM     19  C   UNL d   1     -52.139  24.594  39.045  0.00  0.00     0.031 A 
ATOM     20  F   UNL d   1     -53.419  23.950  38.941  0.00  0.00    -0.204 F 
ATOM     21  C   UNL d   1     -51.640  25.211  38.863  0.00  0.00     0.020 A 
ENDBRANCH  11  15
ENDBRANCH   7   9
ENDBRANCH   1   6
BRANCH   3  22
ATOM     22  S   UNL d   1     -47.718  29.443  35.142  0.00  0.00    -0.054 SA
BRANCH  22  23
ATOM     23  C   UNL d   1     -47.679  29.991  35.760  0.00  0.00     0.100 C 
BRANCH  23  24
ATOM     24  C   UNL d   1     -47.308  30.722  35.640  0.00  0.00     0.286 C 
ATOM     25  N   UNL d   1     -47.648  31.265  35.123  0.00  0.00    -0.204 NA
ATOM     26  O   UNL d   1     -46.603  30.903  36.035  0.00  0.00    -0.265 OA
BRANCH  25  27
ATOM     27  C   UNL d   1     -47.279  31.994  35.002  0.00  0.00     0.127 C 
BRANCH  27  28
ATOM     28  C   UNL d   1     -47.551  32.488  34.394  0.00  0.00     0.119 A 
ATOM     29  O   UNL d   1     -47.093  32.819  33.787  0.00  0.00    -0.304 OA
ATOM     30  C   UNL d   1     -47.598  33.273  33.308  0.00  0.00     0.123 A 
ATOM     31  C   UNL d   1     -48.367  33.227  33.613  0.00  0.00     0.029 A 
ATOM     32  C   UNL d   1     -48.338  32.739  34.287  0.00  0.00     0.028 A 
ENDBRANCH  27  28
ENDBRANCH  25  27
ENDBRANCH  23  24
ENDBRANCH  22  23
ENDBRANCH   3  22
TORSDOF 8
ENDMDL
MODEL 2
REMARK VINA RESULT:      85.8      2.439      7.551
REMARK  8 active torsions:
REMARK  status: ('A' for Active; 'I' for Inactive)
REMARK    1  A    between atoms: C_13  and  N_1 
REMARK    2  A    between atoms: C_2  and  N_6 
REMARK    3  A    between atoms: C_9  and  C_5 
REMARK       I    between atoms: N_6  and  C_9 
REMARK    4  A    between atoms: S_16  and  C_7 
REMARK    5  A    between atoms: C_14  and  C_27 
REMARK       I    between atoms: N_20  and  C_14 
REMARK    6  A    between atoms: C_15  and  C_28 
REMARK    7  A    between atoms: C_27  and  S_16 
REMARK    8  A    between atoms: C_28  and  N_20 
ROOT
ATOM      1  C   UNL d   1     -48.886  28.088  35.204  0.00  0.00     0.219 A 
ATOM      2  S   UNL d   1     -49.313  27.901  35.817  0.00  0.00    -0.019 SA
ATOM      3  C   UNL d   1     -49.586  27.198  35.709  0.00  0.00     0.165 A 
ATOM      4  N   UNL d   1     -48.896  27.495  34.712  0.00  0.00    -0.120 NA
ATOM      5  N   UNL d   1     -49.336  26.934  35.030  0.00  0.00    -0.133 NA
ENDROOT
BRANCH   1   6
ATOM      6  N   UNL d   1     -48.513  28.752  35.097  0.00  0.00    -0.181 NA
ATOM      7  C   UNL d   1     -48.270  29.162  35.702  0.00  0.00     0.283 C 
ATOM      8  O   UNL d   1     -48.400  28.908  36.417  0.00  0.00    -0.265 OA
BRANCH   7   9
ATOM      9  C   UNL d   1     -47.899  29.824  35.590  0.00  0.00     0.080 A 
ATOM     10  C   UNL d   1     -48.062  30.357  35.063  0.00  0.00     0.088 A 
ATOM     11  N   UNL d   1     -47.556  30.930  35.139  0.00  0.00    -0.273 N 
ATOM     12  C   UNL d   1     -47.082  30.753  35.710  0.00  0.00     0.265 A 
ATOM     13  C   UNL d   1     -47.290  30.065  35.995  0.00  0.00     0.067 A 
ATOM     14  O   UNL d   1     -46.492  31.185  35.963  0.00  0.00    -0.267 OA
BRANCH  11  15
ATOM     15  C   UNL d   1     -47.534  31.621  34.678  0.00  0.00     0.067 A 
ATOM     16  C   UNL d   1     -47.096  31.629  33.979  0.00  0.00     0.020 A 
ATOM     17  C   UNL d   1     -47.081  32.322  33.526  0.00  0.00     0.031 A 
ATOM     18  C   UNL d   1     -47.491  32.988  33.765  0.00  0.00     0.140 A 
ATOM     19  C   UNL d   1     -47.930  32.973  34.468  0.00  0.00     0.031 A 
ATOM     20  F   UNL d   1     -47.474  33.686  33.307  0.00  0.00    -0.204 F 
ATOM     21  C   UNL d   1     -47.951  32.297  34.920  0.00  0.00     0.020 A 
ENDBRANCH  11  15
ENDBRANCH   7   9
ENDBRANCH   1   6
BRANCH   3  22
ATOM     22  S   UNL d   1     -50.565  26.563  36.939  0.00  0.00    -0.054 SA
BRANCH  22  23
ATOM     23  C   UNL d   1     -51.020  27.068  37.409  0.00  0.00     0.100 C 
BRANCH  23  24
ATOM     24  C   UNL d   1     -51.300  26.806  38.144  0.00  0.00     0.286 C 
ATOM     25  N   UNL d   1     -51.693  26.083  38.190  0.00  0.00    -0.204 NA
ATOM     26  O   UNL d   1     -51.186  27.265  38.823  0.00  0.00    -0.265 OA
BRANCH  25  27
ATOM     27  C   UNL d   1     -51.972  25.820  38.921  0.00  0.00     0.127 C 
BRANCH  27  28
ATOM     28  C   UNL d   1     -52.377  25.098  38.963  0.00  0.00     0.119 A 
ATOM     29  O   UNL d   1     -52.114  24.369  38.668  0.00  0.00    -0.304 OA
ATOM     30  C   UNL d   1     -52.699  23.803  38.836  0.00  0.00     0.123 A 
ATOM     31  C   UNL d   1     -53.323  24.175  39.233  0.00  0.00     0.029 A 
ATOM     32  C   UNL d   1     -53.123  24.979  39.312  0.00  0.00     0.028 A 
ENDBRANCH  27  28
ENDBRANCH  25  27
ENDBRANCH  23  24
ENDBRANCH  22  23
ENDBRANCH   3  22
TORSDOF 8
ENDMDL
MODEL 3
REMARK VINA RESULT:      86.0      1.159      1.613
REMARK  8 active torsions:
REMARK  status: ('A' for Active; 'I' for Inactive)
REMARK    1  A    between atoms: C_13  and  N_1 
REMARK    2  A    between atoms: C_2  and  N_6 
REMARK    3  A    between atoms: C_9  and  C_5 
REMARK       I    between atoms: N_6  and  C_9 
REMARK    4  A    between atoms: S_16  and  C_7 
REMARK    5  A    between atoms: C_14  and  C_27 
REMARK       I    between atoms: N_20  and  C_14 
REMARK    6  A    between atoms: C_15  and  C_28 
REMARK    7  A    between atoms: C_27  and  S_16 
REMARK    8  A    between atoms: C_28  and  N_20 
ROOT
ATOM      1  C   UNL d   1     -50.037  27.636  37.402  0.00  0.00     0.219 A 
ATOM      2  S   UNL d   1     -49.561  27.756  36.808  0.00  0.00    -0.019 SA
ATOM      3  C   UNL d   1     -49.115  28.349  36.979  0.00  0.00     0.165 A 
ATOM      4  N   UNL d   1     -49.882  28.159  37.945  0.00  0.00    -0.120 NA
ATOM      5  N   UNL d   1     -49.302  28.609  37.680  0.00  0.00    -0.133 NA
ENDROOT
BRANCH   1   6
ATOM      6  N   UNL d   1     -50.574  27.087  37.448  0.00  0.00    -0.181 NA
ATOM      7  C   UNL d   1     -51.090  27.097  38.021  0.00  0.00     0.283 C 
ATOM      8  O   UNL d   1     -51.068  27.656  38.549  0.00  0.00    -0.265 OA
BRANCH   7   9
ATOM      9  C   UNL d   1     -51.624  26.549  38.062  0.00  0.00     0.080 A 
ATOM     10  C   UNL d   1     -51.736  26.062  38.643  0.00  0.00     0.088 A 
ATOM     11  N   UNL d   1     -52.326  25.604  38.461  0.00  0.00    -0.273 N 
ATOM     12  C   UNL d   1     -52.577  25.806  37.769  0.00  0.00     0.265 A 
ATOM     13  C   UNL d   1     -52.144  26.394  37.515  0.00  0.00     0.067 A 
ATOM     14  O   UNL d   1     -53.165  25.481  37.385  0.00  0.00    -0.267 OA
BRANCH  11  15
ATOM     15  C   UNL d   1     -52.632  24.996  38.937  0.00  0.00     0.067 A 
ATOM     16  C   UNL d   1     -52.410  24.215  38.793  0.00  0.00     0.020 A 
ATOM     17  C   UNL d   1     -52.721  23.617  39.273  0.00  0.00     0.031 A 
ATOM     18  C   UNL d   1     -53.239  23.793  39.881  0.00  0.00     0.140 A 
ATOM     19  C   UNL d   1     -53.458  24.581  40.021  0.00  0.00     0.031 A 
ATOM     20  F   UNL d   1     -53.551  23.188  40.364  0.00  0.00    -0.204 F 
ATOM     21  C   UNL d   1     -53.158  25.176  39.554  0.00  0.00     0.020 A 
ENDBRANCH  11  15
ENDBRANCH   7   9
ENDBRANCH   1   6
BRANCH   3  22
ATOM     22  S   UNL d   1     -47.974  28.807  35.812  0.00  0.00    -0.054 SA
BRANCH  22  23
ATOM     23  C   UNL d   1     -48.125  29.449  35.314  0.00  0.00     0.100 C 
BRANCH  23  24
ATOM     24  C   UNL d   1     -47.637  30.118  35.344  0.00  0.00     0.286 C 
ATOM     25  N   UNL d   1     -47.925  30.839  35.069  0.00  0.00    -0.204 NA
ATOM     26  O   UNL d   1     -46.868  30.062  35.647  0.00  0.00    -0.265 OA
BRANCH  25  27
ATOM     27  C   UNL d   1     -47.441  31.507  35.098  0.00  0.00     0.127 C 
BRANCH  27  28
ATOM     28  C   UNL d   1     -47.546  32.108  34.537  0.00  0.00     0.119 A 
ATOM     29  O   UNL d   1     -47.939  32.828  34.655  0.00  0.00    -0.304 OA
ATOM     30  C   UNL d   1     -47.907  33.253  33.942  0.00  0.00     0.123 A 
ATOM     31  C   UNL d   1     -47.497  32.802  33.381  0.00  0.00     0.029 A 
ATOM     32  C   UNL d   1     -47.273  32.090  33.751  0.00  0.00     0.028 A 
ENDBRANCH  27  28
ENDBRANCH  25  27
ENDBRANCH  23  24
ENDBRANCH  22  23
ENDBRANCH   3  22
TORSDOF 8
ENDMDL
MODEL 4
REMARK VINA RESULT:      87.4      2.790      7.004
REMARK  8 active torsions:
REMARK  status: ('A' for Active; 'I' for Inactive)
REMARK    1  A    between atoms: C_13  and  N_1 
REMARK    2  A    between atoms: C_2  and  N_6 
REMARK    3  A    between atoms: C_9  and  C_5 
REMARK       I    between atoms: N_6  and  C_9 
REMARK    4  A    between atoms: S_16  and  C_7 
REMARK    5  A    between atoms: C_14  and  C_27 
REMARK       I    between atoms: N_20  and  C_14 
REMARK    6  A    between atoms: C_15  and  C_28 
REMARK    7  A    between atoms: C_27  and  S_16 
REMARK    8  A    between atoms: C_28  and  N_20 
ROOT
ATOM      1  C   UNL d   1     -48.617  27.833  34.327  0.00  0.00     0.219 A 
ATOM      2  S   UNL d   1     -49.317  27.669  34.049  0.00  0.00    -0.019 SA
ATOM      3  C   UNL d   1     -49.404  26.913  34.062  0.00  0.00     0.165 A 
ATOM      4  N   UNL d   1     -48.269  27.172  34.513  0.00  0.00    -0.120 NA
ATOM      5  N   UNL d   1     -48.764  26.592  34.347  0.00  0.00    -0.133 NA
ENDROOT
BRANCH   1   6
ATOM      6  N   UNL d   1     -48.314  28.536  34.407  0.00  0.00    -0.181 NA
ATOM      7  C   UNL d   1     -48.287  28.870  35.101  0.00  0.00     0.283 C 
ATOM      8  O   UNL d   1     -48.563  28.501  35.717  0.00  0.00    -0.265 OA
BRANCH   7   9
ATOM      9  C   UNL d   1     -47.984  29.571  35.174  0.00  0.00     0.080 A 
ATOM     10  C   UNL d   1     -48.019  30.140  34.662  0.00  0.00     0.088 A 
ATOM     11  N   UNL d   1     -47.645  30.745  34.954  0.00  0.00    -0.273 N 
ATOM     12  C   UNL d   1     -47.381  30.551  35.643  0.00  0.00     0.265 A 
ATOM     13  C   UNL d   1     -47.589  29.821  35.786  0.00  0.00     0.067 A 
ATOM     14  O   UNL d   1     -46.974  31.006  36.119  0.00  0.00    -0.267 OA
BRANCH  11  15
ATOM     15  C   UNL d   1     -47.549  31.481  34.579  0.00  0.00     0.067 A 
ATOM     16  C   UNL d   1     -46.828  31.665  34.223  0.00  0.00     0.020 A 
ATOM     17  C   UNL d   1     -46.743  32.400  33.852  0.00  0.00     0.031 A 
ATOM     18  C   UNL d   1     -47.359  32.937  33.838  0.00  0.00     0.140 A 
ATOM     19  C   UNL d   1     -48.082  32.746  34.198  0.00  0.00     0.031 A 
ATOM     20  F   UNL d   1     -47.271  33.678  33.464  0.00  0.00    -0.204 F 
ATOM     21  C   UNL d   1     -48.175  32.026  34.565  0.00  0.00     0.020 A 
ENDBRANCH  11  15
ENDBRANCH   7   9
ENDBRANCH   1   6
BRANCH   3  22
ATOM     22  S   UNL d   1     -50.881  26.306  33.492  0.00  0.00    -0.054 SA
BRANCH  22  23
ATOM     23  C   UNL d   1     -51.585  26.494  33.882  0.00  0.00     0.100 C 
BRANCH  23  24
ATOM     24  C   UNL d   1     -51.820  26.051  34.542  0.00  0.00     0.286 C 
ATOM     25  N   UNL d   1     -51.694  26.356  35.296  0.00  0.00    -0.204 NA
ATOM     26  O   UNL d   1     -52.179  25.311  34.444  0.00  0.00    -0.265 OA
BRANCH  25  27
ATOM     27  C   UNL d   1     -51.928  25.917  35.955  0.00  0.00     0.127 C 
BRANCH  27  28
ATOM     28  C   UNL d   1     -51.750  26.200  36.714  0.00  0.00     0.119 A 
ATOM     29  O   UNL d   1     -51.049  26.574  36.948  0.00  0.00    -0.304 OA
ATOM     30  C   UNL d   1     -51.118  26.760  37.755  0.00  0.00     0.123 A 
ATOM     31  C   UNL d   1     -51.859  26.505  38.024  0.00  0.00     0.029 A 
ATOM     32  C   UNL d   1     -52.251  26.157  37.377  0.00  0.00     0.028 A 
ENDBRANCH  27  28
ENDBRANCH  25  27
ENDBRANCH  23  24
ENDBRANCH  22  23
ENDBRANCH   3  22
TORSDOF 8
ENDMDL
