MODEL 1
REMARK VINA RESULT:      -9.0      0.000      0.000
REMARK  3 active torsions:
REMARK  status: ('A' for Active; 'I' for Inactive)
REMARK    1  A    between atoms: S_3  and  C_1 
REMARK    2  A    between atoms: C_7  and  N_2 
REMARK    3  A    between atoms: C_13  and  C_7 
ROOT
ATOM      1  C   UNL d   1      52.642  32.125  53.067  0.00  0.00     0.255 A 
ATOM      2  N   UNL d   1      53.018  32.597  53.633  0.00  0.00    -0.278 N 
ATOM      3  N   UNL d   1      52.140  32.569  52.620  0.00  0.00    -0.215 NA
ATOM      4  C   UNL d   1      52.737  33.377  53.536  0.00  0.00     0.084 A 
ATOM      5  C   UNL d   1      52.195  33.359  52.911  0.00  0.00     0.100 A 
ATOM      6  C   UNL d   1      52.894  34.090  53.921  0.00  0.00     0.019 A 
ATOM      7  C   UNL d   1      51.814  34.055  52.675  0.00  0.00     0.021 A 
ATOM      8  C   UNL d   1      52.515  34.785  53.688  0.00  0.00     0.002 A 
ATOM      9  C   UNL d   1      51.974  34.767  53.063  0.00  0.00     0.002 A 
ENDROOT
BRANCH   1  10
ATOM     10  S   UNL d   1      52.769  31.313  52.979  0.00  0.00     0.174 S 
ATOM     11  O   UNL d   1      52.332  31.170  53.666  0.00  0.00    -0.589 OA
ATOM     12  O   UNL d   1      52.897  30.501  52.891  0.00  0.00    -0.589 OA
ATOM     13  O   UNL d   1      53.205  31.455  52.293  0.00  0.00    -0.589 OA
ENDBRANCH   1  10
BRANCH   2  14
ATOM     14  C   UNL d   1      53.564  32.369  54.193  0.00  0.00     0.082 C 
BRANCH  14  15
ATOM     15  C   UNL d   1      54.279  32.767  54.197  0.00  0.00     0.018 C 
ATOM     16  C   UNL d   1      54.530  33.191  54.858  0.00  0.00     0.002 C 
ATOM     17  C   UNL d   1      54.778  32.763  53.546  0.00  0.00     0.002 C 
ENDBRANCH  14  15
ENDBRANCH   2  14
TORSDOF 3
ENDMDL
MODEL 2
REMARK VINA RESULT:      -8.7      0.658      2.117
REMARK  3 active torsions:
REMARK  status: ('A' for Active; 'I' for Inactive)
REMARK    1  A    between atoms: S_3  and  C_1 
REMARK    2  A    between atoms: C_7  and  N_2 
REMARK    3  A    between atoms: C_13  and  C_7 
ROOT
ATOM      1  C   UNL d   1      53.162  31.965  53.451  0.00  0.00     0.255 A 
ATOM      2  N   UNL d   1      52.980  32.766  53.351  0.00  0.00    -0.278 N 
ATOM      3  N   UNL d   1      53.652  31.866  54.083  0.00  0.00    -0.215 NA
ATOM      4  C   UNL d   1      53.375  33.190  53.951  0.00  0.00     0.084 A 
ATOM      5  C   UNL d   1      53.790  32.635  54.403  0.00  0.00     0.100 A 
ATOM      6  C   UNL d   1      53.417  33.991  54.148  0.00  0.00     0.019 A 
ATOM      7  C   UNL d   1      54.243  32.884  55.049  0.00  0.00     0.021 A 
ATOM      8  C   UNL d   1      53.868  34.242  54.791  0.00  0.00     0.002 A 
ATOM      9  C   UNL d   1      54.283  33.686  55.243  0.00  0.00     0.002 A 
ENDROOT
BRANCH   1  10
ATOM     10  S   UNL d   1      52.878  31.359  52.967  0.00  0.00     0.174 S 
ATOM     11  O   UNL d   1      52.389  31.097  53.580  0.00  0.00    -0.589 OA
ATOM     12  O   UNL d   1      52.594  30.753  52.482  0.00  0.00    -0.589 OA
ATOM     13  O   UNL d   1      53.366  31.619  52.354  0.00  0.00    -0.589 OA
ENDBRANCH   1  10
BRANCH   2  14
ATOM     14  C   UNL d   1      52.506  33.105  52.781  0.00  0.00     0.082 C 
BRANCH  14  15
ATOM     15  C   UNL d   1      51.870  33.548  53.043  0.00  0.00     0.018 C 
ATOM     16  C   UNL d   1      51.832  34.361  52.912  0.00  0.00     0.002 C 
ATOM     17  C   UNL d   1      51.244  33.207  53.448  0.00  0.00     0.002 C 
ENDBRANCH  14  15
ENDBRANCH   2  14
TORSDOF 3
ENDMDL
MODEL 3
REMARK VINA RESULT:      -8.7      1.598      2.457
REMARK  3 active torsions:
REMARK  status: ('A' for Active; 'I' for Inactive)
REMARK    1  A    between atoms: S_3  and  C_1 
REMARK    2  A    between atoms: C_7  and  N_2 
REMARK    3  A    between atoms: C_13  and  C_7 
ROOT
ATOM      1  C   UNL d   1      52.479  32.998  53.195  0.00  0.00     0.255 A 
ATOM      2  N   UNL d   1      52.997  32.754  53.793  0.00  0.00    -0.278 N 
ATOM      3  N   UNL d   1      52.305  32.383  52.706  0.00  0.00    -0.215 NA
ATOM      4  C   UNL d   1      53.155  31.943  53.671  0.00  0.00     0.084 A 
ATOM      5  C   UNL d   1      52.728  31.715  53.001  0.00  0.00     0.100 A 
ATOM      6  C   UNL d   1      53.619  31.389  54.069  0.00  0.00     0.019 A 
ATOM      7  C   UNL d   1      52.769  30.933  52.732  0.00  0.00     0.021 A 
ATOM      8  C   UNL d   1      53.662  30.609  53.804  0.00  0.00     0.002 A 
ATOM      9  C   UNL d   1      53.235  30.381  53.133  0.00  0.00     0.002 A 
ENDROOT
BRANCH   1  10
ATOM     10  S   UNL d   1      52.187  33.768  53.119  0.00  0.00     0.174 S 
ATOM     11  O   UNL d   1      51.652  33.626  53.733  0.00  0.00    -0.589 OA
ATOM     12  O   UNL d   1      51.895  34.537  53.043  0.00  0.00    -0.589 OA
ATOM     13  O   UNL d   1      52.721  33.910  52.506  0.00  0.00    -0.589 OA
ENDBRANCH   1  10
BRANCH   2  14
ATOM     14  C   UNL d   1      53.309  33.200  54.400  0.00  0.00     0.082 C 
BRANCH  14  15
ATOM     15  C   UNL d   1      54.124  33.206  54.474  0.00  0.00     0.018 C 
ATOM     16  C   UNL d   1      54.491  32.987  55.179  0.00  0.00     0.002 C 
ATOM     17  C   UNL d   1      54.611  33.429  53.854  0.00  0.00     0.002 C 
ENDBRANCH  14  15
ENDBRANCH   2  14
TORSDOF 3
ENDMDL
MODEL 4
REMARK VINA RESULT:      -8.7      2.515      3.556
REMARK  3 active torsions:
REMARK  status: ('A' for Active; 'I' for Inactive)
REMARK    1  A    between atoms: S_3  and  C_1 
REMARK    2  A    between atoms: C_7  and  N_2 
REMARK    3  A    between atoms: C_13  and  C_7 
ROOT
ATOM      1  C   UNL d   1      53.309  34.782  54.471  0.00  0.00     0.255 A 
ATOM      2  N   UNL d   1      53.064  34.388  53.786  0.00  0.00    -0.278 N 
ATOM      3  N   UNL d   1      53.709  34.279  54.956  0.00  0.00    -0.215 NA
ATOM      4  C   UNL d   1      53.323  33.597  53.845  0.00  0.00     0.084 A 
ATOM      5  C   UNL d   1      53.721  33.529  54.567  0.00  0.00     0.100 A 
ATOM      6  C   UNL d   1      53.255  32.938  53.353  0.00  0.00     0.019 A 
ATOM      7  C   UNL d   1      54.048  32.804  54.793  0.00  0.00     0.021 A 
ATOM      8  C   UNL d   1      53.580  32.213  53.575  0.00  0.00     0.002 A 
ATOM      9  C   UNL d   1      53.977  32.146  54.297  0.00  0.00     0.002 A 
ENDROOT
BRANCH   1  10
ATOM     10  S   UNL d   1      53.161  35.581  54.627  0.00  0.00     0.174 S 
ATOM     11  O   UNL d   1      53.690  35.796  54.028  0.00  0.00    -0.589 OA
ATOM     12  O   UNL d   1      53.013  36.378  54.782  0.00  0.00    -0.589 OA
ATOM     13  O   UNL d   1      52.634  35.366  55.224  0.00  0.00    -0.589 OA
ENDBRANCH   1  10
BRANCH   2  14
ATOM     14  C   UNL d   1      52.646  34.691  53.155  0.00  0.00     0.082 C 
BRANCH  14  15
ATOM     15  C   UNL d   1      51.931  34.335  52.978  0.00  0.00     0.018 C 
ATOM     16  C   UNL d   1      51.799  33.982  52.245  0.00  0.00     0.002 C 
ATOM     17  C   UNL d   1      51.315  34.313  53.518  0.00  0.00     0.002 C 
ENDBRANCH  14  15
ENDBRANCH   2  14
TORSDOF 3
ENDMDL
MODEL 5
REMARK VINA RESULT:      -8.6      1.929      2.913
REMARK  3 active torsions:
REMARK  status: ('A' for Active; 'I' for Inactive)
REMARK    1  A    between atoms: S_3  and  C_1 
REMARK    2  A    between atoms: C_7  and  N_2 
REMARK    3  A    between atoms: C_13  and  C_7 
ROOT
ATOM      1  C   UNL d   1      54.152  32.983  54.463  0.00  0.00     0.255 A 
ATOM      2  N   UNL d   1      53.406  33.213  54.186  0.00  0.00    -0.278 N 
ATOM      3  N   UNL d   1      54.334  32.245  54.196  0.00  0.00    -0.215 NA
ATOM      4  C   UNL d   1      53.107  32.587  53.722  0.00  0.00     0.084 A 
ATOM      5  C   UNL d   1      53.679  31.991  53.728  0.00  0.00     0.100 A 
ATOM      6  C   UNL d   1      52.405  32.477  53.302  0.00  0.00     0.019 A 
ATOM      7  C   UNL d   1      53.546  31.287  53.313  0.00  0.00     0.021 A 
ATOM      8  C   UNL d   1      52.270  31.777  52.887  0.00  0.00     0.002 A 
ATOM      9  C   UNL d   1      52.842  31.180  52.893  0.00  0.00     0.002 A 
ENDROOT
BRANCH   1  10
ATOM     10  S   UNL d   1      54.634  33.450  54.945  0.00  0.00     0.174 S 
ATOM     11  O   UNL d   1      55.141  33.587  54.305  0.00  0.00    -0.589 OA
ATOM     12  O   UNL d   1      55.117  33.917  55.426  0.00  0.00    -0.589 OA
ATOM     13  O   UNL d   1      54.129  33.314  55.583  0.00  0.00    -0.589 OA
ENDBRANCH   1  10
BRANCH   2  14
ATOM     14  C   UNL d   1      53.014  33.914  54.326  0.00  0.00     0.082 C 
BRANCH  14  15
ATOM     15  C   UNL d   1      52.791  34.351  53.672  0.00  0.00     0.018 C 
ATOM     16  C   UNL d   1      51.996  34.448  53.473  0.00  0.00     0.002 C 
ATOM     17  C   UNL d   1      53.343  34.711  53.184  0.00  0.00     0.002 C 
ENDBRANCH  14  15
ENDBRANCH   2  14
TORSDOF 3
ENDMDL
MODEL 6
REMARK VINA RESULT:      -8.4      1.985      2.429
REMARK  3 active torsions:
REMARK  status: ('A' for Active; 'I' for Inactive)
REMARK    1  A    between atoms: S_3  and  C_1 
REMARK    2  A    between atoms: C_7  and  N_2 
REMARK    3  A    between atoms: C_13  and  C_7 
ROOT
ATOM      1  C   UNL d   1      53.859  33.779  54.574  0.00  0.00     0.255 A 
ATOM      2  N   UNL d   1      53.454  33.138  54.243  0.00  0.00    -0.278 N 
ATOM      3  N   UNL d   1      53.525  34.473  54.338  0.00  0.00    -0.215 NA
ATOM      4  C   UNL d   1      52.835  33.446  53.776  0.00  0.00     0.084 A 
ATOM      5  C   UNL d   1      52.879  34.270  53.835  0.00  0.00     0.100 A 
ATOM      6  C   UNL d   1      52.246  33.100  53.312  0.00  0.00     0.019 A 
ATOM      7  C   UNL d   1      52.334  34.743  53.430  0.00  0.00     0.021 A 
ATOM      8  C   UNL d   1      51.701  33.569  52.908  0.00  0.00     0.002 A 
ATOM      9  C   UNL d   1      51.745  34.393  52.967  0.00  0.00     0.002 A 
ENDROOT
BRANCH   1  10
ATOM     10  S   UNL d   1      54.513  33.708  55.075  0.00  0.00     0.174 S 
ATOM     11  O   UNL d   1      55.006  33.980  54.469  0.00  0.00    -0.589 OA
ATOM     12  O   UNL d   1      55.166  33.637  55.575  0.00  0.00    -0.589 OA
ATOM     13  O   UNL d   1      54.021  33.437  55.679  0.00  0.00    -0.589 OA
ENDBRANCH   1  10
BRANCH   2  14
ATOM     14  C   UNL d   1      53.609  32.343  54.338  0.00  0.00     0.082 C 
BRANCH  14  15
ATOM     15  C   UNL d   1      53.788  31.917  53.663  0.00  0.00     0.018 C 
ATOM     16  C   UNL d   1      53.328  31.273  53.429  0.00  0.00     0.002 C 
ATOM     17  C   UNL d   1      54.430  32.107  53.191  0.00  0.00     0.002 C 
ENDBRANCH  14  15
ENDBRANCH   2  14
TORSDOF 3
ENDMDL
MODEL 7
REMARK VINA RESULT:      -8.4      1.626      2.617
REMARK  3 active torsions:
REMARK  status: ('A' for Active; 'I' for Inactive)
REMARK    1  A    between atoms: S_3  and  C_1 
REMARK    2  A    between atoms: C_7  and  N_2 
REMARK    3  A    between atoms: C_13  and  C_7 
ROOT
ATOM      1  C   UNL d   1      52.289  33.762  53.423  0.00  0.00     0.255 A 
ATOM      2  N   UNL d   1      52.803  33.123  53.311  0.00  0.00    -0.278 N 
ATOM      3  N   UNL d   1      52.539  34.218  54.039  0.00  0.00    -0.215 NA
ATOM      4  C   UNL d   1      53.405  33.182  53.886  0.00  0.00     0.084 A 
ATOM      5  C   UNL d   1      53.242  33.857  54.334  0.00  0.00     0.100 A 
ATOM      6  C   UNL d   1      54.069  32.724  54.062  0.00  0.00     0.019 A 
ATOM      7  C   UNL d   1      53.744  34.070  54.957  0.00  0.00     0.021 A 
ATOM      8  C   UNL d   1      54.571  32.934  54.682  0.00  0.00     0.002 A 
ATOM      9  C   UNL d   1      54.408  33.609  55.130  0.00  0.00     0.002 A 
ENDROOT
BRANCH   1  10
ATOM     10  S   UNL d   1      51.616  33.905  52.964  0.00  0.00     0.174 S 
ATOM     11  O   UNL d   1      52.093  34.211  52.361  0.00  0.00    -0.589 OA
ATOM     12  O   UNL d   1      50.945  34.048  52.505  0.00  0.00    -0.589 OA
ATOM     13  O   UNL d   1      51.141  33.600  53.565  0.00  0.00    -0.589 OA
ENDBRANCH   1  10
BRANCH   2  14
ATOM     14  C   UNL d   1      52.753  32.532  52.752  0.00  0.00     0.082 C 
BRANCH  14  15
ATOM     15  C   UNL d   1      52.704  31.764  53.028  0.00  0.00     0.018 C 
ATOM     16  C   UNL d   1      53.327  31.233  52.930  0.00  0.00     0.002 C 
ATOM     17  C   UNL d   1      52.035  31.486  53.412  0.00  0.00     0.002 C 
ENDBRANCH  14  15
ENDBRANCH   2  14
TORSDOF 3
ENDMDL
