MODEL 1
REMARK VINA RESULT:      95.5      0.000      0.000
REMARK  5 active torsions:
REMARK  status: ('A' for Active; 'I' for Inactive)
REMARK    1  A    between atoms: C_13  and  N_2 
REMARK    2  A    between atoms: C_10  and  N_4 
REMARK    3  A    between atoms: C_11  and  C_10 
REMARK       I    between atoms: N_15  and  C_11 
REMARK    4  A    between atoms: C_16  and  N_15 
REMARK    5  A    between atoms: O_21  and  C_19 
ROOT
ATOM      1  C   UNL d   1     -51.035  24.622  33.376  0.00  0.00     0.172 A 
ATOM      2  N   UNL d   1     -52.332  25.243  33.427  0.00  0.00    -0.226 N 
ATOM      3  C   UNL d   1     -51.951  25.997  33.439  0.00  0.00     0.342 A 
ATOM      4  N   UNL d   1     -51.136  26.046  33.420  0.00  0.00    -0.252 N 
ATOM      5  C   UNL d   1     -50.678  25.366  33.388  0.00  0.00     0.098 A 
ATOM      6  C   UNL d   1     -51.865  24.564  33.395  0.00  0.00     0.292 A 
ATOM      7  O   UNL d   1     -50.454  24.045  33.344  0.00  0.00    -0.301 OA
ATOM      8  C   UNL d   1     -49.870  25.222  33.364  0.00  0.00     0.041 A 
ATOM      9  C   UNL d   1     -49.749  24.414  33.337  0.00  0.00     0.102 A 
ATOM     10  O   UNL d   1     -52.411  26.702  33.472  0.00  0.00    -0.245 OA
ATOM     11  O   UNL d   1     -52.230  23.812  33.382  0.00  0.00    -0.264 OA
ATOM     12  C   UNL d   1     -49.221  25.744  33.362  0.00  0.00     0.004 A 
ATOM     13  C   UNL d   1     -48.977  24.110  33.308  0.00  0.00     0.025 A 
ATOM     14  C   UNL d   1     -48.448  25.441  33.334  0.00  0.00     0.000 A 
ATOM     15  C   UNL d   1     -48.344  24.630  33.307  0.00  0.00     0.002 A 
ENDROOT
BRANCH   4  16
ATOM     16  C   UNL d   1     -50.756  26.799  33.432  0.00  0.00     0.147 C 
BRANCH  16  17
ATOM     17  C   UNL d   1     -50.393  27.068  34.152  0.00  0.00     0.297 C 
ATOM     18  N   UNL d   1     -49.968  27.759  34.154  0.00  0.00    -0.207 NA
ATOM     19  O   UNL d   1     -50.481  26.617  34.837  0.00  0.00    -0.264 OA
BRANCH  18  20
ATOM     20  C   UNL d   1     -49.621  28.014  34.844  0.00  0.00     0.087 A 
ATOM     21  C   UNL d   1     -48.929  28.478  34.804  0.00  0.00     0.043 A 
ATOM     22  C   UNL d   1     -48.571  28.742  35.501  0.00  0.00     0.096 A 
ATOM     23  C   UNL d   1     -48.905  28.541  36.239  0.00  0.00     0.024 A 
ATOM     24  C   UNL d   1     -49.592  28.079  36.272  0.00  0.00     0.004 A 
ATOM     25  C   UNL d   1     -49.945  27.820  35.579  0.00  0.00     0.019 A 
BRANCH  22  26
ATOM     26  O   UNL d   1     -47.877  29.207  35.472  0.00  0.00    -0.328 OA
ATOM     27  C   UNL d   1     -47.671  29.675  36.119  0.00  0.00     0.181 C 
ENDBRANCH  22  26
ENDBRANCH  18  20
ENDBRANCH  16  17
ENDBRANCH   4  16
BRANCH   2  28
ATOM     28  C   UNL d   1     -53.162  25.177  33.446  0.00  0.00     0.071 A 
ATOM     29  C   UNL d   1     -53.516  24.445  33.579  0.00  0.00     0.018 A 
ATOM     30  C   UNL d   1     -54.347  24.389  33.597  0.00  0.00     0.002 A 
ATOM     31  C   UNL d   1     -54.799  25.051  33.484  0.00  0.00     0.000 A 
ATOM     32  C   UNL d   1     -54.447  25.783  33.350  0.00  0.00     0.002 A 
ATOM     33  C   UNL d   1     -53.632  25.839  33.333  0.00  0.00     0.018 A 
ENDBRANCH   2  28
TORSDOF 5
ENDMDL
