MODEL 1
REMARK VINA RESULT:      19.9      0.000      0.000
REMARK  3 active torsions:
REMARK  status: ('A' for Active; 'I' for Inactive)
REMARK    1  A    between atoms: C_10  and  C_4 
REMARK    2  A    between atoms: S_9  and  C_10 
REMARK    3  A    between atoms: C_11  and  S_9 
ROOT
ATOM      1  C   UNL d   1      45.869 -16.757  44.078  0.00  0.00     0.056 C 
ENDROOT
BRANCH   1   2
ATOM      2  S   UNL d   1      45.741 -16.379  44.777  0.00  0.00    -0.085 SA
BRANCH   2   3
ATOM      3  C   UNL d   1      45.659 -15.558  44.790  0.00  0.00     0.030 A 
ATOM      4  C   UNL d   1      46.315 -15.078  44.655  0.00  0.00     0.007 A 
ATOM      5  C   UNL d   1      46.218 -14.259  44.671  0.00  0.00     0.012 A 
ATOM      6  C   UNL d   1      45.485 -13.917  44.818  0.00  0.00     0.058 A 
ATOM      7  C   UNL d   1      44.836 -14.407  44.952  0.00  0.00     0.012 A 
ATOM      8 CL   UNL d   1      45.403 -13.093  44.831  0.00  0.00    -0.082 Cl
ATOM      9  C   UNL d   1      44.917 -15.223  44.939  0.00  0.00     0.007 A 
ENDBRANCH   2   3
ENDBRANCH   1   2
BRANCH   1  10
ATOM     10  C   UNL d   1      46.054 -17.547  44.075  0.00  0.00     0.107 A 
ATOM     11  N   UNL d   1      46.260 -18.002  43.396  0.00  0.00    -0.220 NA
ATOM     12  C   UNL d   1      46.408 -18.800  43.650  0.00  0.00     0.180 A 
ATOM     13  N   UNL d   1      46.290 -18.830  44.496  0.00  0.00    -0.282 N 
ATOM     14  S   UNL d   1      46.628 -19.580  43.390  0.00  0.00    -0.048 SA
ATOM     15  C   UNL d   1      46.072 -18.050  44.747  0.00  0.00     0.102 A 
ATOM     16  C   UNL d   1      46.439 -19.629  44.750  0.00  0.00     0.089 A 
ATOM     17  C   UNL d   1      46.647 -20.089  44.065  0.00  0.00     0.057 A 
ENDBRANCH   1  10
TORSDOF 3
ENDMDL
