MODEL 1
REMARK VINA RESULT:      -9.1      0.000      0.000
REMARK  5 active torsions:
REMARK  status: ('A' for Active; 'I' for Inactive)
REMARK    1  A    between atoms: C_14  and  N_3 
REMARK    2  A    between atoms: C_13  and  N_7 
REMARK    3  A    between atoms: C_10  and  C_13 
REMARK       I    between atoms: N_11  and  C_10 
REMARK    4  A    between atoms: C_21  and  N_12 
REMARK    5  A    between atoms: C_22  and  C_14 
ROOT
ATOM      1  C   UNL d   1      51.621  33.657  53.220  0.00  0.00     0.191 A 
ATOM      2  C   UNL d   1      51.610  33.887  52.419  0.00  0.00     0.196 A 
ATOM      3  N   UNL d   1      52.377  33.356  53.380  0.00  0.00    -0.191 N 
ATOM      4  N   UNL d   1      50.953  33.755  53.678  0.00  0.00    -0.204 NA
ATOM      5  N   UNL d   1      52.359  33.722  52.104  0.00  0.00    -0.122 NA
ATOM      6  N   UNL d   1      52.815  33.402  52.692  0.00  0.00    -0.058 NA
ATOM      7  N   UNL d   1      50.253  34.307  52.559  0.00  0.00    -0.249 N 
ATOM      8  C   UNL d   1      50.930  34.207  52.101  0.00  0.00     0.289 A 
ATOM      9  C   UNL d   1      50.264  34.077  53.360  0.00  0.00     0.187 A 
ATOM     10  O   UNL d   1      50.919  34.437  51.300  0.00  0.00    -0.265 OA
ENDROOT
BRANCH   7  11
ATOM     11  C   UNL d   1      49.558  34.632  52.242  0.00  0.00     0.146 C 
BRANCH  11  12
ATOM     12  C   UNL d   1      49.112  35.182  52.678  0.00  0.00     0.283 C 
ATOM     13  N   UNL d   1      48.359  35.383  52.423  0.00  0.00    -0.268 N 
ATOM     14  C   UNL d   1      48.061  35.034  51.737  0.00  0.00     0.102 A 
ATOM     15  C   UNL d   1      47.923  35.921  52.850  0.00  0.00     0.102 A 
ATOM     16  C   UNL d   1      47.301  35.239  51.484  0.00  0.00     0.100 A 
ATOM     17  N   UNL d   1      46.851  35.786  51.913  0.00  0.00    -0.301 N 
ATOM     18  C   UNL d   1      47.163  36.127  52.596  0.00  0.00     0.100 A 
ATOM     19  O   UNL d   1      49.430  35.520  53.360  0.00  0.00    -0.265 OA
BRANCH  17  20
ATOM     20  C   UNL d   1      46.098  35.987  51.658  0.00  0.00     0.064 A 
ATOM     21  C   UNL d   1      45.631  36.460  52.126  0.00  0.00     0.018 A 
ATOM     22  C   UNL d   1      44.871  36.665  51.873  0.00  0.00     0.002 A 
ATOM     23  C   UNL d   1      44.591  36.389  51.147  0.00  0.00     0.000 A 
ATOM     24  C   UNL d   1      45.073  35.908  50.676  0.00  0.00     0.002 A 
ATOM     25  C   UNL d   1      45.833  35.703  50.930  0.00  0.00     0.018 A 
ENDBRANCH  17  20
ENDBRANCH  11  12
ENDBRANCH   7  11
BRANCH   3  26
ATOM     26  C   UNL d   1      52.647  33.057  54.114  0.00  0.00     0.104 C 
BRANCH  26  27
ATOM     27  C   UNL d   1      53.430  33.198  54.356  0.00  0.00     0.019 A 
ATOM     28  C   UNL d   1      54.034  32.684  54.133  0.00  0.00     0.002 A 
ATOM     29  C   UNL d   1      54.792  32.838  54.379  0.00  0.00     0.000 A 
ATOM     30  C   UNL d   1      54.971  33.486  54.838  0.00  0.00     0.000 A 
ATOM     31  C   UNL d   1      54.348  34.013  55.066  0.00  0.00     0.000 A 
ATOM     32  C   UNL d   1      53.583  33.859  54.819  0.00  0.00     0.002 A 
ENDBRANCH  26  27
ENDBRANCH   3  26
TORSDOF 5
ENDMDL
MODEL 2
REMARK VINA RESULT:      -8.2      1.138      6.824
REMARK  5 active torsions:
REMARK  status: ('A' for Active; 'I' for Inactive)
REMARK    1  A    between atoms: C_14  and  N_3 
REMARK    2  A    between atoms: C_13  and  N_7 
REMARK    3  A    between atoms: C_10  and  C_13 
REMARK       I    between atoms: N_11  and  C_10 
REMARK    4  A    between atoms: C_21  and  N_12 
REMARK    5  A    between atoms: C_22  and  C_14 
ROOT
ATOM      1  C   UNL d   1      47.914  35.627  52.315  0.00  0.00     0.191 A 
ATOM      2  C   UNL d   1      48.126  35.214  51.624  0.00  0.00     0.196 A 
ATOM      3  N   UNL d   1      47.168  35.966  52.181  0.00  0.00    -0.191 N 
ATOM      4  N   UNL d   1      48.422  35.634  52.954  0.00  0.00    -0.204 NA
ATOM      5  N   UNL d   1      47.507  35.307  51.080  0.00  0.00    -0.122 NA
ATOM      6  N   UNL d   1      46.934  35.762  51.426  0.00  0.00    -0.058 NA
ATOM      7  N   UNL d   1      49.356  34.824  52.234  0.00  0.00    -0.249 N 
ATOM      8  C   UNL d   1      48.840  34.820  51.592  0.00  0.00     0.289 A 
ATOM      9  C   UNL d   1      49.144  35.238  52.926  0.00  0.00     0.187 A 
ATOM     10  O   UNL d   1      49.053  34.406  50.901  0.00  0.00    -0.265 OA
ENDROOT
BRANCH   7  11
ATOM     11  C   UNL d   1      50.084  34.426  52.209  0.00  0.00     0.146 C 
BRANCH  11  12
ATOM     12  C   UNL d   1      50.645  34.532  52.814  0.00  0.00     0.283 C 
ATOM     13  N   UNL d   1      51.223  33.963  52.933  0.00  0.00    -0.268 N 
ATOM     14  C   UNL d   1      51.234  33.296  52.448  0.00  0.00     0.102 A 
ATOM     15  C   UNL d   1      51.771  34.068  53.525  0.00  0.00     0.102 A 
ATOM     16  C   UNL d   1      51.819  32.724  52.570  0.00  0.00     0.100 A 
ATOM     17  N   UNL d   1      52.380  32.824  53.171  0.00  0.00    -0.301 N 
ATOM     18  C   UNL d   1      52.356  33.496  53.648  0.00  0.00     0.100 A 
ATOM     19  O   UNL d   1      50.614  35.207  53.288  0.00  0.00    -0.265 OA
BRANCH  17  20
ATOM     20  C   UNL d   1      52.959  32.255  53.290  0.00  0.00     0.064 A 
ATOM     21  C   UNL d   1      52.771  31.469  53.196  0.00  0.00     0.018 A 
ATOM     22  C   UNL d   1      53.352  30.891  53.315  0.00  0.00     0.002 A 
ATOM     23  C   UNL d   1      54.116  31.116  53.528  0.00  0.00     0.000 A 
ATOM     24  C   UNL d   1      54.300  31.918  53.621  0.00  0.00     0.002 A 
ATOM     25  C   UNL d   1      53.719  32.494  53.502  0.00  0.00     0.018 A 
ENDBRANCH  17  20
ENDBRANCH  11  12
ENDBRANCH   7  11
BRANCH   3  26
ATOM     26  C   UNL d   1      46.732  36.433  52.722  0.00  0.00     0.104 C 
BRANCH  26  27
ATOM     27  C   UNL d   1      45.919  36.292  52.829  0.00  0.00     0.019 A 
ATOM     28  C   UNL d   1      45.659  35.765  53.406  0.00  0.00     0.002 A 
ATOM     29  C   UNL d   1      44.862  35.642  53.494  0.00  0.00     0.000 A 
ATOM     30  C   UNL d   1      44.314  36.023  53.029  0.00  0.00     0.000 A 
ATOM     31  C   UNL d   1      44.584  36.565  52.436  0.00  0.00     0.000 A 
ATOM     32  C   UNL d   1      45.388  36.691  52.346  0.00  0.00     0.002 A 
ENDBRANCH  26  27
ENDBRANCH   3  26
TORSDOF 5
ENDMDL
MODEL 3
REMARK VINA RESULT:      -8.1      1.663      2.454
REMARK  5 active torsions:
REMARK  status: ('A' for Active; 'I' for Inactive)
REMARK    1  A    between atoms: C_14  and  N_3 
REMARK    2  A    between atoms: C_13  and  N_7 
REMARK    3  A    between atoms: C_10  and  C_13 
REMARK       I    between atoms: N_11  and  C_10 
REMARK    4  A    between atoms: C_21  and  N_12 
REMARK    5  A    between atoms: C_22  and  C_14 
ROOT
ATOM      1  C   UNL d   1      52.572  32.531  53.095  0.00  0.00     0.191 A 
ATOM      2  C   UNL d   1      52.639  33.171  53.624  0.00  0.00     0.196 A 
ATOM      3  N   UNL d   1      53.181  31.997  53.275  0.00  0.00    -0.191 N 
ATOM      4  N   UNL d   1      51.976  32.528  52.538  0.00  0.00    -0.204 NA
ATOM      5  N   UNL d   1      53.288  33.017  54.117  0.00  0.00    -0.122 NA
ATOM      6  N   UNL d   1      53.608  32.307  53.898  0.00  0.00    -0.058 NA
ATOM      7  N   UNL d   1      51.504  33.790  53.019  0.00  0.00    -0.249 N 
ATOM      8  C   UNL d   1      52.107  33.789  53.580  0.00  0.00     0.289 A 
ATOM      9  C   UNL d   1      51.437  33.150  52.490  0.00  0.00     0.187 A 
ATOM     10  O   UNL d   1      52.174  34.429  54.109  0.00  0.00    -0.265 OA
ENDROOT
BRANCH   7  11
ATOM     11  C   UNL d   1      50.961  34.415  52.967  0.00  0.00     0.146 C 
BRANCH  11  12
ATOM     12  C   UNL d   1      50.432  34.464  52.327  0.00  0.00     0.283 C 
ATOM     13  N   UNL d   1      49.709  34.838  52.428  0.00  0.00    -0.268 N 
ATOM     14  C   UNL d   1      49.523  35.158  53.165  0.00  0.00     0.102 A 
ATOM     15  C   UNL d   1      49.193  34.884  51.802  0.00  0.00     0.102 A 
ATOM     16  C   UNL d   1      48.793  35.535  53.263  0.00  0.00     0.100 A 
ATOM     17  N   UNL d   1      48.262  35.587  52.630  0.00  0.00    -0.301 N 
ATOM     18  C   UNL d   1      48.462  35.261  51.899  0.00  0.00     0.100 A 
ATOM     19  O   UNL d   1      50.638  34.136  51.599  0.00  0.00    -0.265 OA
BRANCH  17  20
ATOM     20  C   UNL d   1      47.540  35.961  52.731  0.00  0.00     0.064 A 
ATOM     21  C   UNL d   1      47.377  36.331  53.437  0.00  0.00     0.018 A 
ATOM     22  C   UNL d   1      46.648  36.709  53.543  0.00  0.00     0.002 A 
ATOM     23  C   UNL d   1      46.093  36.709  52.933  0.00  0.00     0.000 A 
ATOM     24  C   UNL d   1      46.267  36.331  52.217  0.00  0.00     0.002 A 
ATOM     25  C   UNL d   1      46.994  35.952  52.112  0.00  0.00     0.018 A 
ENDBRANCH  17  20
ENDBRANCH  11  12
ENDBRANCH   7  11
BRANCH   3  26
ATOM     26  C   UNL d   1      53.334  31.271  52.887  0.00  0.00     0.104 C 
BRANCH  26  27
ATOM     27  C   UNL d   1      53.315  30.560  53.319  0.00  0.00     0.019 A 
ATOM     28  C   UNL d   1      52.615  30.128  53.382  0.00  0.00     0.002 A 
ATOM     29  C   UNL d   1      52.618  29.438  53.807  0.00  0.00     0.000 A 
ATOM     30  C   UNL d   1      53.290  29.160  54.172  0.00  0.00     0.000 A 
ATOM     31  C   UNL d   1      54.007  29.605  54.106  0.00  0.00     0.000 A 
ATOM     32  C   UNL d   1      54.007  30.302  53.678  0.00  0.00     0.002 A 
ENDBRANCH  26  27
ENDBRANCH   3  26
TORSDOF 5
ENDMDL
