MODEL 1
REMARK VINA RESULT:      -6.3      0.000      0.000
REMARK  0 active torsions:
REMARK  status: ('A' for Active; 'I' for Inactive)
ROOT
ATOM      1  C   UNL d   1      57.383  -0.663  31.016  0.00  0.00     0.138 A 
ATOM      2  C   UNL d   1      57.421   0.157  31.103  0.00  0.00     0.102 A 
ATOM      3  N   UNL d   1      56.924  -1.112  31.536  0.00  0.00    -0.239 NA
ATOM      4  C   UNL d   1      57.799  -1.035  30.417  0.00  0.00     0.214 A 
ATOM      5  N   UNL d   1      57.000   0.527  31.709  0.00  0.00    -0.242 NA
ATOM      6  C   UNL d   1      58.297   0.234  29.984  0.00  0.00     0.022 A 
ATOM      7  C   UNL d   1      58.259  -0.585  29.897  0.00  0.00     0.042 A 
ATOM      8  C   UNL d   1      56.498  -0.741  32.147  0.00  0.00     0.099 A 
ATOM      9  C   UNL d   1      56.536   0.079  32.233  0.00  0.00     0.099 A 
ATOM     10  O   UNL d   1      57.761  -1.854  30.330  0.00  0.00    -0.285 OA
ATOM     11  C   UNL d   1      58.751   0.682  29.471  0.00  0.00     0.002 A 
ATOM     12  C   UNL d   1      58.675  -0.957  29.298  0.00  0.00     0.003 A 
ATOM     13  C   UNL d   1      56.123   0.435  32.826  0.00  0.00     0.021 A 
ATOM     14  C   UNL d   1      56.047  -1.194  32.654  0.00  0.00     0.021 A 
ATOM     15  C   UNL d   1      59.164   0.311  28.877  0.00  0.00     0.000 A 
ATOM     16  C   UNL d   1      59.126  -0.509  28.790  0.00  0.00     0.000 A 
ATOM     17  C   UNL d   1      55.647   0.000  33.369  0.00  0.00     0.002 A 
ATOM     18  C   UNL d   1      55.609  -0.819  33.282  0.00  0.00     0.002 A 
ENDROOT
TORSDOF 0
ENDMDL
MODEL 2
REMARK VINA RESULT:      -6.0      0.787      1.459
REMARK  0 active torsions:
REMARK  status: ('A' for Active; 'I' for Inactive)
ROOT
ATOM      1  C   UNL d   1      57.402  -0.385  31.046  0.00  0.00     0.138 A 
ATOM      2  C   UNL d   1      57.270  -1.192  31.156  0.00  0.00     0.102 A 
ATOM      3  N   UNL d   1      57.030   0.165  31.539  0.00  0.00    -0.239 NA
ATOM      4  C   UNL d   1      57.899  -0.125  30.450  0.00  0.00     0.214 A 
ATOM      5  N   UNL d   1      56.768  -1.449  31.760  0.00  0.00    -0.242 NA
ATOM      6  C   UNL d   1      58.139  -1.482  30.067  0.00  0.00     0.022 A 
ATOM      7  C   UNL d   1      58.270  -0.675  29.957  0.00  0.00     0.042 A 
ATOM      8  C   UNL d   1      56.524  -0.091  32.147  0.00  0.00     0.099 A 
ATOM      9  C   UNL d   1      56.393  -0.898  32.257  0.00  0.00     0.099 A 
ATOM     10  O   UNL d   1      58.030   0.682  30.339  0.00  0.00    -0.285 OA
ATOM     11  C   UNL d   1      58.505  -2.029  29.581  0.00  0.00     0.002 A 
ATOM     12  C   UNL d   1      58.767  -0.415  29.360  0.00  0.00     0.003 A 
ATOM     13  C   UNL d   1      55.902  -1.144  32.847  0.00  0.00     0.021 A 
ATOM     14  C   UNL d   1      56.163   0.461  32.627  0.00  0.00     0.021 A 
ATOM     15  C   UNL d   1      58.998  -1.769  28.989  0.00  0.00     0.000 A 
ATOM     16  C   UNL d   1      59.129  -0.962  28.879  0.00  0.00     0.000 A 
ATOM     17  C   UNL d   1      55.512  -0.604  33.363  0.00  0.00     0.002 A 
ATOM     18  C   UNL d   1      55.643   0.203  33.252  0.00  0.00     0.002 A 
ENDROOT
TORSDOF 0
ENDMDL
MODEL 3
REMARK VINA RESULT:      -4.8      1.550      4.121
REMARK  0 active torsions:
REMARK  status: ('A' for Active; 'I' for Inactive)
ROOT
ATOM      1  C   UNL d   1      57.466   0.645  32.341  0.00  0.00     0.138 A 
ATOM      2  C   UNL d   1      56.840   0.617  31.804  0.00  0.00     0.102 A 
ATOM      3  N   UNL d   1      58.245   0.667  32.067  0.00  0.00    -0.239 NA
ATOM      4  C   UNL d   1      57.319   0.652  33.147  0.00  0.00     0.214 A 
ATOM      5  N   UNL d   1      56.994   0.610  30.992  0.00  0.00    -0.242 NA
ATOM      6  C   UNL d   1      55.914   0.602  32.884  0.00  0.00     0.022 A 
ATOM      7  C   UNL d   1      56.539   0.631  33.421  0.00  0.00     0.042 A 
ATOM      8  C   UNL d   1      58.402   0.660  31.250  0.00  0.00     0.099 A 
ATOM      9  C   UNL d   1      57.776   0.632  30.713  0.00  0.00     0.099 A 
ATOM     10  O   UNL d   1      57.944   0.681  33.684  0.00  0.00    -0.285 OA
ATOM     11  C   UNL d   1      55.141   0.581  33.152  0.00  0.00     0.002 A 
ATOM     12  C   UNL d   1      56.392   0.637  34.227  0.00  0.00     0.003 A 
ATOM     13  C   UNL d   1      57.932   0.626  29.922  0.00  0.00     0.021 A 
ATOM     14  C   UNL d   1      59.175   0.682  30.990  0.00  0.00     0.021 A 
ATOM     15  C   UNL d   1      54.997   0.588  33.953  0.00  0.00     0.000 A 
ATOM     16  C   UNL d   1      55.623   0.616  34.490  0.00  0.00     0.000 A 
ATOM     17  C   UNL d   1      58.717   0.647  29.617  0.00  0.00     0.002 A 
ATOM     18  C   UNL d   1      59.342   0.675  30.154  0.00  0.00     0.002 A 
ENDROOT
TORSDOF 0
ENDMDL
MODEL 4
REMARK VINA RESULT:      -4.5      1.631      2.177
REMARK  0 active torsions:
REMARK  status: ('A' for Active; 'I' for Inactive)
ROOT
ATOM      1  C   UNL d   1      57.136   0.677  32.729  0.00  0.00     0.138 A 
ATOM      2  C   UNL d   1      56.492   0.676  32.213  0.00  0.00     0.102 A 
ATOM      3  N   UNL d   1      57.011   0.679  33.546  0.00  0.00    -0.239 NA
ATOM      4  C   UNL d   1      57.900   0.678  32.435  0.00  0.00     0.214 A 
ATOM      5  N   UNL d   1      55.723   0.675  32.515  0.00  0.00    -0.242 NA
ATOM      6  C   UNL d   1      57.381   0.675  31.102  0.00  0.00     0.022 A 
ATOM      7  C   UNL d   1      58.025   0.676  31.617  0.00  0.00     0.042 A 
ATOM      8  C   UNL d   1      56.238   0.678  33.851  0.00  0.00     0.099 A 
ATOM      9  C   UNL d   1      55.594   0.677  33.336  0.00  0.00     0.099 A 
ATOM     10  O   UNL d   1      58.545   0.679  32.950  0.00  0.00    -0.285 OA
ATOM     11  C   UNL d   1      57.501   0.674  30.293  0.00  0.00     0.002 A 
ATOM     12  C   UNL d   1      58.789   0.677  31.323  0.00  0.00     0.003 A 
ATOM     13  C   UNL d   1      54.846   0.676  33.635  0.00  0.00     0.021 A 
ATOM     14  C   UNL d   1      56.126   0.679  34.660  0.00  0.00     0.021 A 
ATOM     15  C   UNL d   1      58.261   0.674  30.003  0.00  0.00     0.000 A 
ATOM     16  C   UNL d   1      58.905   0.676  30.518  0.00  0.00     0.000 A 
ATOM     17  C   UNL d   1      54.691   0.677  34.463  0.00  0.00     0.002 A 
ATOM     18  C   UNL d   1      55.336   0.679  34.979  0.00  0.00     0.002 A 
ENDROOT
TORSDOF 0
ENDMDL
