MODEL 1
REMARK VINA RESULT:      -3.7      0.000      0.000
REMARK  1 active torsions:
REMARK  status: ('A' for Active; 'I' for Inactive)
REMARK    1  A    between atoms: C_12  and  C_1 
ROOT
ATOM      1  C   UNL d   1     -41.195-122.178 -51.152  0.00  0.00     0.019 A 
ATOM      2  C   UNL d   1     -41.142-122.042 -52.577  0.00  0.00     0.103 A 
ATOM      3  C   UNL d   1     -41.178-122.515 -51.904  0.00  0.00     0.024 A 
ATOM      4  O   UNL d   1     -41.124-121.221 -52.505  0.00  0.00    -0.273 OA
ATOM      5  C   UNL d   1     -41.142-120.881 -51.751  0.00  0.00     0.300 A 
ATOM      6  C   UNL d   1     -41.177-121.355 -51.077  0.00  0.00     0.070 A 
ATOM      7  C   UNL d   1     -41.196-123.337 -51.982  0.00  0.00     0.002 A 
ATOM      8  C   UNL d   1     -41.125-122.389 -53.330  0.00  0.00     0.025 A 
ATOM      9  C   UNL d   1     -41.178-123.684 -52.725  0.00  0.00     0.000 A 
ATOM     10  O   UNL d   1     -41.123-120.053 -51.674  0.00  0.00    -0.259 OA
ATOM     11  C   UNL d   1     -41.143-123.208 -53.403  0.00  0.00     0.002 A 
ATOM     12  C   UNL d   1     -41.231-123.817 -51.312  0.00  0.00     0.000 C 
ATOM     13  C   UNL d   1     -41.125-123.561 -54.154  0.00  0.00     0.000 C 
ENDROOT
BRANCH   1  14
ATOM     14  C   UNL d   1     -41.231-122.658 -50.483  0.00  0.00     0.069 C 
ATOM     15 CL   UNL d   1     -41.523-122.350 -49.777  0.00  0.00    -0.082 Cl
ENDBRANCH   1  14
TORSDOF 1
ENDMDL
MODEL 2
REMARK VINA RESULT:      -3.3      1.223      2.251
REMARK  1 active torsions:
REMARK  status: ('A' for Active; 'I' for Inactive)
REMARK    1  A    between atoms: C_12  and  C_1 
ROOT
ATOM      1  C   UNL d   1     -41.135-122.151 -52.464  0.00  0.00     0.019 A 
ATOM      2  C   UNL d   1     -41.147-122.151 -51.032  0.00  0.00     0.103 A 
ATOM      3  C   UNL d   1     -41.145-122.558 -51.748  0.00  0.00     0.024 A 
ATOM      4  O   UNL d   1     -41.140-121.327 -51.025  0.00  0.00    -0.273 OA
ATOM      5  C   UNL d   1     -41.130-120.916 -51.743  0.00  0.00     0.300 A 
ATOM      6  C   UNL d   1     -41.128-121.324 -52.460  0.00  0.00     0.070 A 
ATOM      7  C   UNL d   1     -41.152-123.384 -51.750  0.00  0.00     0.002 A 
ATOM      8  C   UNL d   1     -41.157-122.568 -50.315  0.00  0.00     0.025 A 
ATOM      9  C   UNL d   1     -41.162-123.801 -51.042  0.00  0.00     0.000 A 
ATOM     10  O   UNL d   1     -41.123-120.085 -51.740  0.00  0.00    -0.259 OA
ATOM     11  C   UNL d   1     -41.164-123.391 -50.322  0.00  0.00     0.002 A 
ATOM     12  C   UNL d   1     -41.150-123.798 -52.463  0.00  0.00     0.000 C 
ATOM     13  C   UNL d   1     -41.174-123.814 -49.607  0.00  0.00     0.000 C 
ENDROOT
BRANCH   1  14
ATOM     14  C   UNL d   1     -41.133-122.565 -53.178  0.00  0.00     0.069 C 
ATOM     15 CL   UNL d   1     -41.370-122.185 -53.869  0.00  0.00    -0.082 Cl
ENDBRANCH   1  14
TORSDOF 1
ENDMDL
MODEL 3
REMARK VINA RESULT:      -1.9      2.510      4.045
REMARK  1 active torsions:
REMARK  status: ('A' for Active; 'I' for Inactive)
REMARK    1  A    between atoms: C_12  and  C_1 
ROOT
ATOM      1  C   UNL d   1     -42.636-123.002 -49.796  0.00  0.00     0.019 A 
ATOM      2  C   UNL d   1     -41.502-123.544 -49.109  0.00  0.00     0.103 A 
ATOM      3  C   UNL d   1     -42.253-123.206 -49.095  0.00  0.00     0.024 A 
ATOM      4  O   UNL d   1     -41.124-123.682 -49.828  0.00  0.00    -0.273 OA
ATOM      5  C   UNL d   1     -41.506-123.478 -50.532  0.00  0.00     0.300 A 
ATOM      6  C   UNL d   1     -42.259-123.139 -50.519  0.00  0.00     0.070 A 
ATOM      7  C   UNL d   1     -42.627-123.070 -48.372  0.00  0.00     0.002 A 
ATOM      8  C   UNL d   1     -41.123-123.747 -48.399  0.00  0.00     0.025 A 
ATOM      9  C   UNL d   1     -42.255-123.269 -47.668  0.00  0.00     0.000 A 
ATOM     10  O   UNL d   1     -41.129-123.615 -51.259  0.00  0.00    -0.259 OA
ATOM     11  C   UNL d   1     -41.499-123.609 -47.681  0.00  0.00     0.002 A 
ATOM     12  C   UNL d   1     -43.379-122.732 -48.350  0.00  0.00     0.000 C 
ATOM     13  C   UNL d   1     -41.125-123.810 -46.968  0.00  0.00     0.000 C 
ENDROOT
BRANCH   1  14
ATOM     14  C   UNL d   1     -43.388-122.664 -49.774  0.00  0.00     0.069 C 
ATOM     15 CL   UNL d   1     -43.673-122.266 -50.436  0.00  0.00    -0.082 Cl
ENDBRANCH   1  14
TORSDOF 1
ENDMDL
MODEL 4
REMARK VINA RESULT:      -1.2      1.628      2.984
REMARK  1 active torsions:
REMARK  status: ('A' for Active; 'I' for Inactive)
REMARK    1  A    between atoms: C_12  and  C_1 
ROOT
ATOM      1  C   UNL d   1     -41.718-122.223 -51.632  0.00  0.00     0.019 A 
ATOM      2  C   UNL d   1     -41.446-123.418 -50.891  0.00  0.00     0.103 A 
ATOM      3  C   UNL d   1     -41.671-122.626 -50.915  0.00  0.00     0.024 A 
ATOM      4  O   UNL d   1     -41.263-123.817 -51.588  0.00  0.00    -0.273 OA
ATOM      5  C   UNL d   1     -41.310-123.415 -52.309  0.00  0.00     0.300 A 
ATOM      6  C   UNL d   1     -41.536-122.621 -52.334  0.00  0.00     0.070 A 
ATOM      7  C   UNL d   1     -41.853-122.231 -50.214  0.00  0.00     0.002 A 
ATOM      8  C   UNL d   1     -41.401-123.817 -50.165  0.00  0.00     0.025 A 
ATOM      9  C   UNL d   1     -41.810-122.622 -49.493  0.00  0.00     0.000 A 
ATOM     10  O   UNL d   1     -41.127-123.814 -53.015  0.00  0.00    -0.259 OA
ATOM     11  C   UNL d   1     -41.583-123.419 -49.468  0.00  0.00     0.002 A 
ATOM     12  C   UNL d   1     -42.080-121.438 -50.230  0.00  0.00     0.000 C 
ATOM     13  C   UNL d   1     -41.540-123.813 -48.739  0.00  0.00     0.000 C 
ENDROOT
BRANCH   1  14
ATOM     14  C   UNL d   1     -41.945-121.430 -51.649  0.00  0.00     0.069 C 
ATOM     15 CL   UNL d   1     -41.710-120.954 -52.279  0.00  0.00    -0.082 Cl
ENDBRANCH   1  14
TORSDOF 1
ENDMDL
