MODEL 1
REMARK VINA RESULT:      -2.6      0.000      0.000
REMARK  8 active torsions:
REMARK  status: ('A' for Active; 'I' for Inactive)
REMARK    1  A    between atoms: N_5  and  C_1 
REMARK    2  A    between atoms: N_7  and  C_1 
REMARK    3  A    between atoms: N_2  and  C_3 
REMARK    4  A    between atoms: C_3  and  C_4 
REMARK    5  A    between atoms: C_6  and  C_3 
REMARK    6  A    between atoms: C_4  and  N_5 
REMARK    7  A    between atoms: C_8  and  N_7 
REMARK    8  A    between atoms: C_25  and  N_10 
ROOT
ATOM      1  C   UNL d   1      32.650  22.310 -21.184  0.00  0.00     0.088 C 
ENDROOT
BRANCH   1   2
ATOM      2  N   UNL d   1      32.701  22.595 -20.408  0.00  0.00    -0.300 N 
ATOM      3  C   UNL d   1      33.188  22.217 -19.863  0.00  0.00     0.100 A 
ATOM      4  C   UNL d   1      33.239  22.499 -19.095  0.00  0.00     0.100 A 
ATOM      5  N   UNL d   1      32.804  23.162 -18.858  0.00  0.00    -0.300 N 
ATOM      6  C   UNL d   1      32.313  23.541 -19.409  0.00  0.00     0.100 A 
ATOM      7  C   UNL d   1      32.257  23.263 -20.185  0.00  0.00     0.100 A 
BRANCH   5   8
ATOM      8  C   UNL d   1      32.857  23.441 -18.088  0.00  0.00     0.080 C 
ATOM      9  C   UNL d   1      33.043  22.917 -17.475  0.00  0.00     0.021 C 
ENDBRANCH   5   8
ENDBRANCH   1   2
BRANCH   1  10
ATOM     10  C   UNL d   1      32.656  21.501 -21.329  0.00  0.00     0.100 C 
ATOM     11  C   UNL d   1      32.090  21.022 -20.985  0.00  0.00     0.022 C 
BRANCH  10  12
ATOM     12  N   UNL d   1      33.232  21.183 -21.820  0.00  0.00    -0.216 NA
BRANCH  12  13
ATOM     13  C   UNL d   1      33.148  20.410 -22.107  0.00  0.00     0.221 C 
ATOM     14  S   UNL d   1      33.018  19.795 -21.579  0.00  0.00    -0.037 SA
BRANCH  13  15
ATOM     15  N   UNL d   1      33.197  20.266 -22.913  0.00  0.00    -0.217 NA
BRANCH  15  16
ATOM     16  C   UNL d   1      33.165  19.495 -23.203  0.00  0.00     0.084 A 
ATOM     17  C   UNL d   1      33.082  19.363 -24.007  0.00  0.00     0.018 A 
ATOM     18  C   UNL d   1      33.050  18.601 -24.301  0.00  0.00     0.002 A 
ATOM     19  C   UNL d   1      33.031  20.012 -24.523  0.00  0.00     0.002 C 
ATOM     20  C   UNL d   1      33.102  17.956 -23.780  0.00  0.00     0.000 A 
ATOM     21  C   UNL d   1      33.187  18.089 -22.960  0.00  0.00     0.002 A 
ATOM     22  C   UNL d   1      33.218  18.857 -22.678  0.00  0.00     0.019 A 
ATOM     23  C   UNL d   1      33.238  17.452 -22.442  0.00  0.00     0.000 C 
ENDBRANCH  15  16
ENDBRANCH  13  15
ENDBRANCH  12  13
ENDBRANCH  10  12
ENDBRANCH   1  10
BRANCH   1  24
ATOM     24  C   UNL d   1      32.593  22.841 -21.809  0.00  0.00     0.047 A 
ATOM     25  S   UNL d   1      31.908  23.222 -22.072  0.00  0.00    -0.085 SA
ATOM     26  C   UNL d   1      32.108  23.701 -22.709  0.00  0.00     0.035 A 
ATOM     27  C   UNL d   1      32.918  23.627 -22.853  0.00  0.00     0.007 A 
ATOM     28  C   UNL d   1      33.225  23.092 -22.294  0.00  0.00     0.009 A 
ENDBRANCH   1  24
TORSDOF 8
ENDMDL
MODEL 2
REMARK VINA RESULT:      -2.6      3.449      5.747
REMARK  8 active torsions:
REMARK  status: ('A' for Active; 'I' for Inactive)
REMARK    1  A    between atoms: N_5  and  C_1 
REMARK    2  A    between atoms: N_7  and  C_1 
REMARK    3  A    between atoms: N_2  and  C_3 
REMARK    4  A    between atoms: C_3  and  C_4 
REMARK    5  A    between atoms: C_6  and  C_3 
REMARK    6  A    between atoms: C_4  and  N_5 
REMARK    7  A    between atoms: C_8  and  N_7 
REMARK    8  A    between atoms: C_25  and  N_10 
ROOT
ATOM      1  C   UNL d   1      32.036  17.641 -24.147  0.00  0.00     0.088 C 
ENDROOT
BRANCH   1   2
ATOM      2  N   UNL d   1      32.332  18.224 -23.639  0.00  0.00    -0.300 N 
ATOM      3  C   UNL d   1      32.330  18.099 -22.825  0.00  0.00     0.100 A 
ATOM      4  C   UNL d   1      32.623  18.676 -22.321  0.00  0.00     0.100 A 
ATOM      5  N   UNL d   1      32.922  19.387 -22.621  0.00  0.00    -0.300 N 
ATOM      6  C   UNL d   1      32.923  19.511 -23.442  0.00  0.00     0.100 A 
ATOM      7  C   UNL d   1      32.629  18.934 -23.955  0.00  0.00     0.100 A 
BRANCH   5   8
ATOM      8  C   UNL d   1      33.214  19.962 -22.114  0.00  0.00     0.080 C 
ATOM      9  C   UNL d   1      33.173  20.759 -22.334  0.00  0.00     0.021 C 
ENDBRANCH   5   8
ENDBRANCH   1   2
BRANCH   1  10
ATOM     10  C   UNL d   1      31.275  17.706 -24.453  0.00  0.00     0.100 C 
ATOM     11  C   UNL d   1      31.002  18.431 -24.712  0.00  0.00     0.022 C 
BRANCH  10  12
ATOM     12  N   UNL d   1      30.799  17.039 -24.495  0.00  0.00    -0.216 NA
BRANCH  12  13
ATOM     13  C   UNL d   1      30.023  17.103 -24.777  0.00  0.00     0.221 C 
ATOM     14  S   UNL d   1      29.718  17.844 -24.957  0.00  0.00    -0.037 SA
BRANCH  13  15
ATOM     15  N   UNL d   1      29.566  16.428 -24.876  0.00  0.00    -0.217 NA
BRANCH  15  16
ATOM     16  C   UNL d   1      29.158  16.103 -24.237  0.00  0.00     0.084 A 
ATOM     17  C   UNL d   1      28.389  15.839 -24.335  0.00  0.00     0.018 A 
ATOM     18  C   UNL d   1      27.980  15.515 -23.707  0.00  0.00     0.002 A 
ATOM     19  C   UNL d   1      28.028  15.903 -25.080  0.00  0.00     0.002 C 
ATOM     20  C   UNL d   1      28.346  15.453 -22.963  0.00  0.00     0.000 A 
ATOM     21  C   UNL d   1      29.130  15.722 -22.862  0.00  0.00     0.002 A 
ATOM     22  C   UNL d   1      29.530  16.045 -23.500  0.00  0.00     0.019 A 
ATOM     23  C   UNL d   1      29.495  15.662 -22.128  0.00  0.00     0.000 C 
ENDBRANCH  15  16
ENDBRANCH  13  15
ENDBRANCH  12  13
ENDBRANCH  10  12
ENDBRANCH   1  10
BRANCH   1  24
ATOM     24  C   UNL d   1      32.506  16.996 -24.343  0.00  0.00     0.047 A 
ATOM     25  S   UNL d   1      32.786  16.802 -25.097  0.00  0.00    -0.085 SA
ATOM     26  C   UNL d   1      33.233  16.115 -25.036  0.00  0.00     0.035 A 
ATOM     27  C   UNL d   1      33.240  15.872 -24.247  0.00  0.00     0.007 A 
ATOM     28  C   UNL d   1      32.788  16.418 -23.811  0.00  0.00     0.009 A 
ENDBRANCH   1  24
TORSDOF 8
ENDMDL
