MODEL 1
REMARK VINA RESULT:      51.9      0.000      0.000
REMARK  7 active torsions:
REMARK  status: ('A' for Active; 'I' for Inactive)
REMARK    1  A    between atoms: N_6  and  C_1 
REMARK    2  A    between atoms: C_10  and  C_2 
REMARK       I    between atoms: C_8  and  N_6 
REMARK       I    between atoms: C_9  and  N_7 
REMARK    3  A    between atoms: C_12  and  C_8 
REMARK    4  A    between atoms: O_22  and  C_9 
REMARK    5  A    between atoms: O_23  and  C_10 
REMARK    6  A    between atoms: C_24  and  O_22 
REMARK    7  A    between atoms: C_25  and  O_23 
ROOT
ATOM      1  C   UNL d   1      13.931  13.633  -2.810  0.00  0.00     0.119 A 
ATOM      2  C   UNL d   1      13.530  13.540  -3.526  0.00  0.00     0.088 A 
ATOM      3  C   UNL d   1      14.114  14.736  -3.534  0.00  0.00     0.049 A 
ATOM      4  C   UNL d   1      13.650  14.232  -3.970  0.00  0.00     0.016 A 
ATOM      5  S   UNL d   1      14.296  14.381  -2.815  0.00  0.00    -0.066 SA
ATOM      6  N   UNL d   1      14.061  15.700  -4.593  0.00  0.00    -0.251 N 
ATOM      7  C   UNL d   1      14.267  16.435  -4.908  0.00  0.00     0.378 C 
ATOM      8  C   UNL d   1      14.326  15.486  -3.848  0.00  0.00     0.091 A 
ATOM      9  C   UNL d   1      13.377  14.444  -4.729  0.00  0.00     0.020 A 
ATOM     10  C   UNL d   1      13.590  15.182  -5.031  0.00  0.00     0.085 A 
ATOM     11  O   UNL d   1      14.737  16.952  -4.471  0.00  0.00    -0.237 OA
ENDROOT
BRANCH   1  12
ATOM     12  N   UNL d   1      13.966  13.078  -2.190  0.00  0.00    -0.201 NA
ATOM     13  C   UNL d   1      14.496  13.190  -1.577  0.00  0.00     0.286 C 
ATOM     14  O   UNL d   1      14.998  13.845  -1.561  0.00  0.00    -0.265 OA
BRANCH  13  15
ATOM     15  C   UNL d   1      14.530  12.640  -0.963  0.00  0.00     0.087 A 
ATOM     16  S   UNL d   1      15.212  12.341  -0.603  0.00  0.00    -0.082 SA
ATOM     17  C   UNL d   1      14.983  11.804  -0.014  0.00  0.00     0.036 A 
ATOM     18  C   UNL d   1      14.171  11.779  -0.018  0.00  0.00     0.008 A 
ATOM     19  C   UNL d   1      13.884  12.286  -0.594  0.00  0.00     0.012 A 
ENDBRANCH  13  15
ENDBRANCH   1  12
BRANCH   2  20
ATOM     20  C   UNL d   1      13.094  12.877  -3.749  0.00  0.00     0.302 C 
ATOM     21  O   UNL d   1      12.780  12.397  -3.153  0.00  0.00    -0.259 OA
BRANCH  20  22
ATOM     22  O   UNL d   1      12.978  12.702  -4.557  0.00  0.00    -0.271 OA
BRANCH  22  23
ATOM     23  C   UNL d   1      13.109  11.938  -4.834  0.00  0.00     0.126 C 
ATOM     24  C   UNL d   1      13.110  11.784  -5.648  0.00  0.00     0.029 C 
ENDBRANCH  22  23
ENDBRANCH  20  22
ENDBRANCH   2  20
BRANCH   7  25
ATOM     25  O   UNL d   1      14.002  16.652  -5.656  0.00  0.00    -0.257 OA
BRANCH  25  26
ATOM     26  C   UNL d   1      14.286  17.335  -6.021  0.00  0.00     0.128 C 
ATOM     27  C   UNL d   1      14.183  18.076  -5.672  0.00  0.00     0.029 C 
ENDBRANCH  25  26
ENDBRANCH   7  25
TORSDOF 7
ENDMDL
