MODEL 1
REMARK VINA RESULT:      -3.8      0.000      0.000
REMARK  5 active torsions:
REMARK  status: ('A' for Active; 'I' for Inactive)
REMARK    1  A    between atoms: C_9  and  C_1 
REMARK    2  A    between atoms: C_6  and  C_4 
REMARK    3  A    between atoms: C_5  and  C_6 
REMARK    4  A    between atoms: C_8  and  C_5 
REMARK    5  A    between atoms: C_11  and  C_8 
ROOT
ATOM      1  C   UNL d   1      32.942  20.613 -21.661  0.00  0.00     0.100 A 
ATOM      2  O   UNL d   1      32.853  20.391 -22.476  0.00  0.00    -0.307 OA
ATOM      3  C   UNL d   1      33.168  19.989 -21.257  0.00  0.00     0.027 A 
ATOM      4  C   UNL d   1      33.049  19.580 -22.507  0.00  0.00     0.100 A 
ATOM      5  C   UNL d   1      33.240  19.348 -21.753  0.00  0.00     0.027 A 
ENDROOT
BRANCH   4   6
ATOM      6  C   UNL d   1      33.071  19.047 -23.136  0.00  0.00     0.028 C 
BRANCH   6   7
ATOM      7  C   UNL d   1      32.462  18.525 -23.243  0.00  0.00     0.044 C 
BRANCH   7   8
ATOM      8  C   UNL d   1      32.455  18.032 -23.904  0.00  0.00     0.196 C 
ATOM      9  O   UNL d   1      33.078  18.098 -24.465  0.00  0.00    -0.287 OA
BRANCH   8  10
ATOM     10  C   UNL d   1      31.851  17.493 -24.003  0.00  0.00     0.039 A 
ATOM     11  C   UNL d   1      31.139  17.707 -24.378  0.00  0.00     0.003 A 
ATOM     12  C   UNL d   1      30.532  17.163 -24.478  0.00  0.00     0.000 A 
ATOM     13  C   UNL d   1      30.630  16.387 -24.199  0.00  0.00     0.000 A 
ATOM     14  C   UNL d   1      31.337  16.174 -23.825  0.00  0.00     0.000 A 
ATOM     15  C   UNL d   1      31.931  16.721 -23.733  0.00  0.00     0.003 A 
ENDBRANCH   8  10
ENDBRANCH   7   8
ENDBRANCH   6   7
ENDBRANCH   4   6
BRANCH   1  16
ATOM     16  C   UNL d   1      32.773  21.407 -21.501  0.00  0.00     0.023 A 
ATOM     17  C   UNL d   1      33.154  22.009 -21.941  0.00  0.00     0.002 A 
ATOM     18  C   UNL d   1      32.981  22.804 -21.777  0.00  0.00     0.000 A 
ATOM     19  C   UNL d   1      32.449  22.995 -21.198  0.00  0.00     0.000 A 
ATOM     20  C   UNL d   1      32.064  22.393 -20.754  0.00  0.00     0.000 A 
ATOM     21  C   UNL d   1      32.237  21.598 -20.918  0.00  0.00     0.002 A 
ENDBRANCH   1  16
TORSDOF 5
ENDMDL
MODEL 2
REMARK VINA RESULT:      -3.8      0.616      5.003
REMARK  5 active torsions:
REMARK  status: ('A' for Active; 'I' for Inactive)
REMARK    1  A    between atoms: C_9  and  C_1 
REMARK    2  A    between atoms: C_6  and  C_4 
REMARK    3  A    between atoms: C_5  and  C_6 
REMARK    4  A    between atoms: C_8  and  C_5 
REMARK    5  A    between atoms: C_11  and  C_8 
ROOT
ATOM      1  C   UNL d   1      32.235  18.013 -23.875  0.00  0.00     0.100 A 
ATOM      2  O   UNL d   1      32.207  18.299 -23.075  0.00  0.00    -0.307 OA
ATOM      3  C   UNL d   1      32.845  18.335 -24.232  0.00  0.00     0.027 A 
ATOM      4  C   UNL d   1      32.859  18.817 -23.003  0.00  0.00     0.100 A 
ATOM      5  C   UNL d   1      33.239  18.829 -23.719  0.00  0.00     0.027 A 
ENDROOT
BRANCH   4   6
ATOM      6  C   UNL d   1      33.131  19.266 -22.367  0.00  0.00     0.028 C 
BRANCH   6   7
ATOM      7  C   UNL d   1      32.863  20.022 -22.264  0.00  0.00     0.044 C 
BRANCH   7   8
ATOM      8  C   UNL d   1      32.961  20.396 -21.535  0.00  0.00     0.196 C 
ATOM      9  O   UNL d   1      33.237  19.945 -20.882  0.00  0.00    -0.287 OA
BRANCH   8  10
ATOM     10  C   UNL d   1      32.790  21.190 -21.459  0.00  0.00     0.039 A 
ATOM     11  C   UNL d   1      32.275  21.466 -20.866  0.00  0.00     0.003 A 
ATOM     12  C   UNL d   1      32.104  22.265 -20.790  0.00  0.00     0.000 A 
ATOM     13  C   UNL d   1      32.450  22.808 -21.315  0.00  0.00     0.000 A 
ATOM     14  C   UNL d   1      32.963  22.534 -21.906  0.00  0.00     0.000 A 
ATOM     15  C   UNL d   1      33.124  21.740 -21.970  0.00  0.00     0.003 A 
ENDBRANCH   8  10
ENDBRANCH   7   8
ENDBRANCH   6   7
ENDBRANCH   4   6
BRANCH   1  16
ATOM     16  C   UNL d   1      31.631  17.483 -24.070  0.00  0.00     0.023 A 
ATOM     17  C   UNL d   1      31.056  17.701 -24.640  0.00  0.00     0.002 A 
ATOM     18  C   UNL d   1      30.452  17.165 -24.833  0.00  0.00     0.000 A 
ATOM     19  C   UNL d   1      30.419  16.441 -24.474  0.00  0.00     0.000 A 
ATOM     20  C   UNL d   1      30.994  16.219 -23.902  0.00  0.00     0.000 A 
ATOM     21  C   UNL d   1      31.598  16.754 -23.709  0.00  0.00     0.002 A 
ENDBRANCH   1  16
TORSDOF 5
ENDMDL
MODEL 3
REMARK VINA RESULT:      -3.2      1.384      5.144
REMARK  5 active torsions:
REMARK  status: ('A' for Active; 'I' for Inactive)
REMARK    1  A    between atoms: C_9  and  C_1 
REMARK    2  A    between atoms: C_6  and  C_4 
REMARK    3  A    between atoms: C_5  and  C_6 
REMARK    4  A    between atoms: C_8  and  C_5 
REMARK    5  A    between atoms: C_11  and  C_8 
ROOT
ATOM      1  C   UNL d   1      30.429  16.405 -24.181  0.00  0.00     0.100 A 
ATOM      2  O   UNL d   1      30.751  17.184 -24.074  0.00  0.00    -0.307 OA
ATOM      3  C   UNL d   1      30.984  15.946 -24.473  0.00  0.00     0.027 A 
ATOM      4  C   UNL d   1      31.544  17.134 -24.331  0.00  0.00     0.100 A 
ATOM      5  C   UNL d   1      31.672  16.370 -24.573  0.00  0.00     0.027 A 
ENDROOT
BRANCH   4   6
ATOM      6  C   UNL d   1      32.144  17.698 -24.367  0.00  0.00     0.028 C 
BRANCH   6   7
ATOM      7  C   UNL d   1      32.336  18.124 -23.706  0.00  0.00     0.044 C 
BRANCH   7   8
ATOM      8  C   UNL d   1      32.852  18.764 -23.766  0.00  0.00     0.196 C 
ATOM      9  O   UNL d   1      33.241  18.904 -24.498  0.00  0.00    -0.287 OA
BRANCH   8  10
ATOM     10  C   UNL d   1      32.976  19.248 -23.121  0.00  0.00     0.039 A 
ATOM     11  C   UNL d   1      33.116  18.931 -22.364  0.00  0.00     0.003 A 
ATOM     12  C   UNL d   1      33.241  19.419 -21.716  0.00  0.00     0.000 A 
ATOM     13  C   UNL d   1      33.227  20.244 -21.818  0.00  0.00     0.000 A 
ATOM     14  C   UNL d   1      33.088  20.560 -22.570  0.00  0.00     0.000 A 
ATOM     15  C   UNL d   1      32.966  20.066 -23.203  0.00  0.00     0.003 A 
ENDBRANCH   8  10
ENDBRANCH   7   8
ENDBRANCH   6   7
ENDBRANCH   4   6
BRANCH   1  16
ATOM     16  C   UNL d   1      29.637  16.328 -23.958  0.00  0.00     0.023 A 
ATOM     17  C   UNL d   1      29.404  15.686 -23.472  0.00  0.00     0.002 A 
ATOM     18  C   UNL d   1      28.607  15.613 -23.250  0.00  0.00     0.000 A 
ATOM     19  C   UNL d   1      28.062  16.155 -23.501  0.00  0.00     0.000 A 
ATOM     20  C   UNL d   1      28.292  16.801 -23.989  0.00  0.00     0.000 A 
ATOM     21  C   UNL d   1      29.089  16.874 -24.210  0.00  0.00     0.002 A 
ENDBRANCH   1  16
TORSDOF 5
ENDMDL
MODEL 4
REMARK VINA RESULT:      -2.9      1.745      5.274
REMARK  5 active torsions:
REMARK  status: ('A' for Active; 'I' for Inactive)
REMARK    1  A    between atoms: C_9  and  C_1 
REMARK    2  A    between atoms: C_6  and  C_4 
REMARK    3  A    between atoms: C_5  and  C_6 
REMARK    4  A    between atoms: C_8  and  C_5 
REMARK    5  A    between atoms: C_11  and  C_8 
ROOT
ATOM      1  C   UNL d   1      29.627  16.482 -24.292  0.00  0.00     0.100 A 
ATOM      2  O   UNL d   1      30.259  16.655 -23.752  0.00  0.00    -0.307 OA
ATOM      3  C   UNL d   1      29.915  16.467 -25.014  0.00  0.00     0.027 A 
ATOM      4  C   UNL d   1      30.940  16.739 -24.227  0.00  0.00     0.100 A 
ATOM      5  C   UNL d   1      30.714  16.621 -24.998  0.00  0.00     0.027 A 
ENDROOT
BRANCH   4   6
ATOM      6  C   UNL d   1      31.724  16.907 -24.034  0.00  0.00     0.028 C 
BRANCH   6   7
ATOM      7  C   UNL d   1      31.943  17.667 -23.865  0.00  0.00     0.044 C 
BRANCH   7   8
ATOM      8  C   UNL d   1      32.685  17.818 -23.539  0.00  0.00     0.196 C 
ATOM      9  O   UNL d   1      33.241  17.189 -23.490  0.00  0.00    -0.287 OA
BRANCH   8  10
ATOM     10  C   UNL d   1      32.868  18.566 -23.273  0.00  0.00     0.039 A 
ATOM     11  C   UNL d   1      32.993  19.195 -23.805  0.00  0.00     0.003 A 
ATOM     12  C   UNL d   1      33.178  19.949 -23.536  0.00  0.00     0.000 A 
ATOM     13  C   UNL d   1      33.241  20.086 -22.719  0.00  0.00     0.000 A 
ATOM     14  C   UNL d   1      33.117  19.461 -22.190  0.00  0.00     0.000 A 
ATOM     15  C   UNL d   1      32.935  18.720 -22.469  0.00  0.00     0.003 A 
ENDBRANCH   8  10
ENDBRANCH   7   8
ENDBRANCH   6   7
ENDBRANCH   4   6
BRANCH   1  16
ATOM     16  C   UNL d   1      28.889  16.376 -23.935  0.00  0.00     0.023 A 
ATOM     17  C   UNL d   1      28.542  15.613 -23.917  0.00  0.00     0.002 A 
ATOM     18  C   UNL d   1      27.801  15.512 -23.557  0.00  0.00     0.000 A 
ATOM     19  C   UNL d   1      27.418  16.143 -23.226  0.00  0.00     0.000 A 
ATOM     20  C   UNL d   1      27.763  16.910 -23.241  0.00  0.00     0.000 A 
ATOM     21  C   UNL d   1      28.504  17.011 -23.602  0.00  0.00     0.002 A 
ENDBRANCH   1  16
TORSDOF 5
ENDMDL
MODEL 5
REMARK VINA RESULT:      -1.1      1.118      1.787
REMARK  5 active torsions:
REMARK  status: ('A' for Active; 'I' for Inactive)
REMARK    1  A    between atoms: C_9  and  C_1 
REMARK    2  A    between atoms: C_6  and  C_4 
REMARK    3  A    between atoms: C_5  and  C_6 
REMARK    4  A    between atoms: C_8  and  C_5 
REMARK    5  A    between atoms: C_11  and  C_8 
ROOT
ATOM      1  C   UNL d   1      32.999  19.394 -22.736  0.00  0.00     0.100 A 
ATOM      2  O   UNL d   1      32.819  18.921 -23.419  0.00  0.00    -0.307 OA
ATOM      3  C   UNL d   1      33.063  18.925 -22.120  0.00  0.00     0.027 A 
ATOM      4  C   UNL d   1      32.785  18.134 -23.140  0.00  0.00     0.100 A 
ATOM      5  C   UNL d   1      32.936  18.153 -22.342  0.00  0.00     0.027 A 
ENDROOT
BRANCH   4   6
ATOM      6  C   UNL d   1      32.634  17.423 -23.529  0.00  0.00     0.028 C 
BRANCH   6   7
ATOM      7  C   UNL d   1      31.967  17.345 -23.981  0.00  0.00     0.044 C 
BRANCH   7   8
ATOM      8  C   UNL d   1      31.748  16.602 -24.264  0.00  0.00     0.196 C 
ATOM      9  O   UNL d   1      32.322  15.987 -24.275  0.00  0.00    -0.287 OA
BRANCH   8  10
ATOM     10  C   UNL d   1      30.987  16.475 -24.527  0.00  0.00     0.039 A 
ATOM     11  C   UNL d   1      30.514  17.104 -24.801  0.00  0.00     0.003 A 
ATOM     12  C   UNL d   1      29.748  16.975 -25.065  0.00  0.00     0.000 A 
ATOM     13  C   UNL d   1      29.439  16.203 -25.058  0.00  0.00     0.000 A 
ATOM     14  C   UNL d   1      29.908  15.578 -24.786  0.00  0.00     0.000 A 
ATOM     15  C   UNL d   1      30.665  15.719 -24.528  0.00  0.00     0.003 A 
ENDBRANCH   8  10
ENDBRANCH   7   8
ENDBRANCH   6   7
ENDBRANCH   4   6
BRANCH   1  16
ATOM     16  C   UNL d   1      33.060  20.204 -22.887  0.00  0.00     0.023 A 
ATOM     17  C   UNL d   1      33.039  20.482 -23.677  0.00  0.00     0.002 A 
ATOM     18  C   UNL d   1      33.100  21.297 -23.823  0.00  0.00     0.000 A 
ATOM     19  C   UNL d   1      33.180  21.817 -23.209  0.00  0.00     0.000 A 
ATOM     20  C   UNL d   1      33.202  21.542 -22.414  0.00  0.00     0.000 A 
ATOM     21  C   UNL d   1      33.141  20.727 -22.268  0.00  0.00     0.002 A 
ENDBRANCH   1  16
TORSDOF 5
ENDMDL
