MODEL 1
REMARK VINA RESULT:      29.9      0.000      0.000
REMARK  4 active torsions:
REMARK  status: ('A' for Active; 'I' for Inactive)
REMARK    1  A    between atoms: N_4  and  C_1 
REMARK       I    between atoms: C_10  and  N_4 
REMARK    2  A    between atoms: C_7  and  C_8 
REMARK    3  A    between atoms: O_15  and  C_7 
REMARK    4  A    between atoms: C_17  and  O_15 
ROOT
ATOM      1  C   UNL d   1      57.994  49.625  50.400  0.00  0.00     0.197 A 
ATOM      2  N   UNL d   1      58.558  49.529  49.792  0.00  0.00    -0.221 NA
ATOM      3  S   UNL d   1      58.402  49.690  51.113  0.00  0.00    -0.047 SA
ATOM      4  C   UNL d   1      59.214  49.636  50.962  0.00  0.00     0.050 A 
ATOM      5  C   UNL d   1      59.311  49.535  50.139  0.00  0.00     0.090 A 
ATOM      6  C   UNL d   1      60.621  49.592  51.135  0.00  0.00     0.064 A 
ATOM      7  C   UNL d   1      59.874  49.663  51.456  0.00  0.00     0.013 A 
ATOM      8  C   UNL d   1      60.067  49.465  49.827  0.00  0.00     0.020 A 
ATOM      9  C   UNL d   1      60.719  49.492  50.311  0.00  0.00     0.007 A 
ENDROOT
BRANCH   6  10
ATOM     10  C   UNL d   1      61.292  49.618  51.618  0.00  0.00     0.300 C 
ATOM     11  O   UNL d   1      62.032  49.707  51.291  0.00  0.00    -0.259 OA
BRANCH  10  12
ATOM     12  O   UNL d   1      61.198  49.552  52.441  0.00  0.00    -0.271 OA
BRANCH  12  13
ATOM     13  C   UNL d   1      61.794  49.212  52.902  0.00  0.00     0.126 C 
ATOM     14  C   UNL d   1      62.361  49.681  53.251  0.00  0.00     0.029 C 
ENDBRANCH  12  13
ENDBRANCH  10  12
ENDBRANCH   6  10
BRANCH   1  15
ATOM     15  N   UNL d   1      57.173  49.650  50.300  0.00  0.00    -0.183 NA
ATOM     16  C   UNL d   1      56.847  49.581  49.546  0.00  0.00     0.281 C 
ATOM     17  O   UNL d   1      57.347  49.484  48.883  0.00  0.00    -0.265 OA
ATOM     18  C   UNL d   1      56.040  49.605  49.447  0.00  0.00     0.068 C 
ENDBRANCH   1  15
TORSDOF 4
ENDMDL
MODEL 2
REMARK VINA RESULT:      31.0      1.225      4.260
REMARK  4 active torsions:
REMARK  status: ('A' for Active; 'I' for Inactive)
REMARK    1  A    between atoms: N_4  and  C_1 
REMARK       I    between atoms: C_10  and  N_4 
REMARK    2  A    between atoms: C_7  and  C_8 
REMARK    3  A    between atoms: O_15  and  C_7 
REMARK    4  A    between atoms: C_17  and  O_15 
ROOT
ATOM      1  C   UNL d   1      60.171  49.658  51.098  0.00  0.00     0.197 A 
ATOM      2  N   UNL d   1      60.071  49.664  50.269  0.00  0.00    -0.221 NA
ATOM      3  S   UNL d   1      59.422  49.635  51.441  0.00  0.00    -0.047 SA
ATOM      4  C   UNL d   1      58.853  49.625  50.840  0.00  0.00     0.050 A 
ATOM      5  C   UNL d   1      59.257  49.643  50.109  0.00  0.00     0.090 A 
ATOM      6  C   UNL d   1      57.612  49.599  50.152  0.00  0.00     0.064 A 
ATOM      7  C   UNL d   1      58.028  49.603  50.855  0.00  0.00     0.013 A 
ATOM      8  C   UNL d   1      58.829  49.639  49.409  0.00  0.00     0.020 A 
ATOM      9  C   UNL d   1      58.016  49.617  49.422  0.00  0.00     0.007 A 
ENDROOT
BRANCH   6  10
ATOM     10  C   UNL d   1      56.786  49.576  50.152  0.00  0.00     0.300 C 
ATOM     11  O   UNL d   1      56.377  49.445  50.844  0.00  0.00    -0.259 OA
BRANCH  10  12
ATOM     12  O   UNL d   1      56.379  49.690  49.436  0.00  0.00    -0.271 OA
BRANCH  12  13
ATOM     13  C   UNL d   1      56.049  49.045  49.037  0.00  0.00     0.126 C 
ATOM     14  C   UNL d   1      56.506  48.396  48.859  0.00  0.00     0.029 C 
ENDBRANCH  12  13
ENDBRANCH  10  12
ENDBRANCH   6  10
BRANCH   1  15
ATOM     15  N   UNL d   1      60.894  49.674  51.499  0.00  0.00    -0.183 NA
ATOM     16  C   UNL d   1      61.228  48.972  51.775  0.00  0.00     0.281 C 
ATOM     17  O   UNL d   1      60.835  48.246  51.649  0.00  0.00    -0.265 OA
ATOM     18  C   UNL d   1      61.940  48.987  52.169  0.00  0.00     0.068 C 
ENDBRANCH   1  15
TORSDOF 4
ENDMDL
