MODEL 1
REMARK VINA RESULT:      48.2      0.000      0.000
REMARK  4 active torsions:
REMARK  status: ('A' for Active; 'I' for Inactive)
REMARK    1  A    between atoms: C_6  and  C_1 
REMARK    2  A    between atoms: C_8  and  N_3 
REMARK       I    between atoms: N_7  and  C_6 
REMARK    3  A    between atoms: C_9  and  N_7 
REMARK    4  A    between atoms: O_19  and  C_16 
ROOT
ATOM      1  C   UNL d   1      14.227  13.447  -2.011  0.00  0.00     0.199 A 
ATOM      2  C   UNL d   1      14.417  14.247  -2.016  0.00  0.00     0.211 A 
ATOM      3  N   UNL d   1      14.725  14.444  -1.279  0.00  0.00    -0.191 N 
ATOM      4  N   UNL d   1      14.726  13.760  -0.814  0.00  0.00    -0.058 NA
ATOM      5  N   UNL d   1      14.419  13.143  -1.260  0.00  0.00    -0.122 NA
ATOM      6  N   UNL d   1      14.316  14.761  -2.651  0.00  0.00    -0.125 N 
ENDROOT
BRANCH   1   7
ATOM      7  C   UNL d   1      13.901  13.019  -2.640  0.00  0.00     0.302 C 
ATOM      8  N   UNL d   1      13.738  13.405  -3.357  0.00  0.00    -0.204 NA
ATOM      9  O   UNL d   1      13.740  12.215  -2.557  0.00  0.00    -0.263 OA
BRANCH   8  10
ATOM     10  C   UNL d   1      13.414  12.972  -3.981  0.00  0.00     0.112 A 
ATOM     11  C   UNL d   1      13.379  13.312  -4.731  0.00  0.00     0.158 A 
ATOM     12  F   UNL d   1      13.665  14.071  -4.857  0.00  0.00    -0.203 F 
ATOM     13  C   UNL d   1      13.053  12.880  -5.365  0.00  0.00     0.031 A 
ATOM     14  C   UNL d   1      12.769  12.122  -5.234  0.00  0.00     0.002 A 
ATOM     15  C   UNL d   1      12.804  11.782  -4.479  0.00  0.00     0.002 A 
ATOM     16  C   UNL d   1      13.129  12.214  -3.855  0.00  0.00     0.021 A 
ENDBRANCH   8  10
ENDBRANCH   1   7
BRANCH   3  17
ATOM     17  C   UNL d   1      14.987  15.189  -1.044  0.00  0.00     0.086 A 
ATOM     18  C   UNL d   1      15.501  15.262  -0.403  0.00  0.00     0.021 A 
ATOM     19  C   UNL d   1      15.763  16.008  -0.168  0.00  0.00     0.026 A 
ATOM     20  C   UNL d   1      15.511  16.681  -0.575  0.00  0.00     0.094 A 
ATOM     21  C   UNL d   1      14.998  16.607  -1.216  0.00  0.00     0.026 A 
ATOM     22  C   UNL d   1      14.736  15.861  -1.451  0.00  0.00     0.021 A 
BRANCH  20  23
ATOM     23  O   UNL d   1      15.774  17.427  -0.340  0.00  0.00    -0.328 OA
ATOM     24  C   UNL d   1      15.603  18.088  -0.803  0.00  0.00     0.181 C 
ENDBRANCH  20  23
ENDBRANCH   3  17
TORSDOF 4
ENDMDL
