MODEL 1
REMARK VINA RESULT:      43.7      0.000      0.000
REMARK  4 active torsions:
REMARK  status: ('A' for Active; 'I' for Inactive)
REMARK    1  A    between atoms: C_3  and  C_1 
REMARK    2  A    between atoms: N_10  and  C_3 
REMARK    3  A    between atoms: C_13  and  C_3 
REMARK    4  A    between atoms: C_5  and  N_10 
ROOT
ATOM      1  C   UNL d   1      14.243  12.932  -2.859  0.00  0.00     0.086 C 
ENDROOT
BRANCH   1   2
ATOM      2  C   UNL d   1      14.094  12.526  -2.146  0.00  0.00     0.037 A 
ATOM      3  C   UNL d   1      13.405  12.077  -1.982  0.00  0.00     0.083 A 
ATOM      4  N   UNL d   1      13.467  11.779  -1.256  0.00  0.00    -0.245 NA
ATOM      5  C   UNL d   1      12.770  11.966  -2.494  0.00  0.00     0.021 C 
ATOM      6  C   UNL d   1      14.177  12.013  -0.924  0.00  0.00     0.081 A 
ATOM      7  C   UNL d   1      14.570  12.481  -1.482  0.00  0.00     0.021 A 
ATOM      8  C   UNL d   1      14.518  11.863  -0.189  0.00  0.00     0.019 A 
ATOM      9  C   UNL d   1      15.301  12.794  -1.298  0.00  0.00     0.002 A 
ATOM     10  C   UNL d   1      15.651  12.654  -0.574  0.00  0.00     0.000 A 
ATOM     11  C   UNL d   1      15.258  12.185  -0.016  0.00  0.00     0.002 A 
ENDBRANCH   1   2
BRANCH   1  12
ATOM     12  N   UNL d   1      14.725  13.588  -2.857  0.00  0.00    -0.225 NA
BRANCH  12  13
ATOM     13  C   UNL d   1      14.401  14.309  -3.024  0.00  0.00     0.191 A 
ATOM     14  N   UNL d   1      13.608  14.578  -3.165  0.00  0.00    -0.107 NA
ATOM     15  O   UNL d   1      13.628  15.384  -3.307  0.00  0.00    -0.210 OA
ATOM     16  C   UNL d   1      14.406  15.643  -3.263  0.00  0.00     0.128 A 
ATOM     17  C   UNL d   1      14.889  14.985  -3.088  0.00  0.00     0.068 A 
ATOM     18  C   UNL d   1      14.628  16.433  -3.378  0.00  0.00     0.029 C 
ENDBRANCH  12  13
ENDBRANCH   1  12
BRANCH   1  19
ATOM     19  C   UNL d   1      13.896  12.659  -3.554  0.00  0.00     0.037 A 
ATOM     20  C   UNL d   1      14.314  12.194  -4.053  0.00  0.00     0.100 A 
ATOM     21  N   UNL d   1      13.988  11.908  -4.756  0.00  0.00    -0.242 NA
ATOM     22  C   UNL d   1      13.199  12.117  -4.938  0.00  0.00     0.099 A 
ATOM     23  C   UNL d   1      12.774  12.598  -4.418  0.00  0.00     0.021 A 
ATOM     24  C   UNL d   1      13.104  12.874  -3.729  0.00  0.00     0.005 A 
ENDBRANCH   1  19
TORSDOF 4
ENDMDL
