MODEL 1
REMARK VINA RESULT:      58.7      0.000      0.000
REMARK  5 active torsions:
REMARK  status: ('A' for Active; 'I' for Inactive)
REMARK    1  A    between atoms: N_3  and  S_1 
REMARK    2  A    between atoms: C_4  and  S_1 
REMARK    3  A    between atoms: S_2  and  N_5 
REMARK    4  A    between atoms: C_8  and  N_3 
REMARK    5  A    between atoms: N_5  and  C_15 
ROOT
ATOM      1  N   UNL d   1     -49.677  25.125  33.593  0.00  0.00    -0.229 N 
ATOM      2  C   UNL d   1     -49.011  24.681  33.405  0.00  0.00     0.111 C 
ENDROOT
BRANCH   1   3
ATOM      3  S   UNL d   1     -50.430  24.784  33.535  0.00  0.00     0.271 S 
ATOM      4  O   UNL d   1     -50.345  25.554  33.818  0.00  0.00    -0.200 OA
ATOM      5  O   UNL d   1     -49.758  24.346  33.306  0.00  0.00    -0.200 OA
BRANCH   3   6
ATOM      6  C   UNL d   1     -51.183  24.442  33.477  0.00  0.00     0.104 A 
ATOM      7  C   UNL d   1     -51.268  23.622  33.486  0.00  0.00     0.013 A 
ATOM      8  C   UNL d   1     -52.007  23.287  33.429  0.00  0.00     0.001 A 
ATOM      9  C   UNL d   1     -52.674  23.764  33.363  0.00  0.00     0.000 A 
ATOM     10  C   UNL d   1     -52.595  24.584  33.354  0.00  0.00     0.001 A 
ATOM     11  C   UNL d   1     -53.423  23.414  33.306  0.00  0.00     0.000 C 
ATOM     12  C   UNL d   1     -51.852  24.921  33.411  0.00  0.00     0.013 A 
ENDBRANCH   3   6
ENDBRANCH   1   3
BRANCH   1  13
ATOM     13  C   UNL d   1     -49.598  25.911  33.838  0.00  0.00     0.075 A 
ATOM     14  C   UNL d   1     -49.753  26.526  33.306  0.00  0.00     0.020 A 
ATOM     15  C   UNL d   1     -49.673  27.308  33.554  0.00  0.00     0.021 A 
ATOM     16  C   UNL d   1     -49.438  27.478  34.334  0.00  0.00     0.094 A 
ATOM     17  C   UNL d   1     -49.286  26.858  34.859  0.00  0.00     0.021 A 
ATOM     18  C   UNL d   1     -49.366  26.079  34.611  0.00  0.00     0.020 A 
BRANCH  16  19
ATOM     19  N   UNL d   1     -49.359  28.264  34.581  0.00  0.00    -0.162 NA
BRANCH  19  20
ATOM     20  S   UNL d   1     -48.821  28.462  35.187  0.00  0.00     0.266 S 
ATOM     21  O   UNL d   1     -48.827  28.045  35.895  0.00  0.00    -0.203 OA
ATOM     22  O   UNL d   1     -48.818  28.882  34.466  0.00  0.00    -0.203 OA
ATOM     23  C   UNL d   1     -48.280  29.080  35.071  0.00  0.00     0.165 C 
ENDBRANCH  19  20
ENDBRANCH  16  19
ENDBRANCH   1  13
TORSDOF 5
ENDMDL
