MODEL 1
REMARK VINA RESULT:      -5.8      0.000      0.000
REMARK  1 active torsions:
REMARK  status: ('A' for Active; 'I' for Inactive)
REMARK    1  A    between atoms: C_6  and  C_1 
ROOT
ATOM      1  C   UNL d   1     -41.564-122.604 -52.944  0.00  0.00     0.111 A 
ATOM      2  N   UNL d   1     -42.112-122.074 -53.259  0.00  0.00    -0.239 NA
ATOM      3  S   UNL d   1     -41.132-122.947 -53.568  0.00  0.00    -0.066 SA
ATOM      4  C   UNL d   1     -42.022-122.086 -54.077  0.00  0.00     0.088 A 
ATOM      5  C   UNL d   1     -41.422-122.620 -54.266  0.00  0.00     0.049 A 
ATOM      6  C   UNL d   1     -42.414-121.674 -54.686  0.00  0.00     0.020 A 
ATOM      7  C   UNL d   1     -41.218-122.739 -55.063  0.00  0.00     0.008 A 
ATOM      8  C   UNL d   1     -41.607-122.330 -55.672  0.00  0.00     0.001 A 
ATOM      9  C   UNL d   1     -42.207-121.796 -55.483  0.00  0.00     0.002 A 
ENDROOT
BRANCH   1  10
ATOM     10  C   UNL d   1     -41.421-122.801 -52.174  0.00  0.00     0.025 A 
ATOM     11  C   UNL d   1     -41.417-122.226 -51.553  0.00  0.00     0.023 A 
ATOM     12  C   UNL d   1     -41.274-122.432 -50.788  0.00  0.00     0.103 A 
ATOM     13  N   UNL d   1     -41.280-121.836 -50.216  0.00  0.00    -0.148 N 
ATOM     14  C   UNL d   1     -41.123-123.252 -50.604  0.00  0.00     0.021 A 
ATOM     15  C   UNL d   1     -41.124-123.817 -51.194  0.00  0.00     0.002 A 
ATOM     16  C   UNL d   1     -41.273-123.582 -51.966  0.00  0.00     0.002 A 
ENDBRANCH   1  10
TORSDOF 1
ENDMDL
MODEL 2
REMARK VINA RESULT:      -5.4      0.816      3.599
REMARK  1 active torsions:
REMARK  status: ('A' for Active; 'I' for Inactive)
REMARK    1  A    between atoms: C_6  and  C_1 
ROOT
ATOM      1  C   UNL d   1     -41.401-122.767 -52.842  0.00  0.00     0.111 A 
ATOM      2  N   UNL d   1     -41.431-122.142 -52.304  0.00  0.00    -0.239 NA
ATOM      3  S   UNL d   1     -41.288-123.477 -52.421  0.00  0.00    -0.066 SA
ATOM      4  C   UNL d   1     -41.335-122.461 -51.552  0.00  0.00     0.088 A 
ATOM      5  C   UNL d   1     -41.248-123.278 -51.624  0.00  0.00     0.049 A 
ATOM      6  C   UNL d   1     -41.316-122.109 -50.797  0.00  0.00     0.020 A 
ATOM      7  C   UNL d   1     -41.142-123.738 -50.940  0.00  0.00     0.008 A 
ATOM      8  C   UNL d   1     -41.123-123.390 -50.186  0.00  0.00     0.001 A 
ATOM      9  C   UNL d   1     -41.210-122.573 -50.114  0.00  0.00     0.002 A 
ENDROOT
BRANCH   1  10
ATOM     10  C   UNL d   1     -41.465-122.759 -53.646  0.00  0.00     0.025 A 
ATOM     11  C   UNL d   1     -41.880-122.148 -54.062  0.00  0.00     0.023 A 
ATOM     12  C   UNL d   1     -41.939-122.149 -54.865  0.00  0.00     0.103 A 
ATOM     13  N   UNL d   1     -42.353-121.532 -55.225  0.00  0.00    -0.148 N 
ATOM     14  C   UNL d   1     -41.572-122.782 -55.304  0.00  0.00     0.021 A 
ATOM     15  C   UNL d   1     -41.168-123.377 -54.915  0.00  0.00     0.002 A 
ATOM     16  C   UNL d   1     -41.123-123.355 -54.096  0.00  0.00     0.002 A 
ENDBRANCH   1  10
TORSDOF 1
ENDMDL
MODEL 3
REMARK VINA RESULT:      -5.1      1.890      4.450
REMARK  1 active torsions:
REMARK  status: ('A' for Active; 'I' for Inactive)
REMARK    1  A    between atoms: C_6  and  C_1 
ROOT
ATOM      1  C   UNL d   1     -41.752-122.832 -50.480  0.00  0.00     0.111 A 
ATOM      2  N   UNL d   1     -42.492-122.794 -50.117  0.00  0.00    -0.239 NA
ATOM      3  S   UNL d   1     -41.184-123.050 -49.911  0.00  0.00    -0.066 SA
ATOM      4  C   UNL d   1     -42.385-122.988 -49.324  0.00  0.00     0.088 A 
ATOM      5  C   UNL d   1     -41.585-123.144 -49.198  0.00  0.00     0.049 A 
ATOM      6  C   UNL d   1     -42.921-123.043 -48.689  0.00  0.00     0.020 A 
ATOM      7  C   UNL d   1     -41.326-123.355 -48.438  0.00  0.00     0.008 A 
ATOM      8  C   UNL d   1     -41.857-123.411 -47.801  0.00  0.00     0.001 A 
ATOM      9  C   UNL d   1     -42.657-123.255 -47.927  0.00  0.00     0.002 A 
ENDROOT
BRANCH   1  10
ATOM     10  C   UNL d   1     -41.547-122.694 -51.249  0.00  0.00     0.025 A 
ATOM     11  C   UNL d   1     -41.482-123.318 -51.819  0.00  0.00     0.023 A 
ATOM     12  C   UNL d   1     -41.277-123.170 -52.583  0.00  0.00     0.103 A 
ATOM     13  N   UNL d   1     -41.226-123.810 -53.103  0.00  0.00    -0.148 N 
ATOM     14  C   UNL d   1     -41.123-122.364 -52.820  0.00  0.00     0.021 A 
ATOM     15  C   UNL d   1     -41.182-121.754 -52.280  0.00  0.00     0.002 A 
ATOM     16  C   UNL d   1     -41.393-121.930 -51.507  0.00  0.00     0.002 A 
ENDBRANCH   1  10
TORSDOF 1
ENDMDL
MODEL 4
REMARK VINA RESULT:      -4.8      1.819      2.859
REMARK  1 active torsions:
REMARK  status: ('A' for Active; 'I' for Inactive)
REMARK    1  A    between atoms: C_6  and  C_1 
ROOT
ATOM      1  C   UNL d   1     -41.844-123.035 -50.292  0.00  0.00     0.111 A 
ATOM      2  N   UNL d   1     -41.804-122.316 -50.695  0.00  0.00    -0.239 NA
ATOM      3  S   UNL d   1     -41.645-123.649 -50.818  0.00  0.00    -0.066 SA
ATOM      4  C   UNL d   1     -41.579-122.482 -51.469  0.00  0.00     0.088 A 
ATOM      5  C   UNL d   1     -41.482-123.298 -51.544  0.00  0.00     0.049 A 
ATOM      6  C   UNL d   1     -41.448-121.989 -52.128  0.00  0.00     0.020 A 
ATOM      7  C   UNL d   1     -41.254-123.616 -52.278  0.00  0.00     0.008 A 
ATOM      8  C   UNL d   1     -41.123-123.127 -52.937  0.00  0.00     0.001 A 
ATOM      9  C   UNL d   1     -41.220-122.311 -52.861  0.00  0.00     0.002 A 
ENDROOT
BRANCH   1  10
ATOM     10  C   UNL d   1     -42.038-123.185 -49.523  0.00  0.00     0.025 A 
ATOM     11  C   UNL d   1     -41.489-123.070 -48.888  0.00  0.00     0.023 A 
ATOM     12  C   UNL d   1     -41.691-123.222 -48.123  0.00  0.00     0.103 A 
ATOM     13  N   UNL d   1     -41.123-123.096 -47.538  0.00  0.00    -0.148 N 
ATOM     14  C   UNL d   1     -42.479-123.505 -47.954  0.00  0.00     0.021 A 
ATOM     15  C   UNL d   1     -43.017-123.620 -48.558  0.00  0.00     0.002 A 
ATOM     16  C   UNL d   1     -42.788-123.458 -49.329  0.00  0.00     0.002 A 
ENDBRANCH   1  10
TORSDOF 1
ENDMDL
