MODEL 1
REMARK VINA RESULT:      -5.3      0.000      0.000
REMARK  2 active torsions:
REMARK  status: ('A' for Active; 'I' for Inactive)
REMARK    1  A    between atoms: N_7  and  C_2 
REMARK    2  A    between atoms: C_10  and  N_7 
ROOT
ATOM      1  N   UNL d   1     -41.260-122.217 -52.106  0.00  0.00     0.002 N 
ATOM      2  C   UNL d   1     -41.387-122.750 -51.489  0.00  0.00     0.773 A 
ATOM      3  C   UNL d   1     -41.273-122.492 -52.882  0.00  0.00     0.317 A 
ATOM      4  N   UNL d   1     -41.527-123.555 -51.649  0.00  0.00     0.046 NA
ATOM      5  N   UNL d   1     -41.538-123.817 -52.425  0.00  0.00    -0.127 NA
ATOM      6  C   UNL d   1     -41.413-123.297 -53.042  0.00  0.00     0.162 A 
ATOM      7  O   UNL d   1     -41.141-121.935 -53.509  0.00  0.00    -0.263 OA
ATOM      8  N   UNL d   1     -41.123-121.427 -51.949  0.00  0.00    -0.023 N 
ATOM      9  C   UNL d   1     -41.426-123.572 -53.835  0.00  0.00     0.028 C 
ENDROOT
BRANCH   2  10
ATOM     10  N   UNL d   1     -41.372-122.456 -50.691  0.00  0.00    -0.058 NA
BRANCH  10  11
ATOM     11  C   UNL d   1     -41.787-122.843 -50.081  0.00  0.00     0.100 A 
ATOM     12  C   UNL d   1     -41.397-123.392 -49.621  0.00  0.00     0.020 A 
ATOM     13  C   UNL d   1     -41.814-123.780 -49.008  0.00  0.00     0.002 A 
ATOM     14  C   UNL d   1     -42.602-123.602 -48.883  0.00  0.00     0.000 A 
ATOM     15  C   UNL d   1     -42.986-123.053 -49.344  0.00  0.00     0.002 A 
ATOM     16  C   UNL d   1     -42.569-122.665 -49.958  0.00  0.00     0.020 A 
ENDBRANCH  10  11
ENDBRANCH   2  10
TORSDOF 2
ENDMDL
MODEL 2
REMARK VINA RESULT:      -5.2      1.501      2.303
REMARK  2 active torsions:
REMARK  status: ('A' for Active; 'I' for Inactive)
REMARK    1  A    between atoms: N_7  and  C_2 
REMARK    2  A    between atoms: C_10  and  N_7 
ROOT
ATOM      1  N   UNL d   1     -41.482-123.079 -54.049  0.00  0.00     0.002 N 
ATOM      2  C   UNL d   1     -41.493-122.637 -53.353  0.00  0.00     0.773 A 
ATOM      3  C   UNL d   1     -41.838-122.773 -54.725  0.00  0.00     0.317 A 
ATOM      4  N   UNL d   1     -41.859-121.889 -53.335  0.00  0.00     0.046 NA
ATOM      5  N   UNL d   1     -42.210-121.593 -54.014  0.00  0.00    -0.127 NA
ATOM      6  C   UNL d   1     -42.204-122.025 -54.707  0.00  0.00     0.162 A 
ATOM      7  O   UNL d   1     -41.821-123.238 -55.436  0.00  0.00    -0.263 OA
ATOM      8  N   UNL d   1     -41.123-123.814 -54.067  0.00  0.00    -0.023 N 
ATOM      9  C   UNL d   1     -42.565-121.718 -55.400  0.00  0.00     0.028 C 
ENDROOT
BRANCH   2  10
ATOM     10  N   UNL d   1     -41.123-122.962 -52.661  0.00  0.00    -0.058 NA
BRANCH  10  11
ATOM     11  C   UNL d   1     -41.359-122.730 -51.896  0.00  0.00     0.100 A 
ATOM     12  C   UNL d   1     -41.819-123.237 -51.451  0.00  0.00     0.020 A 
ATOM     13  C   UNL d   1     -42.057-123.004 -50.683  0.00  0.00     0.002 A 
ATOM     14  C   UNL d   1     -41.824-122.276 -50.395  0.00  0.00     0.000 A 
ATOM     15  C   UNL d   1     -41.366-121.774 -50.842  0.00  0.00     0.002 A 
ATOM     16  C   UNL d   1     -41.128-122.006 -51.610  0.00  0.00     0.020 A 
ENDBRANCH  10  11
ENDBRANCH   2  10
TORSDOF 2
ENDMDL
MODEL 3
REMARK VINA RESULT:      -3.7      2.266      3.901
REMARK  2 active torsions:
REMARK  status: ('A' for Active; 'I' for Inactive)
REMARK    1  A    between atoms: N_7  and  C_2 
REMARK    2  A    between atoms: C_10  and  N_7 
ROOT
ATOM      1  N   UNL d   1     -42.745-123.574 -48.788  0.00  0.00     0.002 N 
ATOM      2  C   UNL d   1     -42.202-123.466 -49.400  0.00  0.00     0.773 A 
ATOM      3  C   UNL d   1     -42.469-123.653 -48.017  0.00  0.00     0.317 A 
ATOM      4  N   UNL d   1     -41.386-123.436 -49.239  0.00  0.00     0.046 NA
ATOM      5  N   UNL d   1     -41.123-123.516 -48.467  0.00  0.00    -0.127 NA
ATOM      6  C   UNL d   1     -41.653-123.624 -47.856  0.00  0.00     0.162 A 
ATOM      7  O   UNL d   1     -43.037-123.765 -47.395  0.00  0.00    -0.263 OA
ATOM      8  N   UNL d   1     -43.547-123.603 -48.947  0.00  0.00    -0.023 N 
ATOM      9  C   UNL d   1     -41.378-123.705 -47.067  0.00  0.00     0.028 C 
ENDROOT
BRANCH   2  10
ATOM     10  N   UNL d   1     -42.497-123.386 -50.193  0.00  0.00    -0.058 NA
BRANCH  10  11
ATOM     11  C   UNL d   1     -42.033-123.040 -50.793  0.00  0.00     0.100 A 
ATOM     12  C   UNL d   1     -41.660-123.522 -51.335  0.00  0.00     0.020 A 
ATOM     13  C   UNL d   1     -41.194-123.175 -51.937  0.00  0.00     0.002 A 
ATOM     14  C   UNL d   1     -41.123-122.362 -51.971  0.00  0.00     0.000 A 
ATOM     15  C   UNL d   1     -41.497-121.885 -51.428  0.00  0.00     0.002 A 
ATOM     16  C   UNL d   1     -41.963-122.232 -50.826  0.00  0.00     0.020 A 
ENDBRANCH  10  11
ENDBRANCH   2  10
TORSDOF 2
ENDMDL
MODEL 4
REMARK VINA RESULT:      -3.4      0.885      1.522
REMARK  2 active torsions:
REMARK  status: ('A' for Active; 'I' for Inactive)
REMARK    1  A    between atoms: N_7  and  C_2 
REMARK    2  A    between atoms: C_10  and  N_7 
ROOT
ATOM      1  N   UNL d   1     -41.298-123.038 -51.700  0.00  0.00     0.002 N 
ATOM      2  C   UNL d   1     -41.385-122.921 -50.888  0.00  0.00     0.773 A 
ATOM      3  C   UNL d   1     -41.211-122.384 -52.192  0.00  0.00     0.317 A 
ATOM      4  N   UNL d   1     -41.385-122.150 -50.571  0.00  0.00     0.046 NA
ATOM      5  N   UNL d   1     -41.298-121.507 -51.070  0.00  0.00    -0.127 NA
ATOM      6  C   UNL d   1     -41.212-121.614 -51.875  0.00  0.00     0.162 A 
ATOM      7  O   UNL d   1     -41.123-122.517 -53.027  0.00  0.00    -0.263 OA
ATOM      8  N   UNL d   1     -41.298-123.794 -52.011  0.00  0.00    -0.023 N 
ATOM      9  C   UNL d   1     -41.123-120.951 -52.383  0.00  0.00     0.028 C 
ENDROOT
BRANCH   2  10
ATOM     10  N   UNL d   1     -41.473-123.602 -50.388  0.00  0.00    -0.058 NA
BRANCH  10  11
ATOM     11  C   UNL d   1     -41.860-123.550 -49.652  0.00  0.00     0.100 A 
ATOM     12  C   UNL d   1     -41.423-123.386 -48.983  0.00  0.00     0.020 A 
ATOM     13  C   UNL d   1     -41.811-123.333 -48.244  0.00  0.00     0.002 A 
ATOM     14  C   UNL d   1     -42.620-123.447 -48.207  0.00  0.00     0.000 A 
ATOM     15  C   UNL d   1     -43.052-123.611 -48.876  0.00  0.00     0.002 A 
ATOM     16  C   UNL d   1     -42.664-123.663 -49.615  0.00  0.00     0.020 A 
ENDBRANCH  10  11
ENDBRANCH   2  10
TORSDOF 2
ENDMDL
