MODEL 1
REMARK VINA RESULT:      -5.4      0.000      0.000
REMARK  5 active torsions:
REMARK  status: ('A' for Active; 'I' for Inactive)
REMARK    1  A    between atoms: N_2  and  S_1 
REMARK    2  A    between atoms: C_4  and  S_1 
REMARK    3  A    between atoms: C_3  and  N_2 
REMARK    4  A    between atoms: N_7  and  C_3 
REMARK    5  A    between atoms: C_15  and  N_7 
ROOT
ATOM      1  S   UNL d   1      57.044  -0.361  31.461  0.00  0.00     0.287 S 
ATOM      2  O   UNL d   1      56.960  -1.185  31.554  0.00  0.00    -0.198 OA
ATOM      3  O   UNL d   1      57.126   0.455  31.369  0.00  0.00    -0.198 OA
ENDROOT
BRANCH   1   4
ATOM      4  N   UNL d   1      57.556  -0.486  30.820  0.00  0.00    -0.128 NA
BRANCH   4   5
ATOM      5  C   UNL d   1      58.123  -0.190  30.302  0.00  0.00     0.232 C 
ATOM      6  S   UNL d   1      58.712   0.318  30.579  0.00  0.00    -0.036 SA
BRANCH   5   7
ATOM      7  N   UNL d   1      58.101  -0.401  29.506  0.00  0.00    -0.217 NA
BRANCH   7   8
ATOM      8  C   UNL d   1      58.770  -0.731  29.154  0.00  0.00     0.084 A 
ATOM      9  C   UNL d   1      58.868  -1.550  29.154  0.00  0.00     0.019 A 
ATOM     10  C   UNL d   1      59.534  -1.882  28.804  0.00  0.00     0.002 A 
ATOM     11  C   UNL d   1      60.100  -1.400  28.455  0.00  0.00     0.000 A 
ATOM     12  C   UNL d   1      60.002  -0.583  28.455  0.00  0.00     0.002 A 
ATOM     13  C   UNL d   1      59.338  -0.247  28.804  0.00  0.00     0.019 A 
ENDBRANCH   7   8
ENDBRANCH   5   7
ENDBRANCH   4   5
ENDBRANCH   1   4
BRANCH   1  14
ATOM     14  C   UNL d   1      56.529  -0.236  32.105  0.00  0.00     0.105 A 
ATOM     15  C   UNL d   1      56.280  -0.880  32.556  0.00  0.00     0.013 A 
ATOM     16  C   UNL d   1      55.765  -0.763  33.201  0.00  0.00     0.007 A 
ATOM     17  C   UNL d   1      55.503   0.006  33.390  0.00  0.00     0.035 A 
ATOM     18  C   UNL d   1      55.757   0.649  32.932  0.00  0.00     0.007 A 
ATOM     19 BR   UNL d   1      54.993   0.118  34.029  0.00  0.00    -0.049 Br
ATOM     20  C   UNL d   1      56.266   0.533  32.293  0.00  0.00     0.013 A 
ENDBRANCH   1  14
TORSDOF 5
ENDMDL
MODEL 2
REMARK VINA RESULT:      -4.3      1.918      4.924
REMARK  5 active torsions:
REMARK  status: ('A' for Active; 'I' for Inactive)
REMARK    1  A    between atoms: N_2  and  S_1 
REMARK    2  A    between atoms: C_4  and  S_1 
REMARK    3  A    between atoms: C_3  and  N_2 
REMARK    4  A    between atoms: N_7  and  C_3 
REMARK    5  A    between atoms: C_15  and  N_7 
ROOT
ATOM      1  S   UNL d   1      57.406  -0.126  30.996  0.00  0.00     0.287 S 
ATOM      2  O   UNL d   1      57.621   0.679  31.032  0.00  0.00    -0.198 OA
ATOM      3  O   UNL d   1      57.194  -0.922  30.959  0.00  0.00    -0.198 OA
ENDROOT
BRANCH   1   4
ATOM      4  N   UNL d   1      56.882  -0.015  31.629  0.00  0.00    -0.128 NA
BRANCH   4   5
ATOM      5  C   UNL d   1      56.764   0.090  32.437  0.00  0.00     0.232 C 
ATOM      6  S   UNL d   1      57.212   0.645  32.852  0.00  0.00    -0.036 SA
BRANCH   5   7
ATOM      7  N   UNL d   1      56.197  -0.361  32.830  0.00  0.00    -0.217 NA
BRANCH   7   8
ATOM      8  C   UNL d   1      55.744  -0.016  33.426  0.00  0.00     0.084 A 
ATOM      9  C   UNL d   1      56.018  -0.028  34.203  0.00  0.00     0.019 A 
ATOM     10  C   UNL d   1      55.568   0.316  34.801  0.00  0.00     0.002 A 
ATOM     11  C   UNL d   1      54.849   0.670  34.623  0.00  0.00     0.000 A 
ATOM     12  C   UNL d   1      54.576   0.682  33.847  0.00  0.00     0.002 A 
ATOM     13  C   UNL d   1      55.021   0.340  33.248  0.00  0.00     0.019 A 
ENDBRANCH   7   8
ENDBRANCH   5   7
ENDBRANCH   4   5
ENDBRANCH   1   4
BRANCH   1  14
ATOM     14  C   UNL d   1      57.933  -0.237  30.359  0.00  0.00     0.105 A 
ATOM     15  C   UNL d   1      58.119   0.401  29.870  0.00  0.00     0.013 A 
ATOM     16  C   UNL d   1      58.645   0.298  29.231  0.00  0.00     0.007 A 
ATOM     17  C   UNL d   1      58.983  -0.450  29.088  0.00  0.00     0.035 A 
ATOM     18  C   UNL d   1      58.792  -1.087  29.584  0.00  0.00     0.007 A 
ATOM     19 BR   UNL d   1      59.503  -0.549  28.455  0.00  0.00    -0.049 Br
ATOM     20  C   UNL d   1      58.271  -0.985  30.216  0.00  0.00     0.013 A 
ENDBRANCH   1  14
TORSDOF 5
ENDMDL
