MODEL 1
REMARK VINA RESULT:      61.2      0.000      0.000
REMARK  2 active torsions:
REMARK  status: ('A' for Active; 'I' for Inactive)
REMARK    1  A    between atoms: C_3  and  C_1 
REMARK       I    between atoms: N_6  and  C_3 
REMARK    2  A    between atoms: C_16  and  N_7 
ROOT
ATOM      1  C   UNL d   1     -50.918  24.944  33.353  0.00  0.00     0.270 C 
ATOM      2  N   UNL d   1     -50.848  25.767  33.370  0.00  0.00    -0.269 N 
ATOM      3  N   UNL d   1     -50.721  27.406  33.404  0.00  0.00    -0.301 N 
ATOM      4  O   UNL d   1     -50.239  24.476  33.306  0.00  0.00    -0.266 OA
ATOM      5  C   UNL d   1     -51.528  26.230  33.418  0.00  0.00     0.102 A 
ATOM      6  C   UNL d   1     -50.111  26.119  33.340  0.00  0.00     0.102 A 
ATOM      7  C   UNL d   1     -50.045  26.942  33.357  0.00  0.00     0.100 A 
ATOM      8  C   UNL d   1     -51.467  27.051  33.435  0.00  0.00     0.100 A 
ENDROOT
BRANCH   1   9
ATOM      9  C   UNL d   1     -51.664  24.592  33.384  0.00  0.00     0.120 A 
ATOM     10  C   UNL d   1     -51.736  23.774  33.459  0.00  0.00     0.305 A 
ATOM     11  O   UNL d   1     -52.491  23.418  33.490  0.00  0.00    -0.273 OA
ATOM     12  O   UNL d   1     -51.057  23.307  33.503  0.00  0.00    -0.259 OA
ATOM     13  C   UNL d   1     -53.170  23.890  33.446  0.00  0.00     0.103 A 
ATOM     14  C   UNL d   1     -53.103  24.708  33.371  0.00  0.00     0.023 A 
ATOM     15  C   UNL d   1     -53.916  23.538  33.476  0.00  0.00     0.025 A 
ATOM     16  C   UNL d   1     -52.351  25.067  33.339  0.00  0.00     0.012 A 
ATOM     17  C   UNL d   1     -53.782  25.176  33.327  0.00  0.00     0.002 A 
ATOM     18  C   UNL d   1     -54.525  24.824  33.358  0.00  0.00     0.000 A 
ATOM     19  C   UNL d   1     -54.592  24.006  33.432  0.00  0.00     0.002 A 
ENDBRANCH   1   9
BRANCH   3  20
ATOM     20  C   UNL d   1     -50.662  28.228  33.422  0.00  0.00     0.064 A 
ATOM     21  C   UNL d   1     -51.333  28.699  33.319  0.00  0.00     0.018 A 
ATOM     22  C   UNL d   1     -51.271  29.521  33.337  0.00  0.00     0.002 A 
ATOM     23  C   UNL d   1     -50.534  29.871  33.458  0.00  0.00     0.000 A 
ATOM     24  C   UNL d   1     -49.860  29.401  33.561  0.00  0.00     0.002 A 
ATOM     25  C   UNL d   1     -49.928  28.580  33.542  0.00  0.00     0.018 A 
ENDBRANCH   3  20
TORSDOF 2
ENDMDL
