MODEL 1
REMARK VINA RESULT:      32.7      0.000      0.000
REMARK  4 active torsions:
REMARK  status: ('A' for Active; 'I' for Inactive)
REMARK    1  A    between atoms: C_8  and  C_4 
REMARK       I    between atoms: C_7  and  N_10 
REMARK    2  A    between atoms: C_16  and  C_7 
REMARK    3  A    between atoms: N_10  and  C_13 
REMARK    4  A    between atoms: C_17  and  C_16 
ROOT
ATOM      1  C   UNL d   1     -58.289 -98.818 -44.547  0.00  0.00     0.021 A 
ATOM      2  C   UNL d   1     -58.710 -98.786 -45.259  0.00  0.00     0.021 A 
ATOM      3  C   UNL d   1     -59.531 -98.787 -45.252  0.00  0.00     0.085 A 
ATOM      4  C   UNL d   1     -58.693 -98.851 -43.830  0.00  0.00     0.002 A 
ATOM      5  C   UNL d   1     -59.518 -98.853 -43.815  0.00  0.00     0.002 A 
ATOM      6  C   UNL d   1     -59.939 -98.821 -44.534  0.00  0.00     0.019 A 
ENDROOT
BRANCH   1   7
ATOM      7  C   UNL d   1     -57.464 -98.816 -44.555  0.00  0.00     0.118 A 
ATOM      8  N   UNL d   1     -56.989 -98.819 -45.222  0.00  0.00    -0.059 NA
ATOM      9  C   UNL d   1     -56.205 -98.816 -44.972  0.00  0.00     0.735 A 
ATOM     10  N   UNL d   1     -56.193 -98.811 -44.153  0.00  0.00    -0.136 N 
ATOM     11  N   UNL d   1     -55.499 -98.816 -45.406  0.00  0.00    -0.059 NA
ATOM     12  C   UNL d   1     -56.973 -98.811 -43.892  0.00  0.00     0.118 A 
ATOM     13  C   UNL d   1     -55.474 -98.807 -43.753  0.00  0.00     0.100 A 
ATOM     14  C   UNL d   1     -54.771 -98.808 -44.174  0.00  0.00     0.041 A 
ATOM     15  C   UNL d   1     -54.783 -98.813 -44.994  0.00  0.00     0.119 A 
ENDBRANCH   1   7
BRANCH   3  16
ATOM     16  N   UNL d   1     -59.948 -98.755 -45.963  0.00  0.00    -0.208 NA
ATOM     17  C   UNL d   1     -59.543 -98.794 -46.683  0.00  0.00     0.275 C 
ATOM     18  O   UNL d   1     -58.725 -98.864 -46.691  0.00  0.00    -0.266 OA
BRANCH  17  19
ATOM     19  C   UNL d   1     -59.955 -98.762 -47.390  0.00  0.00     0.036 C 
BRANCH  19  20
ATOM     20  C   UNL d   1     -59.743 -99.265 -48.003  0.00  0.00     0.023 C 
ATOM     21  C   UNL d   1     -59.459 -98.760 -48.606  0.00  0.00     0.004 C 
ATOM     22  C   UNL d   1     -59.908-100.018 -47.739  0.00  0.00     0.004 C 
ATOM     23  C   UNL d   1     -59.527 -99.768 -48.625  0.00  0.00     0.004 C 
ENDBRANCH  19  20
ENDBRANCH  17  19
ENDBRANCH   3  16
TORSDOF 4
ENDMDL
