MODEL 1
REMARK VINA RESULT:      -2.3      0.000      0.000
REMARK  4 active torsions:
REMARK  status: ('A' for Active; 'I' for Inactive)
REMARK    1  A    between atoms: C_6  and  C_1 
REMARK    2  A    between atoms: C_7  and  C_2 
REMARK    3  A    between atoms: O_10  and  C_6 
REMARK    4  A    between atoms: C_13  and  O_10 
ROOT
ATOM      1  C   UNL d   1      58.903  -1.300  29.276  0.00  0.00     0.113 A 
ATOM      2  C   UNL d   1      59.726  -1.353  29.086  0.00  0.00     0.095 A 
ATOM      3  N   UNL d   1      59.897  -2.160  28.911  0.00  0.00    -0.219 NA
ATOM      4  S   UNL d   1      58.574  -2.053  29.221  0.00  0.00    -0.040 SA
ATOM      5  C   UNL d   1      59.193  -2.561  28.998  0.00  0.00     0.215 A 
ATOM      6  N   UNL d   1      59.077  -3.373  28.885  0.00  0.00    -0.120 N 
ENDROOT
BRANCH   2   7
ATOM      7  C   UNL d   1      60.191  -0.676  29.099  0.00  0.00     0.018 A 
ATOM      8  C   UNL d   1      60.648  -0.510  29.772  0.00  0.00     0.002 A 
ATOM      9  C   UNL d   1      61.118   0.180  29.778  0.00  0.00     0.000 A 
ATOM     10  C   UNL d   1      61.133   0.681  29.142  0.00  0.00     0.000 A 
ATOM     11  C   UNL d   1      60.666   0.507  28.458  0.00  0.00     0.000 A 
ATOM     12  C   UNL d   1      60.202  -0.176  28.456  0.00  0.00     0.002 A 
ENDBRANCH   2   7
BRANCH   1  13
ATOM     13  C   UNL d   1      58.493  -0.644  29.478  0.00  0.00     0.308 C 
ATOM     14  O   UNL d   1      58.260  -0.112  28.904  0.00  0.00    -0.258 OA
BRANCH  13  15
ATOM     15  O   UNL d   1      58.311  -0.505  30.237  0.00  0.00    -0.271 OA
BRANCH  15  16
ATOM     16  C   UNL d   1      57.631  -0.091  30.456  0.00  0.00     0.126 C 
ATOM     17  C   UNL d   1      57.435   0.067  31.230  0.00  0.00     0.029 C 
ENDBRANCH  15  16
ENDBRANCH  13  15
ENDBRANCH   1  13
TORSDOF 4
ENDMDL
MODEL 2
REMARK VINA RESULT:      -1.7      1.586      2.924
REMARK  4 active torsions:
REMARK  status: ('A' for Active; 'I' for Inactive)
REMARK    1  A    between atoms: C_6  and  C_1 
REMARK    2  A    between atoms: C_7  and  C_2 
REMARK    3  A    between atoms: O_10  and  C_6 
REMARK    4  A    between atoms: C_13  and  O_10 
ROOT
ATOM      1  C   UNL d   1      59.323  -0.436  29.045  0.00  0.00     0.113 A 
ATOM      2  C   UNL d   1      59.304   0.226  29.572  0.00  0.00     0.095 A 
ATOM      3  N   UNL d   1      60.000   0.682  29.434  0.00  0.00    -0.219 NA
ATOM      4  S   UNL d   1      60.011  -0.391  28.594  0.00  0.00    -0.040 SA
ATOM      5  C   UNL d   1      60.409   0.294  28.846  0.00  0.00     0.215 A 
ATOM      6  N   UNL d   1      61.132   0.529  28.518  0.00  0.00    -0.120 N 
ENDROOT
BRANCH   2   7
ATOM      7  C   UNL d   1      58.672   0.318  30.088  0.00  0.00     0.018 A 
ATOM      8  C   UNL d   1      57.945   0.591  29.795  0.00  0.00     0.002 A 
ATOM      9  C   UNL d   1      57.307   0.682  30.326  0.00  0.00     0.000 A 
ATOM     10  C   UNL d   1      57.390   0.508  31.113  0.00  0.00     0.000 A 
ATOM     11  C   UNL d   1      58.133   0.230  31.406  0.00  0.00     0.000 A 
ATOM     12  C   UNL d   1      58.762   0.141  30.879  0.00  0.00     0.002 A 
ENDBRANCH   2   7
BRANCH   1  13
ATOM     13  C   UNL d   1      58.779  -1.018  28.978  0.00  0.00     0.308 C 
ATOM     14  O   UNL d   1      58.072  -0.877  28.593  0.00  0.00    -0.258 OA
BRANCH  13  15
ATOM     15  O   UNL d   1      58.921  -1.735  29.284  0.00  0.00    -0.271 OA
BRANCH  15  16
ATOM     16  C   UNL d   1      58.686  -2.429  28.904  0.00  0.00     0.126 C 
ATOM     17  C   UNL d   1      58.854  -3.172  29.188  0.00  0.00     0.029 C 
ENDBRANCH  15  16
ENDBRANCH  13  15
ENDBRANCH   1  13
TORSDOF 4
ENDMDL
MODEL 3
REMARK VINA RESULT:      -1.7      1.563      2.389
REMARK  4 active torsions:
REMARK  status: ('A' for Active; 'I' for Inactive)
REMARK    1  A    between atoms: C_6  and  C_1 
REMARK    2  A    between atoms: C_7  and  C_2 
REMARK    3  A    between atoms: O_10  and  C_6 
REMARK    4  A    between atoms: C_13  and  O_10 
ROOT
ATOM      1  C   UNL d   1      58.448  -0.821  29.813  0.00  0.00     0.113 A 
ATOM      2  C   UNL d   1      58.853  -0.109  30.026  0.00  0.00     0.095 A 
ATOM      3  N   UNL d   1      58.431   0.243  30.666  0.00  0.00    -0.219 NA
ATOM      4  S   UNL d   1      57.794  -0.908  30.307  0.00  0.00    -0.040 SA
ATOM      5  C   UNL d   1      57.802  -0.251  30.818  0.00  0.00     0.215 A 
ATOM      6  N   UNL d   1      57.224  -0.141  31.401  0.00  0.00    -0.120 N 
ENDROOT
BRANCH   2   7
ATOM      7  C   UNL d   1      59.530   0.112  29.618  0.00  0.00     0.018 A 
ATOM      8  C   UNL d   1      59.456   0.457  28.866  0.00  0.00     0.002 A 
ATOM      9  C   UNL d   1      60.149   0.679  28.456  0.00  0.00     0.000 A 
ATOM     10  C   UNL d   1      60.882   0.563  28.782  0.00  0.00     0.000 A 
ATOM     11  C   UNL d   1      60.952   0.211  29.548  0.00  0.00     0.000 A 
ATOM     12  C   UNL d   1      60.264  -0.008  29.950  0.00  0.00     0.002 A 
ENDBRANCH   2   7
BRANCH   1  13
ATOM     13  C   UNL d   1      58.646  -1.338  29.236  0.00  0.00     0.308 C 
ATOM     14  O   UNL d   1      58.482  -1.164  28.455  0.00  0.00    -0.258 OA
BRANCH  13  15
ATOM     15  O   UNL d   1      59.004  -2.021  29.418  0.00  0.00    -0.271 OA
BRANCH  15  16
ATOM     16  C   UNL d   1      58.930  -2.694  28.945  0.00  0.00     0.126 C 
ATOM     17  C   UNL d   1      59.496  -3.277  28.908  0.00  0.00     0.029 C 
ENDBRANCH  15  16
ENDBRANCH  13  15
ENDBRANCH   1  13
TORSDOF 4
ENDMDL
MODEL 4
REMARK VINA RESULT:      -0.6      4.103      5.351
REMARK  4 active torsions:
REMARK  status: ('A' for Active; 'I' for Inactive)
REMARK    1  A    between atoms: C_6  and  C_1 
REMARK    2  A    between atoms: C_7  and  C_2 
REMARK    3  A    between atoms: O_10  and  C_6 
REMARK    4  A    between atoms: C_13  and  O_10 
ROOT
ATOM      1  C   UNL d   1      56.141   0.207  33.599  0.00  0.00     0.113 A 
ATOM      2  C   UNL d   1      55.880   0.201  32.794  0.00  0.00     0.095 A 
ATOM      3  N   UNL d   1      55.056   0.379  32.791  0.00  0.00    -0.219 NA
ATOM      4  S   UNL d   1      55.496   0.385  34.080  0.00  0.00    -0.040 SA
ATOM      5  C   UNL d   1      54.847   0.485  33.570  0.00  0.00     0.215 A 
ATOM      6  N   UNL d   1      54.091   0.671  33.852  0.00  0.00    -0.120 N 
ENDROOT
BRANCH   2   7
ATOM      7  C   UNL d   1      56.416   0.038  32.193  0.00  0.00     0.018 A 
ATOM      8  C   UNL d   1      56.790   0.668  31.801  0.00  0.00     0.002 A 
ATOM      9  C   UNL d   1      57.334   0.495  31.192  0.00  0.00     0.000 A 
ATOM     10  C   UNL d   1      57.498  -0.271  30.983  0.00  0.00     0.000 A 
ATOM     11  C   UNL d   1      57.115  -0.908  31.386  0.00  0.00     0.000 A 
ATOM     12  C   UNL d   1      56.577  -0.734  31.988  0.00  0.00     0.002 A 
ENDBRANCH   2   7
BRANCH   1  13
ATOM     13  C   UNL d   1      56.880   0.069  33.870  0.00  0.00     0.308 C 
ATOM     14  O   UNL d   1      57.203  -0.680  33.819  0.00  0.00    -0.258 OA
BRANCH  13  15
ATOM     15  O   UNL d   1      57.304   0.657  34.191  0.00  0.00    -0.271 OA
BRANCH  15  16
ATOM     16  C   UNL d   1      57.780   0.543  34.855  0.00  0.00     0.126 C 
ATOM     17  C   UNL d   1      58.581   0.682  34.860  0.00  0.00     0.029 C 
ENDBRANCH  15  16
ENDBRANCH  13  15
ENDBRANCH   1  13
TORSDOF 4
ENDMDL
MODEL 5
REMARK VINA RESULT:      -0.5      1.050      2.641
REMARK  4 active torsions:
REMARK  status: ('A' for Active; 'I' for Inactive)
REMARK    1  A    between atoms: C_6  and  C_1 
REMARK    2  A    between atoms: C_7  and  C_2 
REMARK    3  A    between atoms: O_10  and  C_6 
REMARK    4  A    between atoms: C_13  and  O_10 
ROOT
ATOM      1  C   UNL d   1      58.742  -0.690  29.281  0.00  0.00     0.113 A 
ATOM      2  C   UNL d   1      58.340  -0.953  29.978  0.00  0.00     0.095 A 
ATOM      3  N   UNL d   1      58.227  -1.786  29.908  0.00  0.00    -0.219 NA
ATOM      4  S   UNL d   1      58.875  -1.342  28.794  0.00  0.00    -0.040 SA
ATOM      5  C   UNL d   1      58.554  -1.998  29.193  0.00  0.00     0.215 A 
ATOM      6  N   UNL d   1      58.580  -2.762  28.876  0.00  0.00    -0.120 N 
ENDROOT
BRANCH   2   7
ATOM      7  C   UNL d   1      58.139  -0.411  30.560  0.00  0.00     0.018 A 
ATOM      8  C   UNL d   1      58.739  -0.076  31.027  0.00  0.00     0.002 A 
ATOM      9  C   UNL d   1      58.527   0.475  31.618  0.00  0.00     0.000 A 
ATOM     10  C   UNL d   1      57.753   0.682  31.739  0.00  0.00     0.000 A 
ATOM     11  C   UNL d   1      57.146   0.337  31.261  0.00  0.00     0.000 A 
ATOM     12  C   UNL d   1      57.359  -0.208  30.677  0.00  0.00     0.002 A 
ENDBRANCH   2   7
BRANCH   1  13
ATOM     13  C   UNL d   1      58.966   0.056  29.103  0.00  0.00     0.308 C 
ATOM     14  O   UNL d   1      58.412   0.604  28.858  0.00  0.00    -0.258 OA
BRANCH  13  15
ATOM     15  O   UNL d   1      59.727   0.269  29.162  0.00  0.00    -0.271 OA
BRANCH  15  16
ATOM     16  C   UNL d   1      60.116   0.682  28.562  0.00  0.00     0.126 C 
ATOM     17  C   UNL d   1      60.923   0.668  28.461  0.00  0.00     0.029 C 
ENDBRANCH  15  16
ENDBRANCH  13  15
ENDBRANCH   1  13
TORSDOF 4
ENDMDL
MODEL 6
REMARK VINA RESULT:      -0.1      2.471      3.870
REMARK  4 active torsions:
REMARK  status: ('A' for Active; 'I' for Inactive)
REMARK    1  A    between atoms: C_6  and  C_1 
REMARK    2  A    between atoms: C_7  and  C_2 
REMARK    3  A    between atoms: O_10  and  C_6 
REMARK    4  A    between atoms: C_13  and  O_10 
ROOT
ATOM      1  C   UNL d   1      58.412   0.397  30.776  0.00  0.00     0.113 A 
ATOM      2  C   UNL d   1      57.618   0.121  30.687  0.00  0.00     0.095 A 
ATOM      3  N   UNL d   1      57.457   0.067  29.861  0.00  0.00    -0.219 NA
ATOM      4  S   UNL d   1      58.735   0.511  30.026  0.00  0.00    -0.040 SA
ATOM      5  C   UNL d   1      58.139   0.305  29.484  0.00  0.00     0.215 A 
ATOM      6  N   UNL d   1      58.255   0.347  28.665  0.00  0.00    -0.120 N 
ENDROOT
BRANCH   2   7
ATOM      7  C   UNL d   1      57.165  -0.038  31.353  0.00  0.00     0.018 A 
ATOM      8  C   UNL d   1      57.015  -0.827  31.563  0.00  0.00     0.002 A 
ATOM      9  C   UNL d   1      56.554  -0.982  32.242  0.00  0.00     0.000 A 
ATOM     10  C   UNL d   1      56.255  -0.377  32.691  0.00  0.00     0.000 A 
ATOM     11  C   UNL d   1      56.410   0.426  32.472  0.00  0.00     0.000 A 
ATOM     12  C   UNL d   1      56.867   0.575  31.800  0.00  0.00     0.002 A 
ENDBRANCH   2   7
BRANCH   1  13
ATOM     13  C   UNL d   1      58.805   0.532  31.459  0.00  0.00     0.308 C 
ATOM     14  O   UNL d   1      58.392   0.681  32.148  0.00  0.00    -0.258 OA
BRANCH  13  15
ATOM     15  O   UNL d   1      59.597   0.523  31.472  0.00  0.00    -0.271 OA
BRANCH  15  16
ATOM     16  C   UNL d   1      60.026   0.645  32.167  0.00  0.00     0.126 C 
ATOM     17  C   UNL d   1      60.839   0.682  32.190  0.00  0.00     0.029 C 
ENDBRANCH  15  16
ENDBRANCH  13  15
ENDBRANCH   1  13
TORSDOF 4
ENDMDL
MODEL 7
REMARK VINA RESULT:       0.2      3.347      4.959
REMARK  4 active torsions:
REMARK  status: ('A' for Active; 'I' for Inactive)
REMARK    1  A    between atoms: C_6  and  C_1 
REMARK    2  A    between atoms: C_7  and  C_2 
REMARK    3  A    between atoms: O_10  and  C_6 
REMARK    4  A    between atoms: C_13  and  O_10 
ROOT
ATOM      1  C   UNL d   1      57.373   0.306  32.273  0.00  0.00     0.113 A 
ATOM      2  C   UNL d   1      56.851  -0.261  31.923  0.00  0.00     0.095 A 
ATOM      3  N   UNL d   1      57.030  -0.299  31.100  0.00  0.00    -0.219 NA
ATOM      4  S   UNL d   1      57.862   0.610  31.683  0.00  0.00    -0.040 SA
ATOM      5  C   UNL d   1      57.637   0.229  30.978  0.00  0.00     0.215 A 
ATOM      6  N   UNL d   1      58.006   0.390  30.254  0.00  0.00    -0.120 N 
ENDROOT
BRANCH   2   7
ATOM      7  C   UNL d   1      56.301  -0.651  32.392  0.00  0.00     0.018 A 
ATOM      8  C   UNL d   1      56.345  -1.477  32.467  0.00  0.00     0.002 A 
ATOM      9  C   UNL d   1      55.783  -1.867  32.945  0.00  0.00     0.000 A 
ATOM     10  C   UNL d   1      55.203  -1.453  33.331  0.00  0.00     0.000 A 
ATOM     11  C   UNL d   1      55.163  -0.612  33.252  0.00  0.00     0.000 A 
ATOM     12  C   UNL d   1      55.721  -0.229  32.778  0.00  0.00     0.002 A 
ENDBRANCH   2   7
BRANCH   1  13
ATOM     13  C   UNL d   1      57.407   0.526  33.041  0.00  0.00     0.308 C 
ATOM     14  O   UNL d   1      56.719   0.677  33.455  0.00  0.00    -0.258 OA
BRANCH  13  15
ATOM     15  O   UNL d   1      58.107   0.598  33.405  0.00  0.00    -0.271 OA
BRANCH  15  16
ATOM     16  C   UNL d   1      58.169   0.679  34.224  0.00  0.00     0.126 C 
ATOM     17  C   UNL d   1      58.874   0.619  34.626  0.00  0.00     0.029 C 
ENDBRANCH  15  16
ENDBRANCH  13  15
ENDBRANCH   1  13
TORSDOF 4
ENDMDL
