MODEL 1
REMARK VINA RESULT:      48.5      0.000      0.000
REMARK  3 active torsions:
REMARK  status: ('A' for Active; 'I' for Inactive)
REMARK    1  A    between atoms: C_6  and  C_1 
REMARK    2  A    between atoms: C_2  and  C_8 
REMARK       I    between atoms: N_11  and  C_6 
REMARK    3  A    between atoms: C_12  and  N_11 
ROOT
ATOM      1  C   UNL d   1      13.445  12.401  -3.439  0.00  0.00     0.054 A 
ATOM      2  C   UNL d   1      13.485  13.165  -3.756  0.00  0.00     0.088 A 
ATOM      3  C   UNL d   1      13.102  11.781  -3.866  0.00  0.00     0.005 A 
ATOM      4  C   UNL d   1      13.176  13.310  -4.518  0.00  0.00     0.019 A 
ATOM      5  C   UNL d   1      12.793  11.926  -4.627  0.00  0.00     0.000 A 
ATOM      6  C   UNL d   1      12.844  12.711  -4.932  0.00  0.00     0.002 A 
ENDROOT
BRANCH   2   7
ATOM      7  N   UNL d   1      13.827  13.786  -3.329  0.00  0.00    -0.207 NA
ATOM      8  C   UNL d   1      13.828  14.558  -3.628  0.00  0.00     0.286 C 
ATOM      9  O   UNL d   1      13.500  14.729  -4.336  0.00  0.00    -0.265 OA
BRANCH   8  10
ATOM     10  C   UNL d   1      14.181  15.174  -3.179  0.00  0.00     0.098 A 
ATOM     11  S   UNL d   1      14.341  15.103  -2.428  0.00  0.00    -0.081 SA
ATOM     12  C   UNL d   1      14.684  15.825  -2.180  0.00  0.00     0.030 A 
ATOM     13  C   UNL d   1      14.960  16.087  -1.485  0.00  0.00     0.006 A 
ATOM     14  C   UNL d   1      14.714  16.321  -2.838  0.00  0.00     0.017 A 
ATOM     15  C   UNL d   1      15.274  16.854  -1.427  0.00  0.00     0.001 A 
ATOM     16  C   UNL d   1      15.312  17.359  -2.064  0.00  0.00     0.000 A 
ATOM     17  C   UNL d   1      15.023  17.084  -2.790  0.00  0.00     0.001 A 
ATOM     18  C   UNL d   1      14.391  15.901  -3.475  0.00  0.00     0.069 A 
ATOM     19 CL   UNL d   1      14.293  16.143  -4.246  0.00  0.00    -0.082 Cl
ENDBRANCH   8  10
ENDBRANCH   2   7
BRANCH   1  20
ATOM     20  C   UNL d   1      13.753  12.256  -2.678  0.00  0.00     0.164 A 
ATOM     21  N   UNL d   1      14.529  12.170  -2.378  0.00  0.00    -0.225 NA
ATOM     22  C   UNL d   1      14.451  12.035  -1.581  0.00  0.00     0.101 A 
ATOM     23  C   UNL d   1      15.024  11.912  -1.015  0.00  0.00     0.021 A 
ATOM     24  C   UNL d   1      13.693  12.032  -1.374  0.00  0.00     0.101 A 
ATOM     25  C   UNL d   1      14.819  11.784  -0.227  0.00  0.00     0.002 A 
ATOM     26  C   UNL d   1      14.056  11.780  -0.017  0.00  0.00     0.002 A 
ATOM     27  C   UNL d   1      13.488  11.904  -0.585  0.00  0.00     0.021 A 
ATOM     28  N   UNL d   1      13.236  12.167  -2.038  0.00  0.00    -0.225 NA
ENDBRANCH   1  20
TORSDOF 3
ENDMDL
