MODEL 1
REMARK VINA RESULT:      27.9      0.000      0.000
REMARK  5 active torsions:
REMARK  status: ('A' for Active; 'I' for Inactive)
REMARK    1  A    between atoms: C_8  and  C_1 
REMARK    2  A    between atoms: C_9  and  C_2 
REMARK    3  A    between atoms: S_6  and  C_4 
REMARK    4  A    between atoms: C_11  and  S_6 
REMARK    5  A    between atoms: C_7  and  C_11 
ROOT
ATOM      1  C   UNL d   1      13.645  12.373  -3.697  0.00  0.00     0.107 A 
ATOM      2  C   UNL d   1      13.615  13.100  -3.310  0.00  0.00     0.120 A 
ATOM      3  N   UNL d   1      13.774  11.796  -3.125  0.00  0.00    -0.214 NA
ATOM      4  C   UNL d   1      13.821  12.172  -2.396  0.00  0.00     0.215 A 
ATOM      5  O   UNL d   1      13.722  12.980  -2.518  0.00  0.00    -0.283 OA
ENDROOT
BRANCH   1   6
ATOM      6  C   UNL d   1      13.566  12.207  -4.504  0.00  0.00     0.020 A 
ATOM      7  C   UNL d   1      14.229  12.308  -5.011  0.00  0.00     0.002 A 
ATOM      8  C   UNL d   1      14.141  12.136  -5.833  0.00  0.00     0.000 A 
ATOM      9  C   UNL d   1      13.422  11.877  -6.120  0.00  0.00     0.000 A 
ATOM     10  C   UNL d   1      12.772  11.780  -5.612  0.00  0.00     0.000 A 
ATOM     11  C   UNL d   1      12.842  11.944  -4.805  0.00  0.00     0.002 A 
ENDBRANCH   1   6
BRANCH   2  12
ATOM     12  C   UNL d   1      13.498  13.842  -3.643  0.00  0.00     0.024 A 
ATOM     13  C   UNL d   1      13.983  14.479  -3.437  0.00  0.00     0.002 A 
ATOM     14  C   UNL d   1      13.872  15.228  -3.768  0.00  0.00     0.000 A 
ATOM     15  C   UNL d   1      13.270  15.333  -4.307  0.00  0.00     0.000 A 
ATOM     16  C   UNL d   1      12.782  14.704  -4.518  0.00  0.00     0.000 A 
ATOM     17  C   UNL d   1      12.899  13.962  -4.184  0.00  0.00     0.002 A 
ENDBRANCH   2  12
BRANCH   4  18
ATOM     18  S   UNL d   1      13.948  11.779  -1.675  0.00  0.00    -0.037 SA
BRANCH  18  19
ATOM     19  C   UNL d   1      13.916  12.217  -0.960  0.00  0.00     0.103 C 
BRANCH  19  20
ATOM     20  C   UNL d   1      14.605  12.406  -0.575  0.00  0.00     0.303 C 
ATOM     21  O   UNL d   1      14.688  13.152  -0.196  0.00  0.00    -0.263 OA
ATOM     22  N   UNL d   1      15.231  11.864  -0.554  0.00  0.00    -0.102 N 
ENDBRANCH  19  20
ENDBRANCH  18  19
ENDBRANCH   4  18
TORSDOF 5
ENDMDL
