MODEL 1
REMARK VINA RESULT:      83.5      0.000      0.000
REMARK  3 active torsions:
REMARK  status: ('A' for Active; 'I' for Inactive)
REMARK    1  A    between atoms: S_12  and  C_7 
REMARK    2  A    between atoms: C_10  and  C_13 
REMARK    3  A    between atoms: C_13  and  S_12 
ROOT
ATOM      1  N   UNL d   1     -55.239-100.863 -41.720  0.00  0.00    -0.224 N 
ATOM      2  N   UNL d   1     -55.226-102.020 -42.570  0.00  0.00    -0.241 N 
ATOM      3  C   UNL d   1     -55.312-101.687 -41.821  0.00  0.00     0.343 A 
ATOM      4  C   UNL d   1     -55.064-101.529 -43.224  0.00  0.00     0.160 A 
ATOM      5  C   UNL d   1     -55.079-100.381 -42.368  0.00  0.00     0.273 A 
ATOM      6  C   UNL d   1     -54.991-100.713 -43.124  0.00  0.00     0.115 A 
ATOM      7  C   UNL d   1     -54.833-100.232 -43.764  0.00  0.00     0.120 A 
ATOM      8  N   UNL d   1     -54.977-101.862 -43.976  0.00  0.00    -0.209 NA
ATOM      9  N   UNL d   1     -54.745-100.560 -44.519  0.00  0.00    -0.220 NA
ATOM     10  C   UNL d   1     -54.818-101.379 -44.623  0.00  0.00     0.165 A 
ATOM     11  O   UNL d   1     -55.472-102.170 -41.174  0.00  0.00    -0.245 OA
ATOM     12  O   UNL d   1     -55.006 -99.565 -42.268  0.00  0.00    -0.266 OA
ATOM     13  C   UNL d   1     -55.326-100.538 -40.974  0.00  0.00     0.107 C 
ATOM     14  C   UNL d   1     -55.298-102.835 -42.678  0.00  0.00     0.105 C 
ATOM     15  C   UNL d   1     -54.731-101.707 -45.371  0.00  0.00     0.042 C 
ENDROOT
BRANCH   7  16
ATOM     16  S   UNL d   1     -54.760 -99.416 -43.664  0.00  0.00    -0.067 SA
BRANCH  16  17
ATOM     17  C   UNL d   1     -55.062 -98.898 -44.230  0.00  0.00     0.040 C 
BRANCH  17  18
ATOM     18  C   UNL d   1     -55.865 -98.911 -44.422  0.00  0.00     0.045 A 
ATOM     19  C   UNL d   1     -56.093 -98.975 -45.216  0.00  0.00     0.060 A 
ATOM     20 CL   UNL d   1     -55.518 -99.025 -45.808  0.00  0.00    -0.082 Cl
ATOM     21  C   UNL d   1     -56.892 -98.990 -45.423  0.00  0.00     0.012 A 
ATOM     22  C   UNL d   1     -57.462 -98.939 -44.830  0.00  0.00     0.003 A 
ATOM     23  C   UNL d   1     -57.251 -98.875 -44.036  0.00  0.00     0.030 A 
ATOM     24  C   UNL d   1     -56.451 -98.861 -43.833  0.00  0.00     0.141 A 
ATOM     25  F   UNL d   1     -56.229 -98.797 -43.049  0.00  0.00    -0.204 F 
ENDBRANCH  17  18
ENDBRANCH  16  17
ENDBRANCH   7  16
TORSDOF 3
ENDMDL
MODEL 2
REMARK VINA RESULT:      86.4      1.714      2.339
REMARK  3 active torsions:
REMARK  status: ('A' for Active; 'I' for Inactive)
REMARK    1  A    between atoms: S_12  and  C_7 
REMARK    2  A    between atoms: C_10  and  C_13 
REMARK    3  A    between atoms: C_13  and  S_12 
ROOT
ATOM      1  N   UNL d   1     -56.478-101.197 -43.241  0.00  0.00    -0.224 N 
ATOM      2  N   UNL d   1     -55.453-101.210 -44.245  0.00  0.00    -0.241 N 
ATOM      3  C   UNL d   1     -55.906-101.609 -43.684  0.00  0.00     0.343 A 
ATOM      4  C   UNL d   1     -55.572-100.393 -44.366  0.00  0.00     0.160 A 
ATOM      5  C   UNL d   1     -56.593-100.391 -43.363  0.00  0.00     0.273 A 
ATOM      6  C   UNL d   1     -56.139 -99.986 -43.927  0.00  0.00     0.115 A 
ATOM      7  C   UNL d   1     -56.256 -99.186 -44.045  0.00  0.00     0.120 A 
ATOM      8  N   UNL d   1     -55.118 -99.991 -44.929  0.00  0.00    -0.209 NA
ATOM      9  N   UNL d   1     -55.805 -98.779 -44.607  0.00  0.00    -0.220 NA
ATOM     10  C   UNL d   1     -55.234 -99.185 -45.050  0.00  0.00     0.165 A 
ATOM     11  O   UNL d   1     -55.790-102.415 -43.563  0.00  0.00    -0.245 OA
ATOM     12  O   UNL d   1     -57.160 -99.984 -42.923  0.00  0.00    -0.266 OA
ATOM     13  C   UNL d   1     -56.925-101.600 -42.685  0.00  0.00     0.107 C 
ATOM     14  C   UNL d   1     -54.884-101.611 -44.688  0.00  0.00     0.105 C 
ATOM     15  C   UNL d   1     -54.785 -98.784 -45.609  0.00  0.00     0.042 C 
ENDROOT
BRANCH   7  16
ATOM     16  S   UNL d   1     -56.823 -98.779 -43.606  0.00  0.00    -0.067 SA
BRANCH  16  17
ATOM     17  C   UNL d   1     -57.601 -99.050 -43.576  0.00  0.00     0.040 C 
BRANCH  17  18
ATOM     18  C   UNL d   1     -58.102 -98.952 -44.224  0.00  0.00     0.045 A 
ATOM     19  C   UNL d   1     -58.922 -98.918 -44.105  0.00  0.00     0.060 A 
ATOM     20 CL   UNL d   1     -59.230 -98.983 -43.340  0.00  0.00    -0.082 Cl
ATOM     21  C   UNL d   1     -59.435 -98.820 -44.743  0.00  0.00     0.012 A 
ATOM     22  C   UNL d   1     -59.124 -98.755 -45.504  0.00  0.00     0.003 A 
ATOM     23  C   UNL d   1     -58.312 -98.787 -45.639  0.00  0.00     0.030 A 
ATOM     24  C   UNL d   1     -57.801 -98.885 -44.998  0.00  0.00     0.141 A 
ATOM     25  F   UNL d   1     -56.993 -98.918 -45.118  0.00  0.00    -0.204 F 
ENDBRANCH  17  18
ENDBRANCH  16  17
ENDBRANCH   7  16
TORSDOF 3
ENDMDL
