MODEL 1
REMARK VINA RESULT:      -8.0      0.000      0.000
REMARK  3 active torsions:
REMARK  status: ('A' for Active; 'I' for Inactive)
REMARK    1  A    between atoms: C_4  and  C_1 
REMARK    2  A    between atoms: N_7  and  C_4 
REMARK    3  A    between atoms: C_9  and  N_7 
ROOT
ATOM      1  C   UNL d   1      53.306  31.887  53.540  0.00  0.00     0.139 A 
ATOM      2  N   UNL d   1      53.639  31.385  54.083  0.00  0.00    -0.236 NA
ATOM      3  S   UNL d   1      52.862  31.451  53.005  0.00  0.00    -0.064 SA
ATOM      4  C   UNL d   1      53.403  30.609  53.893  0.00  0.00     0.088 A 
ATOM      5  C   UNL d   1      52.922  30.651  53.226  0.00  0.00     0.049 A 
ATOM      6  C   UNL d   1      53.564  29.878  54.240  0.00  0.00     0.020 A 
ATOM      7  C   UNL d   1      52.597  29.960  52.900  0.00  0.00     0.008 A 
ATOM      8  C   UNL d   1      52.758  29.229  53.247  0.00  0.00     0.001 A 
ATOM      9  C   UNL d   1      53.244  29.189  53.920  0.00  0.00     0.002 A 
ENDROOT
BRANCH   1  10
ATOM     10  C   UNL d   1      53.406  32.710  53.534  0.00  0.00     0.159 C 
ATOM     11  S   UNL d   1      54.153  33.039  53.399  0.00  0.00    -0.055 SA
BRANCH  10  12
ATOM     12  N   UNL d   1      52.759  33.205  53.665  0.00  0.00    -0.233 NA
BRANCH  12  13
ATOM     13  C   UNL d   1      52.878  33.986  53.917  0.00  0.00     0.082 A 
ATOM     14  C   UNL d   1      52.782  34.600  53.376  0.00  0.00     0.019 A 
ATOM     15  C   UNL d   1      52.898  35.379  53.616  0.00  0.00     0.002 A 
ATOM     16  C   UNL d   1      53.110  35.540  54.397  0.00  0.00     0.000 A 
ATOM     17  C   UNL d   1      53.206  34.918  54.938  0.00  0.00     0.002 A 
ATOM     18  C   UNL d   1      53.090  34.139  54.699  0.00  0.00     0.019 A 
ENDBRANCH  12  13
ENDBRANCH  10  12
ENDBRANCH   1  10
TORSDOF 3
ENDMDL
MODEL 2
REMARK VINA RESULT:      -7.8      2.287      3.391
REMARK  3 active torsions:
REMARK  status: ('A' for Active; 'I' for Inactive)
REMARK    1  A    between atoms: C_4  and  C_1 
REMARK    2  A    between atoms: N_7  and  C_4 
REMARK    3  A    between atoms: C_9  and  N_7 
ROOT
ATOM      1  C   UNL d   1      52.514  33.536  53.616  0.00  0.00     0.139 A 
ATOM      2  N   UNL d   1      52.741  33.905  54.302  0.00  0.00    -0.236 NA
ATOM      3  S   UNL d   1      53.139  33.086  53.331  0.00  0.00    -0.064 SA
ATOM      4  C   UNL d   1      53.529  33.686  54.461  0.00  0.00     0.088 A 
ATOM      5  C   UNL d   1      53.774  33.180  53.859  0.00  0.00     0.049 A 
ATOM      6  C   UNL d   1      54.049  33.883  55.071  0.00  0.00     0.020 A 
ATOM      7  C   UNL d   1      54.543  32.866  53.864  0.00  0.00     0.008 A 
ATOM      8  C   UNL d   1      55.062  33.063  54.474  0.00  0.00     0.001 A 
ATOM      9  C   UNL d   1      54.812  33.574  55.080  0.00  0.00     0.002 A 
ENDROOT
BRANCH   1  10
ATOM     10  C   UNL d   1      51.766  33.609  53.266  0.00  0.00     0.159 C 
ATOM     11  S   UNL d   1      51.240  32.969  53.268  0.00  0.00    -0.055 SA
BRANCH  10  12
ATOM     12  N   UNL d   1      51.543  34.321  52.915  0.00  0.00    -0.233 NA
BRANCH  12  13
ATOM     13  C   UNL d   1      50.795  34.394  52.565  0.00  0.00     0.082 A 
ATOM     14  C   UNL d   1      50.165  34.671  53.018  0.00  0.00     0.019 A 
ATOM     15  C   UNL d   1      49.419  34.747  52.680  0.00  0.00     0.002 A 
ATOM     16  C   UNL d   1      49.305  34.545  51.888  0.00  0.00     0.000 A 
ATOM     17  C   UNL d   1      49.942  34.266  51.434  0.00  0.00     0.002 A 
ATOM     18  C   UNL d   1      50.688  34.190  51.772  0.00  0.00     0.019 A 
ENDBRANCH  12  13
ENDBRANCH  10  12
ENDBRANCH   1  10
TORSDOF 3
ENDMDL
MODEL 3
REMARK VINA RESULT:      -7.6      0.630      4.247
REMARK  3 active torsions:
REMARK  status: ('A' for Active; 'I' for Inactive)
REMARK    1  A    between atoms: C_4  and  C_1 
REMARK    2  A    between atoms: N_7  and  C_4 
REMARK    3  A    between atoms: C_9  and  N_7 
ROOT
ATOM      1  C   UNL d   1      52.936  32.951  53.613  0.00  0.00     0.139 A 
ATOM      2  N   UNL d   1      53.307  33.153  54.306  0.00  0.00    -0.236 NA
ATOM      3  S   UNL d   1      52.635  33.627  53.259  0.00  0.00    -0.064 SA
ATOM      4  C   UNL d   1      53.242  33.979  54.398  0.00  0.00     0.088 A 
ATOM      5  C   UNL d   1      52.827  34.271  53.750  0.00  0.00     0.049 A 
ATOM      6  C   UNL d   1      53.507  34.495  54.985  0.00  0.00     0.020 A 
ATOM      7  C   UNL d   1      52.673  35.084  53.683  0.00  0.00     0.008 A 
ATOM      8  C   UNL d   1      52.938  35.600  54.270  0.00  0.00     0.001 A 
ATOM      9  C   UNL d   1      53.357  35.303  54.923  0.00  0.00     0.002 A 
ENDROOT
BRANCH   1  10
ATOM     10  C   UNL d   1      52.876  32.178  53.319  0.00  0.00     0.159 C 
ATOM     11  S   UNL d   1      52.196  31.938  52.911  0.00  0.00    -0.055 SA
BRANCH  10  12
ATOM     12  N   UNL d   1      53.495  31.645  53.432  0.00  0.00    -0.233 NA
BRANCH  12  13
ATOM     13  C   UNL d   1      53.338  30.832  53.487  0.00  0.00     0.082 A 
ATOM     14  C   UNL d   1      53.448  30.451  54.209  0.00  0.00     0.019 A 
ATOM     15  C   UNL d   1      53.295  29.645  54.274  0.00  0.00     0.002 A 
ATOM     16  C   UNL d   1      53.031  29.223  53.616  0.00  0.00     0.000 A 
ATOM     17  C   UNL d   1      52.921  29.612  52.891  0.00  0.00     0.002 A 
ATOM     18  C   UNL d   1      53.074  30.417  52.825  0.00  0.00     0.019 A 
ENDBRANCH  12  13
ENDBRANCH  10  12
ENDBRANCH   1  10
TORSDOF 3
ENDMDL
MODEL 4
REMARK VINA RESULT:      -7.5      2.336      3.859
REMARK  3 active torsions:
REMARK  status: ('A' for Active; 'I' for Inactive)
REMARK    1  A    between atoms: C_4  and  C_1 
REMARK    2  A    between atoms: N_7  and  C_4 
REMARK    3  A    between atoms: C_9  and  N_7 
ROOT
ATOM      1  C   UNL d   1      51.712  34.268  53.117  0.00  0.00     0.139 A 
ATOM      2  N   UNL d   1      51.008  34.513  53.438  0.00  0.00    -0.236 NA
ATOM      3  S   UNL d   1      51.603  34.100  52.321  0.00  0.00    -0.064 SA
ATOM      4  C   UNL d   1      50.434  34.503  52.834  0.00  0.00     0.088 A 
ATOM      5  C   UNL d   1      50.804  34.247  52.143  0.00  0.00     0.049 A 
ATOM      6  C   UNL d   1      49.631  34.692  52.826  0.00  0.00     0.020 A 
ATOM      7  C   UNL d   1      50.371  34.179  51.438  0.00  0.00     0.008 A 
ATOM      8  C   UNL d   1      49.568  34.369  51.430  0.00  0.00     0.001 A 
ATOM      9  C   UNL d   1      49.198  34.626  52.128  0.00  0.00     0.002 A 
ENDROOT
BRANCH   1  10
ATOM     10  C   UNL d   1      52.423  34.200  53.537  0.00  0.00     0.159 C 
ATOM     11  S   UNL d   1      52.904  34.864  53.654  0.00  0.00    -0.055 SA
BRANCH  10  12
ATOM     12  N   UNL d   1      52.655  33.469  53.842  0.00  0.00    -0.233 NA
BRANCH  12  13
ATOM     13  C   UNL d   1      53.411  33.378  54.171  0.00  0.00     0.082 A 
ATOM     14  C   UNL d   1      54.013  33.058  53.709  0.00  0.00     0.019 A 
ATOM     15  C   UNL d   1      54.767  32.963  54.027  0.00  0.00     0.002 A 
ATOM     16  C   UNL d   1      54.914  33.189  54.806  0.00  0.00     0.000 A 
ATOM     17  C   UNL d   1      54.304  33.511  55.269  0.00  0.00     0.002 A 
ATOM     18  C   UNL d   1      53.551  33.606  54.951  0.00  0.00     0.019 A 
ENDBRANCH  12  13
ENDBRANCH  10  12
ENDBRANCH   1  10
TORSDOF 3
ENDMDL
MODEL 5
REMARK VINA RESULT:      -7.5      1.688      4.188
REMARK  3 active torsions:
REMARK  status: ('A' for Active; 'I' for Inactive)
REMARK    1  A    between atoms: C_4  and  C_1 
REMARK    2  A    between atoms: N_7  and  C_4 
REMARK    3  A    between atoms: C_9  and  N_7 
ROOT
ATOM      1  C   UNL d   1      52.184  32.982  52.980  0.00  0.00     0.139 A 
ATOM      2  N   UNL d   1      51.940  33.207  52.239  0.00  0.00    -0.236 NA
ATOM      3  S   UNL d   1      51.704  33.337  53.543  0.00  0.00    -0.064 SA
ATOM      4  C   UNL d   1      51.288  33.718  52.330  0.00  0.00     0.088 A 
ATOM      5  C   UNL d   1      51.143  33.797  53.136  0.00  0.00     0.049 A 
ATOM      6  C   UNL d   1      50.814  34.116  51.784  0.00  0.00     0.020 A 
ATOM      7  C   UNL d   1      50.520  34.277  53.405  0.00  0.00     0.008 A 
ATOM      8  C   UNL d   1      50.046  34.675  52.859  0.00  0.00     0.001 A 
ATOM      9  C   UNL d   1      50.195  34.593  52.046  0.00  0.00     0.002 A 
ENDROOT
BRANCH   1  10
ATOM     10  C   UNL d   1      52.821  32.473  53.132  0.00  0.00     0.159 C 
ATOM     11  S   UNL d   1      53.357  32.645  53.739  0.00  0.00    -0.055 SA
BRANCH  10  12
ATOM     12  N   UNL d   1      52.922  31.792  52.677  0.00  0.00    -0.233 NA
BRANCH  12  13
ATOM     13  C   UNL d   1      53.073  31.065  53.047  0.00  0.00     0.082 A 
ATOM     14  C   UNL d   1      52.506  30.469  53.005  0.00  0.00     0.019 A 
ATOM     15  C   UNL d   1      52.647  29.744  53.369  0.00  0.00     0.002 A 
ATOM     16  C   UNL d   1      53.354  29.619  53.774  0.00  0.00     0.000 A 
ATOM     17  C   UNL d   1      53.923  30.223  53.815  0.00  0.00     0.002 A 
ATOM     18  C   UNL d   1      53.783  30.948  53.451  0.00  0.00     0.019 A 
ENDBRANCH  12  13
ENDBRANCH  10  12
ENDBRANCH   1  10
TORSDOF 3
ENDMDL
