MODEL 1
REMARK VINA RESULT:     102.2      0.000      0.000
REMARK  2 active torsions:
REMARK  status: ('A' for Active; 'I' for Inactive)
REMARK    1  A    between atoms: C_9  and  C_1 
REMARK    2  A    between atoms: N_7  and  C_2 
ROOT
ATOM      1  C   UNL d   1     -55.353-100.823 -44.164  0.00  0.00     0.022 A 
ATOM      2  C   UNL d   1     -55.169-100.830 -43.365  0.00  0.00     0.123 A 
ATOM      3  C   UNL d   1     -54.891-101.507 -43.015  0.00  0.00     0.295 A 
ATOM      4  C   UNL d   1     -55.254-101.516 -44.622  0.00  0.00     0.020 A 
ATOM      5  N   UNL d   1     -54.789-102.193 -43.454  0.00  0.00    -0.207 NA
ATOM      6  C   UNL d   1     -54.975-102.192 -44.271  0.00  0.00     0.085 A 
ATOM      7  C   UNL d   1     -55.437-101.505 -45.413  0.00  0.00     0.013 A 
ATOM      8  O   UNL d   1     -54.712-101.479 -42.191  0.00  0.00    -0.264 OA
ATOM      9  C   UNL d   1     -54.873-102.874 -44.704  0.00  0.00     0.020 A 
ATOM     10  C   UNL d   1     -55.337-102.198 -45.871  0.00  0.00     0.058 A 
ATOM     11  C   UNL d   1     -55.059-102.874 -45.521  0.00  0.00     0.013 A 
ATOM     12 CL   UNL d   1     -55.516-102.223 -46.691  0.00  0.00    -0.082 Cl
ENDROOT
BRANCH   1  13
ATOM     13  C   UNL d   1     -55.639-100.128 -44.524  0.00  0.00     0.002 A 
ATOM     14  C   UNL d   1     -56.439 -99.971 -44.536  0.00  0.00     0.000 A 
ATOM     15  C   UNL d   1     -56.721 -99.285 -44.892  0.00  0.00     0.000 A 
ATOM     16  C   UNL d   1     -56.188 -98.757 -45.235  0.00  0.00     0.000 A 
ATOM     17  C   UNL d   1     -55.387 -98.909 -45.226  0.00  0.00     0.000 A 
ATOM     18  C   UNL d   1     -55.100 -99.605 -44.865  0.00  0.00     0.000 A 
ENDBRANCH   1  13
BRANCH   2  19
ATOM     19  N   UNL d   1     -55.271-100.153 -42.935  0.00  0.00    -0.296 N 
ATOM     20  C   UNL d   1     -55.943 -99.679 -43.069  0.00  0.00     0.107 A 
ATOM     21  C   UNL d   1     -56.057 -98.982 -42.634  0.00  0.00     0.142 A 
ATOM     22  O   UNL d   1     -55.495 -98.757 -42.060  0.00  0.00    -0.300 OA
ATOM     23  C   UNL d   1     -54.833 -99.226 -41.930  0.00  0.00     0.142 A 
ATOM     24  C   UNL d   1     -54.711 -99.924 -42.360  0.00  0.00     0.107 A 
ENDBRANCH   2  19
TORSDOF 2
ENDMDL
