MODEL 1
REMARK VINA RESULT:      81.7      0.000      0.000
REMARK  4 active torsions:
REMARK  status: ('A' for Active; 'I' for Inactive)
REMARK    1  A    between atoms: C_2  and  S_1 
REMARK    2  A    between atoms: N_3  and  S_1 
REMARK    3  A    between atoms: C_7  and  C_14 
REMARK       I    between atoms: N_9  and  C_7 
REMARK    4  A    between atoms: C_13  and  N_10 
ROOT
ATOM      1  N   UNL d   1     -51.513  25.429  33.456  0.00  0.00    -0.229 N 
ATOM      2  C   UNL d   1     -49.998  26.111  33.527  0.00  0.00     0.060 A 
ATOM      3  C   UNL d   1     -51.425  26.243  33.343  0.00  0.00     0.092 A 
ATOM      4  C   UNL d   1     -50.849  24.964  33.602  0.00  0.00     0.092 A 
ATOM      5  C   UNL d   1     -50.100  25.301  33.638  0.00  0.00     0.025 A 
ATOM      6  C   UNL d   1     -50.658  26.587  33.379  0.00  0.00     0.025 A 
ENDROOT
BRANCH   2   7
ATOM      7  C   UNL d   1     -49.248  26.448  33.563  0.00  0.00     0.265 C 
ATOM      8  N   UNL d   1     -49.147  27.207  33.825  0.00  0.00    -0.269 N 
ATOM      9  C   UNL d   1     -49.804  27.658  34.063  0.00  0.00     0.102 A 
ATOM     10  C   UNL d   1     -48.397  27.544  33.860  0.00  0.00     0.102 A 
ATOM     11  C   UNL d   1     -49.710  28.433  34.331  0.00  0.00     0.100 A 
ATOM     12  N   UNL d   1     -48.949  28.766  34.364  0.00  0.00    -0.301 N 
ATOM     13  C   UNL d   1     -48.291  28.315  34.126  0.00  0.00     0.100 A 
ATOM     14  O   UNL d   1     -48.591  25.997  33.324  0.00  0.00    -0.267 OA
BRANCH  12  15
ATOM     15  C   UNL d   1     -48.440  29.404  34.536  0.00  0.00     0.064 A 
ATOM     16  C   UNL d   1     -48.217  30.187  34.395  0.00  0.00     0.020 A 
ATOM     17  C   UNL d   1     -47.577  30.513  34.815  0.00  0.00     0.031 A 
ATOM     18  C   UNL d   1     -47.174  30.041  35.372  0.00  0.00     0.140 A 
ATOM     19  C   UNL d   1     -47.401  29.262  35.509  0.00  0.00     0.031 A 
ATOM     20  F   UNL d   1     -46.525  30.364  35.803  0.00  0.00    -0.204 F 
ATOM     21  C   UNL d   1     -48.041  28.942  35.084  0.00  0.00     0.020 A 
ENDBRANCH  12  15
ENDBRANCH   2   7
BRANCH   1  22
ATOM     22  S   UNL d   1     -52.263  25.091  33.420  0.00  0.00     0.275 S 
ATOM     23  O   UNL d   1     -51.911  24.345  33.320  0.00  0.00    -0.199 OA
ATOM     24  O   UNL d   1     -52.603  25.849  33.522  0.00  0.00    -0.199 OA
BRANCH  22  25
ATOM     25  C   UNL d   1     -53.021  24.751  33.385  0.00  0.00     0.148 A 
ATOM     26  C   UNL d   1     -53.773  25.080  33.389  0.00  0.00     0.139 A 
ATOM     27  O   UNL d   1     -54.320  24.470  33.342  0.00  0.00    -0.210 OA
ATOM     28  C   UNL d   1     -53.940  25.890  33.435  0.00  0.00     0.030 C 
ATOM     29  N   UNL d   1     -53.910  23.754  33.307  0.00  0.00    -0.126 NA
ATOM     30  C   UNL d   1     -53.093  23.933  33.334  0.00  0.00     0.122 A 
ATOM     31  C   UNL d   1     -52.474  23.383  33.313  0.00  0.00     0.024 C 
ENDBRANCH  22  25
ENDBRANCH   1  22
TORSDOF 4
ENDMDL
MODEL 2
REMARK VINA RESULT:      81.9      0.923      1.223
REMARK  4 active torsions:
REMARK  status: ('A' for Active; 'I' for Inactive)
REMARK    1  A    between atoms: C_2  and  S_1 
REMARK    2  A    between atoms: N_3  and  S_1 
REMARK    3  A    between atoms: C_7  and  C_14 
REMARK       I    between atoms: N_9  and  C_7 
REMARK    4  A    between atoms: C_13  and  N_10 
ROOT
ATOM      1  N   UNL d   1     -50.642  25.946  33.625  0.00  0.00    -0.229 N 
ATOM      2  C   UNL d   1     -49.176  26.711  33.797  0.00  0.00     0.060 A 
ATOM      3  C   UNL d   1     -50.620  26.747  33.828  0.00  0.00     0.092 A 
ATOM      4  C   UNL d   1     -49.937  25.536  33.510  0.00  0.00     0.092 A 
ATOM      5  C   UNL d   1     -49.212  25.914  33.595  0.00  0.00     0.025 A 
ATOM      6  C   UNL d   1     -49.878  27.134  33.915  0.00  0.00     0.025 A 
ENDROOT
BRANCH   2   7
ATOM      7  C   UNL d   1     -48.450  27.090  33.882  0.00  0.00     0.265 C 
ATOM      8  N   UNL d   1     -48.366  27.717  34.387  0.00  0.00    -0.269 N 
ATOM      9  C   UNL d   1     -49.016  27.988  34.829  0.00  0.00     0.102 A 
ATOM     10  C   UNL d   1     -47.640  28.095  34.472  0.00  0.00     0.102 A 
ATOM     11  C   UNL d   1     -48.940  28.626  35.346  0.00  0.00     0.100 A 
ATOM     12  N   UNL d   1     -48.203  29.003  35.426  0.00  0.00    -0.301 N 
ATOM     13  C   UNL d   1     -47.552  28.732  34.984  0.00  0.00     0.100 A 
ATOM     14  O   UNL d   1     -47.799  26.819  33.441  0.00  0.00    -0.267 OA
BRANCH  12  15
ATOM     15  C   UNL d   1     -47.719  29.590  35.767  0.00  0.00     0.064 A 
ATOM     16  C   UNL d   1     -47.213  29.822  36.377  0.00  0.00     0.020 A 
ATOM     17  C   UNL d   1     -46.882  30.585  36.369  0.00  0.00     0.031 A 
ATOM     18  C   UNL d   1     -47.070  31.103  35.743  0.00  0.00     0.140 A 
ATOM     19  C   UNL d   1     -47.576  30.868  35.137  0.00  0.00     0.031 A 
ATOM     20  F   UNL d   1     -46.740  31.878  35.728  0.00  0.00    -0.204 F 
ATOM     21  C   UNL d   1     -47.902  30.102  35.152  0.00  0.00     0.020 A 
ENDBRANCH  12  15
ENDBRANCH   2   7
BRANCH   1  22
ATOM     22  S   UNL d   1     -51.368  25.567  33.540  0.00  0.00     0.275 S 
ATOM     23  O   UNL d   1     -51.008  24.850  33.756  0.00  0.00    -0.199 OA
ATOM     24  O   UNL d   1     -51.717  26.296  33.324  0.00  0.00    -0.199 OA
BRANCH  22  25
ATOM     25  C   UNL d   1     -52.101  25.185  33.454  0.00  0.00     0.148 A 
ATOM     26  C   UNL d   1     -52.870  25.472  33.416  0.00  0.00     0.139 A 
ATOM     27  O   UNL d   1     -53.377  24.832  33.328  0.00  0.00    -0.210 OA
ATOM     28  C   UNL d   1     -53.086  26.270  33.460  0.00  0.00     0.030 C 
ATOM     29  N   UNL d   1     -52.926  24.141  33.310  0.00  0.00    -0.126 NA
ATOM     30  C   UNL d   1     -52.124  24.365  33.389  0.00  0.00     0.122 A 
ATOM     31  C   UNL d   1     -51.474  23.851  33.400  0.00  0.00     0.024 C 
ENDBRANCH  22  25
ENDBRANCH   1  22
TORSDOF 4
ENDMDL
MODEL 3
REMARK VINA RESULT:      83.5      1.401      2.104
REMARK  4 active torsions:
REMARK  status: ('A' for Active; 'I' for Inactive)
REMARK    1  A    between atoms: C_2  and  S_1 
REMARK    2  A    between atoms: N_3  and  S_1 
REMARK    3  A    between atoms: C_7  and  C_14 
REMARK       I    between atoms: N_9  and  C_7 
REMARK    4  A    between atoms: C_13  and  N_10 
ROOT
ATOM      1  N   UNL d   1     -50.450  26.447  33.971  0.00  0.00    -0.229 N 
ATOM      2  C   UNL d   1     -49.091  27.326  34.349  0.00  0.00     0.060 A 
ATOM      3  C   UNL d   1     -50.369  26.770  34.727  0.00  0.00     0.092 A 
ATOM      4  C   UNL d   1     -49.856  26.564  33.413  0.00  0.00     0.092 A 
ATOM      5  C   UNL d   1     -49.184  26.999  33.599  0.00  0.00     0.025 A 
ATOM      6  C   UNL d   1     -49.681  27.215  34.918  0.00  0.00     0.025 A 
ENDROOT
BRANCH   2   7
ATOM      7  C   UNL d   1     -48.418  27.762  34.536  0.00  0.00     0.265 C 
ATOM      8  N   UNL d   1     -48.428  28.571  34.515  0.00  0.00    -0.269 N 
ATOM      9  C   UNL d   1     -49.124  28.975  34.303  0.00  0.00     0.102 A 
ATOM     10  C   UNL d   1     -47.755  29.006  34.702  0.00  0.00     0.102 A 
ATOM     11  C   UNL d   1     -49.144  29.799  34.279  0.00  0.00     0.100 A 
ATOM     12  N   UNL d   1     -48.459  30.232  34.469  0.00  0.00    -0.301 N 
ATOM     13  C   UNL d   1     -47.763  29.828  34.681  0.00  0.00     0.100 A 
ATOM     14  O   UNL d   1     -47.722  27.359  34.748  0.00  0.00    -0.267 OA
BRANCH  12  15
ATOM     15  C   UNL d   1     -48.061  30.957  34.569  0.00  0.00     0.064 A 
ATOM     16  C   UNL d   1     -47.428  31.377  34.894  0.00  0.00     0.020 A 
ATOM     17  C   UNL d   1     -47.362  32.194  34.754  0.00  0.00     0.031 A 
ATOM     18  C   UNL d   1     -47.938  32.574  34.285  0.00  0.00     0.140 A 
ATOM     19  C   UNL d   1     -48.566  32.151  33.963  0.00  0.00     0.031 A 
ATOM     20  F   UNL d   1     -47.878  33.402  34.138  0.00  0.00    -0.204 F 
ATOM     21  C   UNL d   1     -48.626  31.334  34.109  0.00  0.00     0.020 A 
ENDBRANCH  12  15
ENDBRANCH   2   7
BRANCH   1  22
ATOM     22  S   UNL d   1     -51.123  26.011  33.784  0.00  0.00     0.275 S 
ATOM     23  O   UNL d   1     -50.819  25.373  34.221  0.00  0.00    -0.199 OA
ATOM     24  O   UNL d   1     -51.417  26.662  33.347  0.00  0.00    -0.199 OA
BRANCH  22  25
ATOM     25  C   UNL d   1     -51.803  25.572  33.595  0.00  0.00     0.148 A 
ATOM     26  C   UNL d   1     -51.925  24.768  33.483  0.00  0.00     0.139 A 
ATOM     27  O   UNL d   1     -52.718  24.651  33.306  0.00  0.00    -0.210 OA
ATOM     28  C   UNL d   1     -51.341  24.182  33.542  0.00  0.00     0.030 C 
ATOM     29  N   UNL d   1     -53.096  25.385  33.306  0.00  0.00    -0.126 NA
ATOM     30  C   UNL d   1     -52.519  25.962  33.488  0.00  0.00     0.122 A 
ATOM     31  C   UNL d   1     -52.650  26.778  33.549  0.00  0.00     0.024 C 
ENDBRANCH  22  25
ENDBRANCH   1  22
TORSDOF 4
ENDMDL
