MODEL 1
REMARK VINA RESULT:      21.9      0.000      0.000
REMARK  3 active torsions:
REMARK  status: ('A' for Active; 'I' for Inactive)
REMARK    1  A    between atoms: C_4  and  C_1 
REMARK    2  A    between atoms: C_6  and  C_4 
REMARK    3  A    between atoms: N_5  and  C_7 
ROOT
ATOM      1  C   UNL d   1      14.547  12.842  -2.075  0.00  0.00     0.231 C 
ATOM      2  O   UNL d   1      15.250  13.253  -2.039  0.00  0.00    -0.283 OA
ENDROOT
BRANCH   1   3
ATOM      3  C   UNL d   1      14.132  12.770  -2.793  0.00  0.00     0.188 A 
ATOM      4  N   UNL d   1      13.853  12.072  -3.119  0.00  0.00    -0.224 NA
ATOM      5  C   UNL d   1      13.467  12.237  -3.842  0.00  0.00     0.099 A 
ATOM      6  C   UNL d   1      13.094  11.780  -4.394  0.00  0.00     0.021 A 
ATOM      7  C   UNL d   1      13.517  13.067  -3.954  0.00  0.00     0.083 A 
ATOM      8  C   UNL d   1      12.770  12.117  -5.048  0.00  0.00     0.002 A 
ATOM      9  C   UNL d   1      12.798  12.927  -5.194  0.00  0.00     0.002 A 
ATOM     10  C   UNL d   1      13.183  13.391  -4.624  0.00  0.00     0.019 A 
ATOM     11  N   UNL d   1      13.931  13.371  -3.294  0.00  0.00    -0.285 N 
ATOM     12  C   UNL d   1      14.144  14.152  -3.104  0.00  0.00     0.101 C 
ENDBRANCH   1   3
BRANCH   1  13
ATOM     13  C   UNL d   1      14.233  12.482  -1.374  0.00  0.00     0.064 A 
ATOM     14  C   UNL d   1      14.702  12.383  -0.712  0.00  0.00     0.130 A 
ATOM     15  C   UNL d   1      14.395  12.033  -0.035  0.00  0.00     0.024 A 
ATOM     16  C   UNL d   1      13.610  11.779  -0.014  0.00  0.00     0.002 A 
ATOM     17  C   UNL d   1      13.141  11.888  -0.701  0.00  0.00     0.000 A 
ATOM     18  C   UNL d   1      13.445  12.237  -1.382  0.00  0.00     0.005 A 
BRANCH  14  19
ATOM     19  N   UNL d   1      15.492  12.635  -0.724  0.00  0.00    -0.114 N 
ATOM     20  O   UNL d   1      15.639  13.324  -0.309  0.00  0.00    -0.532 OA
ATOM     21  O   UNL d   1      16.090  12.205  -1.137  0.00  0.00    -0.532 OA
ENDBRANCH  14  19
ENDBRANCH   1  13
TORSDOF 3
ENDMDL
