MODEL 1
REMARK VINA RESULT:      -3.8      0.000      0.000
REMARK  2 active torsions:
REMARK  status: ('A' for Active; 'I' for Inactive)
REMARK    1  A    between atoms: C_2  and  S_1 
REMARK    2  A    between atoms: N_4  and  S_1 
ROOT
ATOM      1  S   UNL d   1      55.913  -0.254  33.358  0.00  0.00     0.275 S 
ATOM      2  O   UNL d   1      56.598  -0.387  33.791  0.00  0.00    -0.199 OA
ATOM      3  O   UNL d   1      55.227  -0.120  32.928  0.00  0.00    -0.199 OA
ENDROOT
BRANCH   1   4
ATOM      4  C   UNL d   1      56.263  -0.558  32.680  0.00  0.00     0.143 A 
ATOM      5  C   UNL d   1      56.713  -0.124  32.140  0.00  0.00     0.117 A 
ATOM      6  N   UNL d   1      56.956  -0.641  31.546  0.00  0.00    -0.147 NA
ATOM      7  C   UNL d   1      56.890   0.681  32.183  0.00  0.00     0.023 C 
ATOM      8  N   UNL d   1      56.655  -1.391  31.723  0.00  0.00    -0.147 NA
ATOM      9  C   UNL d   1      56.230  -1.332  32.421  0.00  0.00     0.117 A 
ATOM     10  C   UNL d   1      55.837  -1.950  32.798  0.00  0.00     0.023 C 
ENDBRANCH   1   4
BRANCH   1  11
ATOM     11  N   UNL d   1      55.531   0.057  34.023  0.00  0.00    -0.225 N 
ATOM     12  C   UNL d   1      54.710   0.204  34.000  0.00  0.00     0.118 A 
ATOM     13  C   UNL d   1      54.328   0.515  34.665  0.00  0.00     0.142 A 
ATOM     14  O   UNL d   1      54.755   0.682  35.348  0.00  0.00    -0.300 OA
ATOM     15  C   UNL d   1      55.568   0.538  35.373  0.00  0.00     0.142 A 
ATOM     16  C   UNL d   1      55.958   0.225  34.710  0.00  0.00     0.118 A 
ENDBRANCH   1  11
TORSDOF 2
ENDMDL
MODEL 2
REMARK VINA RESULT:      -2.9      1.509      3.199
REMARK  2 active torsions:
REMARK  status: ('A' for Active; 'I' for Inactive)
REMARK    1  A    between atoms: C_2  and  S_1 
REMARK    2  A    between atoms: N_4  and  S_1 
ROOT
ATOM      1  S   UNL d   1      56.677  -0.107  32.500  0.00  0.00     0.275 S 
ATOM      2  O   UNL d   1      56.855  -0.894  32.650  0.00  0.00    -0.199 OA
ATOM      3  O   UNL d   1      56.501   0.680  32.347  0.00  0.00    -0.199 OA
ENDROOT
BRANCH   1   4
ATOM      4  C   UNL d   1      56.330  -0.027  33.240  0.00  0.00     0.143 A 
ATOM      5  C   UNL d   1      56.680   0.338  33.894  0.00  0.00     0.117 A 
ATOM      6  N   UNL d   1      56.144   0.296  34.518  0.00  0.00    -0.147 NA
ATOM      7  C   UNL d   1      57.429   0.682  33.922  0.00  0.00     0.023 C 
ATOM      8  N   UNL d   1      55.467  -0.093  34.247  0.00  0.00    -0.147 NA
ATOM      9  C   UNL d   1      55.589  -0.289  33.460  0.00  0.00     0.117 A 
ATOM     10  C   UNL d   1      55.053  -0.683  32.974  0.00  0.00     0.023 C 
ENDBRANCH   1   4
BRANCH   1  11
ATOM     11  N   UNL d   1      57.019  -0.153  31.748  0.00  0.00    -0.225 N 
ATOM     12  C   UNL d   1      57.301  -0.885  31.463  0.00  0.00     0.118 A 
ATOM     13  C   UNL d   1      57.642  -0.931  30.711  0.00  0.00     0.142 A 
ATOM     14  O   UNL d   1      57.705  -0.257  30.242  0.00  0.00    -0.300 OA
ATOM     15  C   UNL d   1      57.426   0.468  30.522  0.00  0.00     0.142 A 
ATOM     16  C   UNL d   1      57.082   0.522  31.276  0.00  0.00     0.118 A 
ENDBRANCH   1  11
TORSDOF 2
ENDMDL
MODEL 3
REMARK VINA RESULT:      -2.4      4.317      5.882
REMARK  2 active torsions:
REMARK  status: ('A' for Active; 'I' for Inactive)
REMARK    1  A    between atoms: C_2  and  S_1 
REMARK    2  A    between atoms: N_4  and  S_1 
ROOT
ATOM      1  S   UNL d   1      58.896  -1.102  29.348  0.00  0.00     0.275 S 
ATOM      2  O   UNL d   1      59.516  -0.763  29.765  0.00  0.00    -0.199 OA
ATOM      3  O   UNL d   1      58.279  -1.445  28.929  0.00  0.00    -0.199 OA
ENDROOT
BRANCH   1   4
ATOM      4  C   UNL d   1      58.399  -0.481  29.549  0.00  0.00     0.143 A 
ATOM      5  C   UNL d   1      57.898  -0.466  30.205  0.00  0.00     0.117 A 
ATOM      6  N   UNL d   1      57.501   0.256  30.198  0.00  0.00    -0.147 NA
ATOM      7  C   UNL d   1      57.807  -1.061  30.769  0.00  0.00     0.023 C 
ATOM      8  N   UNL d   1      57.759   0.682  29.538  0.00  0.00    -0.147 NA
ATOM      9  C   UNL d   1      58.311   0.222  29.144  0.00  0.00     0.117 A 
ATOM     10  C   UNL d   1      58.710   0.435  28.455  0.00  0.00     0.023 C 
ENDBRANCH   1   4
BRANCH   1  11
ATOM     11  N   UNL d   1      59.371  -1.743  29.126  0.00  0.00    -0.225 N 
ATOM     12  C   UNL d   1      59.019  -2.443  28.840  0.00  0.00     0.118 A 
ATOM     13  C   UNL d   1      59.494  -3.084  28.619  0.00  0.00     0.142 A 
ATOM     14  O   UNL d   1      60.313  -3.033  28.680  0.00  0.00    -0.300 OA
ATOM     15  C   UNL d   1      60.664  -2.341  28.963  0.00  0.00     0.142 A 
ATOM     16  C   UNL d   1      60.194  -1.694  29.187  0.00  0.00     0.118 A 
ENDBRANCH   1  11
TORSDOF 2
ENDMDL
MODEL 4
REMARK VINA RESULT:      -2.4      4.780      5.929
REMARK  2 active torsions:
REMARK  status: ('A' for Active; 'I' for Inactive)
REMARK    1  A    between atoms: C_2  and  S_1 
REMARK    2  A    between atoms: N_4  and  S_1 
ROOT
ATOM      1  S   UNL d   1      59.230  -1.862  29.100  0.00  0.00     0.275 S 
ATOM      2  O   UNL d   1      58.809  -2.148  29.745  0.00  0.00    -0.199 OA
ATOM      3  O   UNL d   1      59.649  -1.573  28.456  0.00  0.00    -0.199 OA
ENDROOT
BRANCH   1   4
ATOM      4  C   UNL d   1      59.607  -2.585  29.005  0.00  0.00     0.143 A 
ATOM      5  C   UNL d   1      59.256  -3.270  28.707  0.00  0.00     0.117 A 
ATOM      6  N   UNL d   1      59.828  -3.863  28.706  0.00  0.00    -0.147 NA
ATOM      7  C   UNL d   1      58.475  -3.353  28.455  0.00  0.00     0.023 C 
ATOM      8  N   UNL d   1      60.529  -3.540  29.003  0.00  0.00    -0.147 NA
ATOM      9  C   UNL d   1      60.385  -2.754  29.184  0.00  0.00     0.117 A 
ATOM     10  C   UNL d   1      60.935  -2.224  29.495  0.00  0.00     0.023 C 
ENDBRANCH   1   4
BRANCH   1  11
ATOM     11  N   UNL d   1      58.868  -1.121  29.168  0.00  0.00    -0.225 N 
ATOM     12  C   UNL d   1      58.877  -0.592  28.522  0.00  0.00     0.118 A 
ATOM     13  C   UNL d   1      58.515   0.149  28.591  0.00  0.00     0.142 A 
ATOM     14  O   UNL d   1      58.145   0.366  29.294  0.00  0.00    -0.300 OA
ATOM     15  C   UNL d   1      58.135  -0.156  29.934  0.00  0.00     0.142 A 
ATOM     16  C   UNL d   1      58.496  -0.901  29.873  0.00  0.00     0.118 A 
ENDBRANCH   1  11
TORSDOF 2
ENDMDL
MODEL 5
REMARK VINA RESULT:      -2.2      1.603      2.352
REMARK  2 active torsions:
REMARK  status: ('A' for Active; 'I' for Inactive)
REMARK    1  A    between atoms: C_2  and  S_1 
REMARK    2  A    between atoms: N_4  and  S_1 
ROOT
ATOM      1  S   UNL d   1      57.056  -0.094  31.917  0.00  0.00     0.275 S 
ATOM      2  O   UNL d   1      57.192  -0.871  31.690  0.00  0.00    -0.199 OA
ATOM      3  O   UNL d   1      56.918   0.682  32.146  0.00  0.00    -0.199 OA
ENDROOT
BRANCH   1   4
ATOM      4  C   UNL d   1      57.685   0.167  31.458  0.00  0.00     0.143 A 
ATOM      5  C   UNL d   1      58.384   0.496  31.750  0.00  0.00     0.117 A 
ATOM      6  N   UNL d   1      58.862   0.680  31.105  0.00  0.00    -0.147 NA
ATOM      7  C   UNL d   1      58.574   0.621  32.543  0.00  0.00     0.023 C 
ATOM      8  N   UNL d   1      58.455   0.463  30.418  0.00  0.00    -0.147 NA
ATOM      9  C   UNL d   1      57.733   0.148  30.644  0.00  0.00     0.117 A 
ATOM     10  C   UNL d   1      57.153  -0.138  30.133  0.00  0.00     0.023 C 
ENDBRANCH   1   4
BRANCH   1  11
ATOM     11  N   UNL d   1      56.416  -0.324  32.389  0.00  0.00    -0.225 N 
ATOM     12  C   UNL d   1      55.904   0.254  32.706  0.00  0.00     0.118 A 
ATOM     13  C   UNL d   1      55.265   0.024  33.178  0.00  0.00     0.142 A 
ATOM     14  O   UNL d   1      55.132  -0.773  33.336  0.00  0.00    -0.300 OA
ATOM     15  C   UNL d   1      55.637  -1.346  33.024  0.00  0.00     0.142 A 
ATOM     16  C   UNL d   1      56.281  -1.123  32.549  0.00  0.00     0.118 A 
ENDBRANCH   1  11
TORSDOF 2
ENDMDL
