MODEL 1
REMARK VINA RESULT:      23.8      0.000      0.000
REMARK  4 active torsions:
REMARK  status: ('A' for Active; 'I' for Inactive)
REMARK    1  A    between atoms: C_2  and  C_1 
REMARK       I    between atoms: N_7  and  C_2 
REMARK    2  A    between atoms: C_9  and  N_7 
REMARK    3  A    between atoms: O_16  and  C_10 
REMARK    4  A    between atoms: C_18  and  O_16 
ROOT
ATOM      1  C   UNL d   1      44.599 -14.045  44.643  0.00  0.00     0.280 C 
ATOM      2  N   UNL d   1      44.524 -14.838  44.853  0.00  0.00    -0.208 NA
ATOM      3  O   UNL d   1      44.072 -13.490  44.955  0.00  0.00    -0.265 OA
ENDROOT
BRANCH   1   4
ATOM      4  C   UNL d   1      45.196 -13.809  44.125  0.00  0.00     0.065 A 
ATOM      5  C   UNL d   1      45.135 -13.211  43.559  0.00  0.00     0.011 A 
ATOM      6  C   UNL d   1      45.858 -13.166  43.172  0.00  0.00     0.030 A 
ATOM      7  C   UNL d   1      44.518 -12.703  43.347  0.00  0.00     0.001 A 
ATOM      8  C   UNL d   1      45.970 -12.611  42.567  0.00  0.00     0.006 A 
ATOM      9  S   UNL d   1      46.362 -13.732  43.496  0.00  0.00    -0.086 SA
ATOM     10  C   UNL d   1      45.368 -12.116  42.361  0.00  0.00     0.001 A 
ATOM     11  C   UNL d   1      44.637 -12.156  42.747  0.00  0.00     0.000 A 
ATOM     12  C   UNL d   1      45.943 -14.128  44.088  0.00  0.00     0.040 A 
ENDBRANCH   1   4
BRANCH   2  13
ATOM     13  C   UNL d   1      45.054 -15.400  44.540  0.00  0.00     0.085 A 
ATOM     14  C   UNL d   1      44.888 -15.757  43.815  0.00  0.00     0.021 A 
ATOM     15  C   UNL d   1      45.411 -16.312  43.504  0.00  0.00     0.026 A 
ATOM     16  C   UNL d   1      46.104 -16.516  43.917  0.00  0.00     0.100 A 
ATOM     17  C   UNL d   1      46.262 -16.155  44.641  0.00  0.00     0.026 A 
ATOM     18  C   UNL d   1      45.735 -15.595  44.954  0.00  0.00     0.021 A 
BRANCH  16  19
ATOM     19  O   UNL d   1      46.639 -17.074  43.615  0.00  0.00    -0.305 OA
BRANCH  19  20
ATOM     20  C   UNL d   1      46.369 -17.705  43.158  0.00  0.00     0.123 C 
ATOM     21  C   UNL d   1      46.388 -18.475  43.459  0.00  0.00     0.029 C 
ENDBRANCH  19  20
ENDBRANCH  16  19
ENDBRANCH   2  13
TORSDOF 4
ENDMDL
