MODEL 1
REMARK VINA RESULT:      93.4      0.000      0.000
REMARK  5 active torsions:
REMARK  status: ('A' for Active; 'I' for Inactive)
REMARK    1  A    between atoms: O_8  and  C_1 
REMARK    2  A    between atoms: C_10  and  C_5 
REMARK    3  A    between atoms: C_12  and  O_8 
REMARK    4  A    between atoms: N_9  and  C_10 
REMARK    5  A    between atoms: O_24  and  C_17 
ROOT
ATOM      1  C   UNL d   1     -56.911 -99.769 -44.443  0.00  0.00     0.161 A 
ATOM      2  C   UNL d   1     -55.815-100.983 -44.154  0.00  0.00     0.108 A 
ATOM      3  C   UNL d   1     -56.366-101.057 -44.779  0.00  0.00     0.064 A 
ATOM      4  C   UNL d   1     -56.908-100.456 -44.922  0.00  0.00     0.222 A 
ATOM      5  C   UNL d   1     -55.266-101.590 -44.009  0.00  0.00     0.079 A 
ATOM      6  O   UNL d   1     -55.809-100.306 -43.674  0.00  0.00    -0.305 OA
ATOM      7  C   UNL d   1     -56.364 -99.696 -43.823  0.00  0.00     0.126 A 
ATOM      8  C   UNL d   1     -56.356-101.743 -45.249  0.00  0.00     0.009 A 
ATOM      9  C   UNL d   1     -55.269-102.266 -44.486  0.00  0.00     0.199 A 
ATOM     10  O   UNL d   1     -57.454-100.525 -45.537  0.00  0.00    -0.284 OA
ATOM     11  C   UNL d   1     -55.812-102.342 -45.103  0.00  0.00     0.042 A 
ATOM     12  O   UNL d   1     -54.724-102.866 -44.340  0.00  0.00    -0.286 OA
ATOM     13  C   UNL d   1     -56.366 -99.021 -43.353  0.00  0.00     0.029 C 
ENDROOT
BRANCH   1  14
ATOM     14  O   UNL d   1     -57.455 -99.170 -44.589  0.00  0.00    -0.300 OA
BRANCH  14  15
ATOM     15  C   UNL d   1     -58.093 -99.061 -44.080  0.00  0.00     0.122 A 
ATOM     16  C   UNL d   1     -58.863 -99.138 -44.370  0.00  0.00     0.117 A 
ATOM     17  C   UNL d   1     -59.501 -99.030 -43.865  0.00  0.00     0.026 A 
ATOM     18  C   UNL d   1     -59.377 -98.846 -43.070  0.00  0.00     0.002 A 
ATOM     19  C   UNL d   1     -58.599 -98.769 -42.784  0.00  0.00     0.002 A 
ATOM     20  C   UNL d   1     -57.962 -98.878 -43.294  0.00  0.00     0.027 A 
BRANCH  16  21
ATOM     21  O   UNL d   1     -58.990 -99.321 -45.156  0.00  0.00    -0.326 OA
ATOM     22  C   UNL d   1     -59.308 -98.756 -45.670  0.00  0.00     0.181 C 
ENDBRANCH  16  21
ENDBRANCH  14  15
ENDBRANCH   1  14
BRANCH   5  23
ATOM     23  C   UNL d   1     -54.732-101.515 -43.402  0.00  0.00     0.086 C 
BRANCH  23  24
ATOM     24  N   UNL d   1     -54.920-101.802 -42.649  0.00  0.00    -0.300 N 
ATOM     25  C   UNL d   1     -54.728-102.579 -42.449  0.00  0.00     0.100 A 
ATOM     26  C   UNL d   1     -54.915-102.865 -41.700  0.00  0.00     0.100 A 
ATOM     27  N   UNL d   1     -55.293-102.375 -41.152  0.00  0.00    -0.299 N 
ATOM     28  C   UNL d   1     -55.484-101.599 -41.357  0.00  0.00     0.100 A 
ATOM     29  C   UNL d   1     -55.480-102.662 -40.403  0.00  0.00     0.100 C 
ATOM     30  C   UNL d   1     -55.296-101.313 -42.109  0.00  0.00     0.100 A 
ENDBRANCH  23  24
ENDBRANCH   5  23
TORSDOF 5
ENDMDL
