MODEL 1
REMARK VINA RESULT:      -6.7      0.000      0.000
REMARK  4 active torsions:
REMARK  status: ('A' for Active; 'I' for Inactive)
REMARK    1  A    between atoms: C_7  and  C_4 
REMARK    2  A    between atoms: C_8  and  C_5 
REMARK    3  A    between atoms: S_9  and  C_6 
REMARK    4  A    between atoms: C_14  and  S_9 
ROOT
ATOM      1  N   UNL d   1     -49.668  13.934  23.323  0.00  0.00    -0.200 NA
ATOM      2  N   UNL d   1     -48.560  13.065  23.212  0.00  0.00    -0.202 NA
ATOM      3  N   UNL d   1     -48.431  14.440  22.841  0.00  0.00    -0.206 NA
ATOM      4  C   UNL d   1     -49.235  14.555  23.046  0.00  0.00     0.187 A 
ATOM      5  C   UNL d   1     -48.108  13.694  22.928  0.00  0.00     0.166 A 
ATOM      6  C   UNL d   1     -49.332  13.193  23.405  0.00  0.00     0.197 A 
ENDROOT
BRANCH   5   7
ATOM      7  C   UNL d   1     -47.317  13.574  22.728  0.00  0.00     0.036 A 
ATOM      8  C   UNL d   1     -47.136  13.309  21.989  0.00  0.00     0.003 A 
ATOM      9  C   UNL d   1     -46.345  13.189  21.788  0.00  0.00     0.000 A 
ATOM     10  C   UNL d   1     -45.750  13.340  22.342  0.00  0.00     0.000 A 
ATOM     11  C   UNL d   1     -45.947  13.611  23.095  0.00  0.00     0.000 A 
ATOM     12  C   UNL d   1     -46.723  13.725  23.281  0.00  0.00     0.003 A 
ENDBRANCH   5   7
BRANCH   6  13
ATOM     13  S   UNL d   1     -49.793  12.540  23.698  0.00  0.00    -0.048 SA
BRANCH  13  14
ATOM     14  C   UNL d   1     -50.369  12.184  23.220  0.00  0.00     0.038 C 
ATOM     15  C   UNL d   1     -51.001  11.770  23.561  0.00  0.00     0.008 C 
ENDBRANCH  13  14
ENDBRANCH   6  13
BRANCH   4  16
ATOM     16  C   UNL d   1     -49.593  15.292  22.971  0.00  0.00     0.151 C 
ATOM     17 CL   UNL d   1     -49.846  15.533  22.241  0.00  0.00    -0.067 Cl
ATOM     18 CL   UNL d   1     -49.691  15.768  23.612  0.00  0.00    -0.067 Cl
ENDBRANCH   4  16
TORSDOF 4
ENDMDL
MODEL 2
REMARK VINA RESULT:      -6.6      1.956      3.599
REMARK  4 active torsions:
REMARK  status: ('A' for Active; 'I' for Inactive)
REMARK    1  A    between atoms: C_7  and  C_4 
REMARK    2  A    between atoms: C_8  and  C_5 
REMARK    3  A    between atoms: S_9  and  C_6 
REMARK    4  A    between atoms: C_14  and  S_9 
ROOT
ATOM      1  N   UNL d   1     -47.624  12.658  22.952  0.00  0.00    -0.200 NA
ATOM      2  N   UNL d   1     -47.922  14.038  22.932  0.00  0.00    -0.202 NA
ATOM      3  N   UNL d   1     -48.981  13.078  22.996  0.00  0.00    -0.206 NA
ATOM      4  C   UNL d   1     -48.406  12.468  22.987  0.00  0.00     0.187 A 
ATOM      5  C   UNL d   1     -48.726  13.854  22.968  0.00  0.00     0.166 A 
ATOM      6  C   UNL d   1     -47.383  13.439  22.924  0.00  0.00     0.197 A 
ENDROOT
BRANCH   5   7
ATOM      7  C   UNL d   1     -49.286  14.460  22.977  0.00  0.00     0.036 A 
ATOM      8  C   UNL d   1     -49.670  14.648  22.294  0.00  0.00     0.003 A 
ATOM      9  C   UNL d   1     -50.230  15.253  22.303  0.00  0.00     0.000 A 
ATOM     10  C   UNL d   1     -50.391  15.658  23.005  0.00  0.00     0.000 A 
ATOM     11  C   UNL d   1     -49.992  15.457  23.698  0.00  0.00     0.000 A 
ATOM     12  C   UNL d   1     -49.447  14.864  23.679  0.00  0.00     0.003 A 
ENDBRANCH   5   7
BRANCH   6  13
ATOM     13  S   UNL d   1     -46.556  13.635  22.887  0.00  0.00    -0.048 SA
BRANCH  13  14
ATOM     14  C   UNL d   1     -46.098  13.404  22.236  0.00  0.00     0.038 C 
ATOM     15  C   UNL d   1     -45.291  13.590  22.203  0.00  0.00     0.008 C 
ENDBRANCH  13  14
ENDBRANCH   6  13
BRANCH   4  16
ATOM     16  C   UNL d   1     -48.626  11.676  23.014  0.00  0.00     0.151 C 
ATOM     17 CL   UNL d   1     -48.905  11.322  22.342  0.00  0.00    -0.067 Cl
ATOM     18 CL   UNL d   1     -48.566  11.256  23.698  0.00  0.00    -0.067 Cl
ENDBRANCH   4  16
TORSDOF 4
ENDMDL
MODEL 3
REMARK VINA RESULT:      -6.3      1.955      3.256
REMARK  4 active torsions:
REMARK  status: ('A' for Active; 'I' for Inactive)
REMARK    1  A    between atoms: C_7  and  C_4 
REMARK    2  A    between atoms: C_8  and  C_5 
REMARK    3  A    between atoms: S_9  and  C_6 
REMARK    4  A    between atoms: C_14  and  S_9 
ROOT
ATOM      1  N   UNL d   1     -46.783  13.066  23.187  0.00  0.00    -0.200 NA
ATOM      2  N   UNL d   1     -47.941  12.268  23.062  0.00  0.00    -0.202 NA
ATOM      3  N   UNL d   1     -47.936  13.606  22.556  0.00  0.00    -0.206 NA
ATOM      4  C   UNL d   1     -47.145  13.685  22.819  0.00  0.00     0.187 A 
ATOM      5  C   UNL d   1     -48.320  12.895  22.684  0.00  0.00     0.166 A 
ATOM      6  C   UNL d   1     -47.180  12.361  23.308  0.00  0.00     0.197 A 
ENDROOT
BRANCH   5   7
ATOM      7  C   UNL d   1     -49.100  12.810  22.427  0.00  0.00     0.036 A 
ATOM      8  C   UNL d   1     -49.240  12.579  21.668  0.00  0.00     0.003 A 
ATOM      9  C   UNL d   1     -50.020  12.494  21.412  0.00  0.00     0.000 A 
ATOM     10  C   UNL d   1     -50.644  12.645  21.931  0.00  0.00     0.000 A 
ATOM     11  C   UNL d   1     -50.490  12.882  22.706  0.00  0.00     0.000 A 
ATOM     12  C   UNL d   1     -49.724  12.961  22.946  0.00  0.00     0.003 A 
ENDBRANCH   5   7
BRANCH   6  13
ATOM     13  S   UNL d   1     -46.794  11.710  23.698  0.00  0.00    -0.048 SA
BRANCH  13  14
ATOM     14  C   UNL d   1     -46.214  11.268  23.304  0.00  0.00     0.038 C 
ATOM     15  C   UNL d   1     -45.833  10.640  23.687  0.00  0.00     0.008 C 
ENDBRANCH  13  14
ENDBRANCH   6  13
BRANCH   4  16
ATOM     16  C   UNL d   1     -46.728  14.385  22.707  0.00  0.00     0.151 C 
ATOM     17 CL   UNL d   1     -45.927  14.352  22.594  0.00  0.00    -0.067 Cl
ATOM     18 CL   UNL d   1     -47.107  15.094  22.710  0.00  0.00    -0.067 Cl
ENDBRANCH   4  16
TORSDOF 4
ENDMDL
MODEL 4
REMARK VINA RESULT:      -5.7      9.004     10.041
REMARK  4 active torsions:
REMARK  status: ('A' for Active; 'I' for Inactive)
REMARK    1  A    between atoms: C_7  and  C_4 
REMARK    2  A    between atoms: C_8  and  C_5 
REMARK    3  A    between atoms: S_9  and  C_6 
REMARK    4  A    between atoms: C_14  and  S_9 
ROOT
ATOM      1  N   UNL d   1     -39.906  14.805  17.124  0.00  0.00    -0.200 NA
ATOM      2  N   UNL d   1     -40.637  15.401  18.175  0.00  0.00    -0.202 NA
ATOM      3  N   UNL d   1     -39.628  14.431  18.467  0.00  0.00    -0.206 NA
ATOM      4  C   UNL d   1     -39.480  14.361  17.645  0.00  0.00     0.187 A 
ATOM      5  C   UNL d   1     -40.207  14.952  18.716  0.00  0.00     0.166 A 
ATOM      6  C   UNL d   1     -40.482  15.322  17.388  0.00  0.00     0.197 A 
ENDROOT
BRANCH   5   7
ATOM      7  C   UNL d   1     -40.358  15.025  19.524  0.00  0.00     0.036 A 
ATOM      8  C   UNL d   1     -40.779  14.449  19.898  0.00  0.00     0.003 A 
ATOM      9  C   UNL d   1     -40.930  14.523  20.705  0.00  0.00     0.000 A 
ATOM     10  C   UNL d   1     -40.651  15.180  21.120  0.00  0.00     0.000 A 
ATOM     11  C   UNL d   1     -40.220  15.764  20.728  0.00  0.00     0.000 A 
ATOM     12  C   UNL d   1     -40.078  15.682  19.939  0.00  0.00     0.003 A 
ENDBRANCH   5   7
BRANCH   6  13
ATOM     13  S   UNL d   1     -40.930  15.788  16.835  0.00  0.00    -0.048 SA
BRANCH  13  14
ATOM     14  C   UNL d   1     -41.694  15.557  16.611  0.00  0.00     0.038 C 
ATOM     15  C   UNL d   1     -42.073  15.922  15.971  0.00  0.00     0.008 C 
ENDBRANCH  13  14
ENDBRANCH   6  13
BRANCH   4  16
ATOM     16  C   UNL d   1     -38.905  13.847  17.358  0.00  0.00     0.151 C 
ATOM     17 CL   UNL d   1     -39.062  13.054  17.338  0.00  0.00    -0.067 Cl
ATOM     18 CL   UNL d   1     -38.196  14.126  17.101  0.00  0.00    -0.067 Cl
ENDBRANCH   4  16
TORSDOF 4
ENDMDL
MODEL 5
REMARK VINA RESULT:      -5.7      1.167      3.072
REMARK  4 active torsions:
REMARK  status: ('A' for Active; 'I' for Inactive)
REMARK    1  A    between atoms: C_7  and  C_4 
REMARK    2  A    between atoms: C_8  and  C_5 
REMARK    3  A    between atoms: S_9  and  C_6 
REMARK    4  A    between atoms: C_14  and  S_9 
ROOT
ATOM      1  N   UNL d   1     -47.850  14.545  22.719  0.00  0.00    -0.200 NA
ATOM      2  N   UNL d   1     -47.885  13.192  23.121  0.00  0.00    -0.202 NA
ATOM      3  N   UNL d   1     -49.106  13.905  22.902  0.00  0.00    -0.206 NA
ATOM      4  C   UNL d   1     -48.655  14.583  22.703  0.00  0.00     0.187 A 
ATOM      5  C   UNL d   1     -48.709  13.220  23.108  0.00  0.00     0.166 A 
ATOM      6  C   UNL d   1     -47.467  13.853  22.927  0.00  0.00     0.197 A 
ENDROOT
BRANCH   5   7
ATOM      7  C   UNL d   1     -49.146  12.549  23.306  0.00  0.00     0.036 A 
ATOM      8  C   UNL d   1     -49.951  12.590  23.302  0.00  0.00     0.003 A 
ATOM      9  C   UNL d   1     -50.388  11.919  23.499  0.00  0.00     0.000 A 
ATOM     10  C   UNL d   1     -50.001  11.216  23.697  0.00  0.00     0.000 A 
ATOM     11  C   UNL d   1     -49.177  11.185  23.698  0.00  0.00     0.000 A 
ATOM     12  C   UNL d   1     -48.759  11.847  23.504  0.00  0.00     0.003 A 
ENDBRANCH   5   7
BRANCH   6  13
ATOM     13  S   UNL d   1     -46.617  13.818  22.942  0.00  0.00    -0.048 SA
BRANCH  13  14
ATOM     14  C   UNL d   1     -46.192  13.609  22.262  0.00  0.00     0.038 C 
ATOM     15  C   UNL d   1     -45.364  13.621  22.264  0.00  0.00     0.008 C 
ENDBRANCH  13  14
ENDBRANCH   6  13
BRANCH   4  16
ATOM     16  C   UNL d   1     -49.020  15.289  22.491  0.00  0.00     0.151 C 
ATOM     17 CL   UNL d   1     -49.590  15.598  22.975  0.00  0.00    -0.067 Cl
ATOM     18 CL   UNL d   1     -48.816  15.668  21.812  0.00  0.00    -0.067 Cl
ENDBRANCH   4  16
TORSDOF 4
ENDMDL
MODEL 6
REMARK VINA RESULT:      -5.6      8.740     10.042
REMARK  4 active torsions:
REMARK  status: ('A' for Active; 'I' for Inactive)
REMARK    1  A    between atoms: C_7  and  C_4 
REMARK    2  A    between atoms: C_8  and  C_5 
REMARK    3  A    between atoms: S_9  and  C_6 
REMARK    4  A    between atoms: C_14  and  S_9 
ROOT
ATOM      1  N   UNL d   1     -39.607  14.532  17.381  0.00  0.00    -0.200 NA
ATOM      2  N   UNL d   1     -39.480  14.340  18.774  0.00  0.00    -0.202 NA
ATOM      3  N   UNL d   1     -40.466  15.242  18.263  0.00  0.00    -0.206 NA
ATOM      4  C   UNL d   1     -40.209  15.058  17.487  0.00  0.00     0.187 A 
ATOM      5  C   UNL d   1     -40.095  14.877  18.894  0.00  0.00     0.166 A 
ATOM      6  C   UNL d   1     -39.245  14.175  18.022  0.00  0.00     0.197 A 
ENDROOT
BRANCH   5   7
ATOM      7  C   UNL d   1     -40.343  15.054  19.660  0.00  0.00     0.036 A 
ATOM      8  C   UNL d   1     -40.083  15.731  20.011  0.00  0.00     0.003 A 
ATOM      9  C   UNL d   1     -40.331  15.908  20.777  0.00  0.00     0.000 A 
ATOM     10  C   UNL d   1     -40.840  15.394  21.176  0.00  0.00     0.000 A 
ATOM     11  C   UNL d   1     -41.101  14.703  20.808  0.00  0.00     0.000 A 
ATOM     12  C   UNL d   1     -40.852  14.540  20.059  0.00  0.00     0.003 A 
ENDBRANCH   5   7
BRANCH   6  13
ATOM     13  S   UNL d   1     -38.610  13.620  17.905  0.00  0.00    -0.048 SA
BRANCH  13  14
ATOM     14  C   UNL d   1     -38.771  12.833  17.702  0.00  0.00     0.038 C 
ATOM     15  C   UNL d   1     -38.154  12.310  17.524  0.00  0.00     0.008 C 
ENDBRANCH  13  14
ENDBRANCH   6  13
BRANCH   4  16
ATOM     16  C   UNL d   1     -40.559  15.405  16.829  0.00  0.00     0.151 C 
ATOM     17 CL   UNL d   1     -41.326  15.219  16.648  0.00  0.00    -0.067 Cl
ATOM     18 CL   UNL d   1     -40.148  15.922  16.370  0.00  0.00    -0.067 Cl
ENDBRANCH   4  16
TORSDOF 4
ENDMDL
MODEL 7
REMARK VINA RESULT:      -5.0      1.709      1.850
REMARK  4 active torsions:
REMARK  status: ('A' for Active; 'I' for Inactive)
REMARK    1  A    between atoms: C_7  and  C_4 
REMARK    2  A    between atoms: C_8  and  C_5 
REMARK    3  A    between atoms: S_9  and  C_6 
REMARK    4  A    between atoms: C_14  and  S_9 
ROOT
ATOM      1  N   UNL d   1     -48.679  13.944  22.178  0.00  0.00    -0.200 NA
ATOM      2  N   UNL d   1     -48.401  12.581  22.420  0.00  0.00    -0.202 NA
ATOM      3  N   UNL d   1     -47.476  13.586  22.845  0.00  0.00    -0.206 NA
ATOM      4  C   UNL d   1     -47.990  14.169  22.531  0.00  0.00     0.187 A 
ATOM      5  C   UNL d   1     -47.694  12.800  22.783  0.00  0.00     0.166 A 
ATOM      6  C   UNL d   1     -48.884  13.154  22.123  0.00  0.00     0.197 A 
ENDROOT
BRANCH   5   7
ATOM      7  C   UNL d   1     -47.193  12.222  23.091  0.00  0.00     0.036 A 
ATOM      8  C   UNL d   1     -47.511  11.541  23.382  0.00  0.00     0.003 A 
ATOM      9  C   UNL d   1     -47.010  10.963  23.690  0.00  0.00     0.000 A 
ATOM     10  C   UNL d   1     -46.193  11.084  23.697  0.00  0.00     0.000 A 
ATOM     11  C   UNL d   1     -45.877  11.784  23.396  0.00  0.00     0.000 A 
ATOM     12  C   UNL d   1     -46.376  12.343  23.098  0.00  0.00     0.003 A 
ENDBRANCH   5   7
BRANCH   6  13
ATOM     13  S   UNL d   1     -49.612  12.921  21.750  0.00  0.00    -0.048 SA
BRANCH  13  14
ATOM     14  C   UNL d   1     -50.341  13.101  22.101  0.00  0.00     0.038 C 
ATOM     15  C   UNL d   1     -50.973  12.567  22.054  0.00  0.00     0.008 C 
ENDBRANCH  13  14
ENDBRANCH   6  13
BRANCH   4  16
ATOM     16  C   UNL d   1     -47.804  14.969  22.575  0.00  0.00     0.151 C 
ATOM     17 CL   UNL d   1     -47.031  15.197  22.502  0.00  0.00    -0.067 Cl
ATOM     18 CL   UNL d   1     -48.380  15.518  22.689  0.00  0.00    -0.067 Cl
ENDBRANCH   4  16
TORSDOF 4
ENDMDL
MODEL 8
REMARK VINA RESULT:      -4.9      8.784     10.157
REMARK  4 active torsions:
REMARK  status: ('A' for Active; 'I' for Inactive)
REMARK    1  A    between atoms: C_7  and  C_4 
REMARK    2  A    between atoms: C_8  and  C_5 
REMARK    3  A    between atoms: S_9  and  C_6 
REMARK    4  A    between atoms: C_14  and  S_9 
ROOT
ATOM      1  N   UNL d   1     -40.913  15.830  17.924  0.00  0.00    -0.200 NA
ATOM      2  N   UNL d   1     -39.863  15.019  18.408  0.00  0.00    -0.202 NA
ATOM      3  N   UNL d   1     -40.256  14.937  17.035  0.00  0.00    -0.206 NA
ATOM      4  C   UNL d   1     -40.838  15.522  17.183  0.00  0.00     0.187 A 
ATOM      5  C   UNL d   1     -39.778  14.696  17.654  0.00  0.00     0.166 A 
ATOM      6  C   UNL d   1     -40.428  15.580  18.533  0.00  0.00     0.197 A 
ENDROOT
BRANCH   5   7
ATOM      7  C   UNL d   1     -39.204  14.121  17.515  0.00  0.00     0.036 A 
ATOM      8  C   UNL d   1     -38.517  14.333  17.151  0.00  0.00     0.003 A 
ATOM      9  C   UNL d   1     -37.942  13.758  17.012  0.00  0.00     0.000 A 
ATOM     10  C   UNL d   1     -38.074  12.976  17.245  0.00  0.00     0.000 A 
ATOM     11  C   UNL d   1     -38.781  12.770  17.617  0.00  0.00     0.000 A 
ATOM     12  C   UNL d   1     -39.336  13.340  17.748  0.00  0.00     0.003 A 
ENDBRANCH   5   7
BRANCH   6  13
ATOM     13  S   UNL d   1     -40.510  15.909  19.314  0.00  0.00    -0.048 SA
BRANCH  13  14
ATOM     14  C   UNL d   1     -40.655  15.417  19.965  0.00  0.00     0.038 C 
ATOM     15  C   UNL d   1     -40.858  15.741  20.700  0.00  0.00     0.008 C 
ENDBRANCH  13  14
ENDBRANCH   6  13
BRANCH   4  16
ATOM     16  C   UNL d   1     -41.336  15.787  16.585  0.00  0.00     0.151 C 
ATOM     17 CL   UNL d   1     -42.116  15.922  16.754  0.00  0.00    -0.067 Cl
ATOM     18 CL   UNL d   1     -41.054  15.913  15.842  0.00  0.00    -0.067 Cl
ENDBRANCH   4  16
TORSDOF 4
ENDMDL
MODEL 9
REMARK VINA RESULT:      -4.8      8.257      9.656
REMARK  4 active torsions:
REMARK  status: ('A' for Active; 'I' for Inactive)
REMARK    1  A    between atoms: C_7  and  C_4 
REMARK    2  A    between atoms: C_8  and  C_5 
REMARK    3  A    between atoms: S_9  and  C_6 
REMARK    4  A    between atoms: C_14  and  S_9 
ROOT
ATOM      1  N   UNL d   1     -39.869  14.583  20.997  0.00  0.00    -0.200 NA
ATOM      2  N   UNL d   1     -39.063  14.280  19.878  0.00  0.00    -0.202 NA
ATOM      3  N   UNL d   1     -40.396  14.767  19.690  0.00  0.00    -0.206 NA
ATOM      4  C   UNL d   1     -40.482  14.805  20.523  0.00  0.00     0.187 A 
ATOM      5  C   UNL d   1     -39.684  14.504  19.383  0.00  0.00     0.166 A 
ATOM      6  C   UNL d   1     -39.163  14.323  20.676  0.00  0.00     0.197 A 
ENDROOT
BRANCH   5   7
ATOM      7  C   UNL d   1     -39.592  14.465  18.564  0.00  0.00     0.036 A 
ATOM      8  C   UNL d   1     -39.522  13.744  18.212  0.00  0.00     0.003 A 
ATOM      9  C   UNL d   1     -39.430  13.704  17.393  0.00  0.00     0.000 A 
ATOM     10  C   UNL d   1     -39.411  14.398  16.945  0.00  0.00     0.000 A 
ATOM     11  C   UNL d   1     -39.484  15.131  17.316  0.00  0.00     0.000 A 
ATOM     12  C   UNL d   1     -39.573  15.159  18.116  0.00  0.00     0.003 A 
ENDBRANCH   5   7
BRANCH   6  13
ATOM     13  S   UNL d   1     -38.519  14.090  21.181  0.00  0.00    -0.048 SA
BRANCH  13  14
ATOM     14  C   UNL d   1     -38.583  13.418  21.662  0.00  0.00     0.038 C 
ATOM     15  C   UNL d   1     -37.946  13.178  22.135  0.00  0.00     0.008 C 
ENDBRANCH  13  14
ENDBRANCH   6  13
BRANCH   4  16
ATOM     16  C   UNL d   1     -41.182  15.064  20.866  0.00  0.00     0.151 C 
ATOM     17 CL   UNL d   1     -41.265  15.848  21.048  0.00  0.00    -0.067 Cl
ATOM     18 CL   UNL d   1     -41.780  14.547  21.021  0.00  0.00    -0.067 Cl
ENDBRANCH   4  16
TORSDOF 4
ENDMDL
