MODEL 1
REMARK VINA RESULT:      -7.6      0.000      0.000
REMARK  8 active torsions:
REMARK  status: ('A' for Active; 'I' for Inactive)
REMARK    1  A    between atoms: C_6  and  C_1 
REMARK    2  A    between atoms: C_7  and  C_3 
REMARK       I    between atoms: N_10  and  C_6 
REMARK    3  A    between atoms: O_12  and  C_7 
REMARK    4  A    between atoms: C_20  and  N_10 
REMARK    5  A    between atoms: C_23  and  O_12 
REMARK    6  A    between atoms: O_21  and  C_14 
REMARK    7  A    between atoms: C_15  and  C_22 
REMARK    8  A    between atoms: C_22  and  C_20 
ROOT
ATOM      1  C   UNL d   1      51.613  33.670  52.971  0.00  0.00     0.075 A 
ATOM      2  C   UNL d   1      52.373  33.944  53.136  0.00  0.00     0.027 A 
ATOM      3  C   UNL d   1      52.800  33.334  53.485  0.00  0.00     0.121 A 
ATOM      4  N   UNL d   1      52.298  32.670  53.537  0.00  0.00    -0.349 N 
ATOM      5  C   UNL d   1      51.568  32.882  53.220  0.00  0.00     0.061 A 
ATOM      6  C   UNL d   1      52.657  34.702  52.978  0.00  0.00     0.002 C 
ATOM      7  C   UNL d   1      50.903  32.393  53.158  0.00  0.00     0.019 C 
ATOM      8  H   UNL d   1      52.500  31.934  53.852  0.00  0.00     0.166 HD
ENDROOT
BRANCH   1   9
ATOM      9  C   UNL d   1      51.008  34.102  52.622  0.00  0.00     0.281 C 
ATOM     10  O   UNL d   1      51.012  34.237  51.809  0.00  0.00    -0.265 OA
ATOM     11  N   UNL d   1      50.391  34.402  53.082  0.00  0.00    -0.206 NA
BRANCH  11  12
ATOM     12  C   UNL d   1      49.786  34.834  52.732  0.00  0.00     0.102 C 
BRANCH  12  13
ATOM     13  C   UNL d   1      49.249  35.246  53.198  0.00  0.00     0.021 C 
BRANCH  13  14
ATOM     14  C   UNL d   1      48.569  35.563  52.868  0.00  0.00     0.002 A 
ATOM     15  C   UNL d   1      48.324  35.342  52.107  0.00  0.00     0.002 A 
ATOM     16  C   UNL d   1      47.645  35.659  51.778  0.00  0.00     0.024 A 
ATOM     17  C   UNL d   1      47.191  36.208  52.205  0.00  0.00     0.094 A 
ATOM     18  C   UNL d   1      47.424  36.435  52.964  0.00  0.00     0.024 A 
ATOM     19  C   UNL d   1      48.115  36.111  53.295  0.00  0.00     0.002 A 
BRANCH  17  20
ATOM     20  O   UNL d   1      46.507  36.526  51.872  0.00  0.00    -0.328 OA
ATOM     21  C   UNL d   1      45.808  36.084  51.862  0.00  0.00     0.181 C 
ENDBRANCH  17  20
ENDBRANCH  13  14
ENDBRANCH  12  13
ENDBRANCH  11  12
ENDBRANCH   1   9
BRANCH   3  22
ATOM     22  C   UNL d   1      53.586  33.362  53.742  0.00  0.00     0.316 C 
ATOM     23  O   UNL d   1      54.204  33.298  53.200  0.00  0.00    -0.257 OA
BRANCH  22  24
ATOM     24  O   UNL d   1      53.743  33.455  54.544  0.00  0.00    -0.270 OA
BRANCH  24  25
ATOM     25  C   UNL d   1      54.489  33.261  54.840  0.00  0.00     0.126 C 
ATOM     26  C   UNL d   1      54.704  33.486  55.598  0.00  0.00     0.029 C 
ENDBRANCH  24  25
ENDBRANCH  22  24
ENDBRANCH   3  22
TORSDOF 8
ENDMDL
MODEL 2
REMARK VINA RESULT:      -7.4      2.390      6.133
REMARK  8 active torsions:
REMARK  status: ('A' for Active; 'I' for Inactive)
REMARK    1  A    between atoms: C_6  and  C_1 
REMARK    2  A    between atoms: C_7  and  C_3 
REMARK       I    between atoms: N_10  and  C_6 
REMARK    3  A    between atoms: O_12  and  C_7 
REMARK    4  A    between atoms: C_20  and  N_10 
REMARK    5  A    between atoms: C_23  and  O_12 
REMARK    6  A    between atoms: O_21  and  C_14 
REMARK    7  A    between atoms: C_15  and  C_22 
REMARK    8  A    between atoms: C_22  and  C_20 
ROOT
ATOM      1  C   UNL d   1      51.732  33.757  52.965  0.00  0.00     0.075 A 
ATOM      2  C   UNL d   1      50.907  33.733  52.967  0.00  0.00     0.027 A 
ATOM      3  C   UNL d   1      50.627  34.404  52.581  0.00  0.00     0.121 A 
ATOM      4  N   UNL d   1      51.288  34.851  52.336  0.00  0.00    -0.349 N 
ATOM      5  C   UNL d   1      51.965  34.447  52.575  0.00  0.00     0.061 A 
ATOM      6  C   UNL d   1      50.442  33.139  53.299  0.00  0.00     0.002 C 
ATOM      7  C   UNL d   1      52.746  34.691  52.447  0.00  0.00     0.019 C 
ATOM      8  H   UNL d   1      51.262  35.567  51.927  0.00  0.00     0.166 HD
ENDROOT
BRANCH   1   9
ATOM      9  C   UNL d   1      52.233  33.194  53.292  0.00  0.00     0.281 C 
ATOM     10  O   UNL d   1      52.551  33.310  54.043  0.00  0.00    -0.265 OA
ATOM     11  N   UNL d   1      52.420  32.508  52.872  0.00  0.00    -0.206 NA
BRANCH  11  12
ATOM     12  C   UNL d   1      52.921  31.945  53.200  0.00  0.00     0.102 C 
BRANCH  12  13
ATOM     13  C   UNL d   1      53.050  31.231  52.814  0.00  0.00     0.021 C 
BRANCH  13  14
ATOM     14  C   UNL d   1      53.135  30.537  53.241  0.00  0.00     0.002 A 
ATOM     15  C   UNL d   1      52.537  29.963  53.242  0.00  0.00     0.002 A 
ATOM     16  C   UNL d   1      52.623  29.270  53.669  0.00  0.00     0.024 A 
ATOM     17  C   UNL d   1      53.314  29.133  54.109  0.00  0.00     0.094 A 
ATOM     18  C   UNL d   1      53.917  29.698  54.117  0.00  0.00     0.024 A 
ATOM     19  C   UNL d   1      53.826  30.401  53.681  0.00  0.00     0.002 A 
BRANCH  17  20
ATOM     20  O   UNL d   1      53.399  28.435  54.539  0.00  0.00    -0.328 OA
ATOM     21  C   UNL d   1      53.374  28.453  55.366  0.00  0.00     0.181 C 
ENDBRANCH  17  20
ENDBRANCH  13  14
ENDBRANCH  12  13
ENDBRANCH  11  12
ENDBRANCH   1   9
BRANCH   3  22
ATOM     22  C   UNL d   1      49.835  34.608  52.454  0.00  0.00     0.316 C 
ATOM     23  O   UNL d   1      49.392  34.955  53.056  0.00  0.00    -0.257 OA
BRANCH  22  24
ATOM     24  O   UNL d   1      49.497  34.462  51.719  0.00  0.00    -0.270 OA
BRANCH  24  25
ATOM     25  C   UNL d   1      48.769  34.803  51.528  0.00  0.00     0.126 C 
ATOM     26  C   UNL d   1      48.438  34.683  50.787  0.00  0.00     0.029 C 
ENDBRANCH  24  25
ENDBRANCH  22  24
ENDBRANCH   3  22
TORSDOF 8
ENDMDL
MODEL 3
REMARK VINA RESULT:      -7.2      1.378      1.760
REMARK  8 active torsions:
REMARK  status: ('A' for Active; 'I' for Inactive)
REMARK    1  A    between atoms: C_6  and  C_1 
REMARK    2  A    between atoms: C_7  and  C_3 
REMARK       I    between atoms: N_10  and  C_6 
REMARK    3  A    between atoms: O_12  and  C_7 
REMARK    4  A    between atoms: C_20  and  N_10 
REMARK    5  A    between atoms: C_23  and  O_12 
REMARK    6  A    between atoms: O_21  and  C_14 
REMARK    7  A    between atoms: C_15  and  C_22 
REMARK    8  A    between atoms: C_22  and  C_20 
ROOT
ATOM      1  C   UNL d   1      52.518  33.615  53.444  0.00  0.00     0.075 A 
ATOM      2  C   UNL d   1      52.751  32.878  53.156  0.00  0.00     0.027 A 
ATOM      3  C   UNL d   1      53.324  32.571  53.660  0.00  0.00     0.121 A 
ATOM      4  N   UNL d   1      53.450  33.126  54.271  0.00  0.00    -0.349 N 
ATOM      5  C   UNL d   1      52.951  33.766  54.132  0.00  0.00     0.061 A 
ATOM      6  C   UNL d   1      52.458  32.511  52.479  0.00  0.00     0.002 C 
ATOM      7  C   UNL d   1      52.892  34.447  54.601  0.00  0.00     0.019 C 
ATOM      8  H   UNL d   1      53.979  33.043  54.898  0.00  0.00     0.166 HD
ENDROOT
BRANCH   1   9
ATOM      9  C   UNL d   1      51.956  34.111  53.107  0.00  0.00     0.281 C 
ATOM     10  O   UNL d   1      52.194  34.768  52.671  0.00  0.00    -0.265 OA
ATOM     11  N   UNL d   1      51.151  33.954  53.203  0.00  0.00    -0.206 NA
BRANCH  11  12
ATOM     12  C   UNL d   1      50.589  34.450  52.866  0.00  0.00     0.102 C 
BRANCH  12  13
ATOM     13  C   UNL d   1      49.792  34.256  52.902  0.00  0.00     0.021 C 
BRANCH  13  14
ATOM     14  C   UNL d   1      49.225  34.778  52.623  0.00  0.00     0.002 A 
ATOM     15  C   UNL d   1      48.961  34.738  51.838  0.00  0.00     0.002 A 
ATOM     16  C   UNL d   1      48.394  35.260  51.560  0.00  0.00     0.024 A 
ATOM     17  C   UNL d   1      48.075  35.838  52.064  0.00  0.00     0.094 A 
ATOM     18  C   UNL d   1      48.330  35.887  52.849  0.00  0.00     0.024 A 
ATOM     19  C   UNL d   1      48.906  35.356  53.127  0.00  0.00     0.002 A 
BRANCH  17  20
ATOM     20  O   UNL d   1      47.505  36.362  51.783  0.00  0.00    -0.328 OA
ATOM     21  C   UNL d   1      46.729  36.319  52.066  0.00  0.00     0.181 C 
ENDBRANCH  17  20
ENDBRANCH  13  14
ENDBRANCH  12  13
ENDBRANCH  11  12
ENDBRANCH   1   9
BRANCH   3  22
ATOM     22  C   UNL d   1      53.713  31.844  53.585  0.00  0.00     0.316 C 
ATOM     23  O   UNL d   1      54.471  31.808  53.265  0.00  0.00    -0.257 OA
BRANCH  22  24
ATOM     24  O   UNL d   1      53.332  31.159  53.835  0.00  0.00    -0.270 OA
BRANCH  24  25
ATOM     25  C   UNL d   1      53.717  30.430  53.768  0.00  0.00     0.126 C 
ATOM     26  C   UNL d   1      53.341  29.742  54.007  0.00  0.00     0.029 C 
ENDBRANCH  24  25
ENDBRANCH  22  24
ENDBRANCH   3  22
TORSDOF 8
ENDMDL
MODEL 4
REMARK VINA RESULT:      -6.8      1.086      5.930
REMARK  8 active torsions:
REMARK  status: ('A' for Active; 'I' for Inactive)
REMARK    1  A    between atoms: C_6  and  C_1 
REMARK    2  A    between atoms: C_7  and  C_3 
REMARK       I    between atoms: N_10  and  C_6 
REMARK    3  A    between atoms: O_12  and  C_7 
REMARK    4  A    between atoms: C_20  and  N_10 
REMARK    5  A    between atoms: C_23  and  O_12 
REMARK    6  A    between atoms: O_21  and  C_14 
REMARK    7  A    between atoms: C_15  and  C_22 
REMARK    8  A    between atoms: C_22  and  C_20 
ROOT
ATOM      1  C   UNL d   1      49.216  34.697  52.075  0.00  0.00     0.075 A 
ATOM      2  C   UNL d   1      48.648  35.187  52.421  0.00  0.00     0.027 A 
ATOM      3  C   UNL d   1      48.119  35.422  51.837  0.00  0.00     0.121 A 
ATOM      4  N   UNL d   1      48.361  35.074  51.118  0.00  0.00    -0.349 N 
ATOM      5  C   UNL d   1      49.036  34.629  51.271  0.00  0.00     0.061 A 
ATOM      6  C   UNL d   1      48.618  35.403  53.216  0.00  0.00     0.002 C 
ATOM      7  C   UNL d   1      49.464  34.187  50.716  0.00  0.00     0.019 C 
ATOM      8  H   UNL d   1      47.987  35.163  50.388  0.00  0.00     0.166 HD
ENDROOT
BRANCH   1   9
ATOM      9  C   UNL d   1      49.847  34.340  52.462  0.00  0.00     0.281 C 
ATOM     10  O   UNL d   1      49.745  33.614  52.837  0.00  0.00    -0.265 OA
ATOM     11  N   UNL d   1      50.587  34.706  52.478  0.00  0.00    -0.206 NA
BRANCH  11  12
ATOM     12  C   UNL d   1      51.218  34.350  52.864  0.00  0.00     0.102 C 
BRANCH  12  13
ATOM     13  C   UNL d   1      51.961  34.699  52.853  0.00  0.00     0.021 C 
BRANCH  13  14
ATOM     14  C   UNL d   1      52.532  34.479  53.398  0.00  0.00     0.002 A 
ATOM     15  C   UNL d   1      52.748  34.988  54.016  0.00  0.00     0.002 A 
ATOM     16  C   UNL d   1      53.318  34.767  54.560  0.00  0.00     0.024 A 
ATOM     17  C   UNL d   1      53.690  34.027  54.498  0.00  0.00     0.094 A 
ATOM     18  C   UNL d   1      53.484  33.511  53.886  0.00  0.00     0.024 A 
ATOM     19  C   UNL d   1      52.904  33.739  53.336  0.00  0.00     0.002 A 
BRANCH  17  20
ATOM     20  O   UNL d   1      54.265  33.806  55.047  0.00  0.00    -0.328 OA
ATOM     21  C   UNL d   1      54.362  33.009  55.245  0.00  0.00     0.181 C 
ENDBRANCH  17  20
ENDBRANCH  13  14
ENDBRANCH  12  13
ENDBRANCH  11  12
ENDBRANCH   1   9
BRANCH   3  22
ATOM     22  C   UNL d   1      47.462  35.916  51.934  0.00  0.00     0.316 C 
ATOM     23  O   UNL d   1      47.561  36.709  52.135  0.00  0.00    -0.257 OA
BRANCH  22  24
ATOM     24  O   UNL d   1      46.708  35.605  51.826  0.00  0.00    -0.270 OA
BRANCH  24  25
ATOM     25  C   UNL d   1      46.052  36.108  51.837  0.00  0.00     0.126 C 
ATOM     26  C   UNL d   1      45.304  35.815  51.672  0.00  0.00     0.029 C 
ENDBRANCH  24  25
ENDBRANCH  22  24
ENDBRANCH   3  22
TORSDOF 8
ENDMDL
MODEL 5
REMARK VINA RESULT:      -6.5      1.358      6.223
REMARK  8 active torsions:
REMARK  status: ('A' for Active; 'I' for Inactive)
REMARK    1  A    between atoms: C_6  and  C_1 
REMARK    2  A    between atoms: C_7  and  C_3 
REMARK       I    between atoms: N_10  and  C_6 
REMARK    3  A    between atoms: O_12  and  C_7 
REMARK    4  A    between atoms: C_20  and  N_10 
REMARK    5  A    between atoms: C_23  and  O_12 
REMARK    6  A    between atoms: O_21  and  C_14 
REMARK    7  A    between atoms: C_15  and  C_22 
REMARK    8  A    between atoms: C_22  and  C_20 
ROOT
ATOM      1  C   UNL d   1      47.863  35.805  52.991  0.00  0.00     0.075 A 
ATOM      2  C   UNL d   1      47.474  35.795  52.263  0.00  0.00     0.027 A 
ATOM      3  C   UNL d   1      46.671  35.915  52.397  0.00  0.00     0.121 A 
ATOM      4  N   UNL d   1      46.559  36.001  53.219  0.00  0.00    -0.349 N 
ATOM      5  C   UNL d   1      47.297  35.933  53.579  0.00  0.00     0.061 A 
ATOM      6  C   UNL d   1      47.829  35.683  51.528  0.00  0.00     0.002 C 
ATOM      7  C   UNL d   1      47.447  35.983  54.392  0.00  0.00     0.019 C 
ATOM      8  H   UNL d   1      45.838  36.131  53.598  0.00  0.00     0.166 HD
ENDROOT
BRANCH   1   9
ATOM      9  C   UNL d   1      48.670  35.706  53.109  0.00  0.00     0.281 C 
ATOM     10  O   UNL d   1      49.115  36.312  53.445  0.00  0.00    -0.265 OA
ATOM     11  N   UNL d   1      49.039  35.001  52.892  0.00  0.00    -0.206 NA
BRANCH  11  12
ATOM     12  C   UNL d   1      49.847  34.902  53.010  0.00  0.00     0.102 C 
BRANCH  12  13
ATOM     13  C   UNL d   1      50.240  34.267  52.669  0.00  0.00     0.021 C 
BRANCH  13  14
ATOM     14  C   UNL d   1      50.996  34.066  52.914  0.00  0.00     0.002 A 
ATOM     15  C   UNL d   1      51.651  34.523  52.690  0.00  0.00     0.002 A 
ATOM     16  C   UNL d   1      52.405  34.321  52.935  0.00  0.00     0.024 A 
ATOM     17  C   UNL d   1      52.524  33.653  53.414  0.00  0.00     0.094 A 
ATOM     18  C   UNL d   1      51.880  33.189  53.644  0.00  0.00     0.024 A 
ATOM     19  C   UNL d   1      51.115  33.397  53.392  0.00  0.00     0.002 A 
BRANCH  17  20
ATOM     20  O   UNL d   1      53.285  33.451  53.660  0.00  0.00    -0.328 OA
ATOM     21  C   UNL d   1      53.650  32.772  53.360  0.00  0.00     0.181 C 
ENDBRANCH  17  20
ENDBRANCH  13  14
ENDBRANCH  12  13
ENDBRANCH  11  12
ENDBRANCH   1   9
BRANCH   3  22
ATOM     22  C   UNL d   1      46.072  35.946  51.825  0.00  0.00     0.316 C 
ATOM     23  O   UNL d   1      46.003  36.600  51.329  0.00  0.00    -0.257 OA
BRANCH  22  24
ATOM     24  O   UNL d   1      45.548  35.316  51.760  0.00  0.00    -0.270 OA
BRANCH  24  25
ATOM     25  C   UNL d   1      44.852  35.406  51.324  0.00  0.00     0.126 C 
ATOM     26  C   UNL d   1      44.315  34.789  51.270  0.00  0.00     0.029 C 
ENDBRANCH  24  25
ENDBRANCH  22  24
ENDBRANCH   3  22
TORSDOF 8
ENDMDL
MODEL 6
REMARK VINA RESULT:      -5.7      1.123      5.971
REMARK  8 active torsions:
REMARK  status: ('A' for Active; 'I' for Inactive)
REMARK    1  A    between atoms: C_6  and  C_1 
REMARK    2  A    between atoms: C_7  and  C_3 
REMARK       I    between atoms: N_10  and  C_6 
REMARK    3  A    between atoms: O_12  and  C_7 
REMARK    4  A    between atoms: C_20  and  N_10 
REMARK    5  A    between atoms: C_23  and  O_12 
REMARK    6  A    between atoms: O_21  and  C_14 
REMARK    7  A    between atoms: C_15  and  C_22 
REMARK    8  A    between atoms: C_22  and  C_20 
ROOT
ATOM      1  C   UNL d   1      49.934  34.582  52.226  0.00  0.00     0.075 A 
ATOM      2  C   UNL d   1      49.412  34.531  51.590  0.00  0.00     0.027 A 
ATOM      3  C   UNL d   1      48.691  34.851  51.820  0.00  0.00     0.121 A 
ATOM      4  N   UNL d   1      48.765  35.105  52.611  0.00  0.00    -0.349 N 
ATOM      5  C   UNL d   1      49.533  34.937  52.856  0.00  0.00     0.061 A 
ATOM      6  C   UNL d   1      49.585  34.213  50.849  0.00  0.00     0.002 C 
ATOM      7  C   UNL d   1      49.850  35.095  53.604  0.00  0.00     0.019 C 
ATOM      8  H   UNL d   1      48.173  35.461  53.063  0.00  0.00     0.166 HD
ENDROOT
BRANCH   1   9
ATOM      9  C   UNL d   1      50.715  34.326  52.233  0.00  0.00     0.281 C 
ATOM     10  O   UNL d   1      51.250  34.615  51.678  0.00  0.00    -0.265 OA
ATOM     11  N   UNL d   1      50.968  33.777  52.796  0.00  0.00    -0.206 NA
BRANCH  11  12
ATOM     12  C   UNL d   1      51.749  33.520  52.803  0.00  0.00     0.102 C 
BRANCH  12  13
ATOM     13  C   UNL d   1      52.003  32.982  53.370  0.00  0.00     0.021 C 
BRANCH  13  14
ATOM     14  C   UNL d   1      52.768  33.016  53.661  0.00  0.00     0.002 A 
ATOM     15  C   UNL d   1      52.949  33.477  54.327  0.00  0.00     0.002 A 
ATOM     16  C   UNL d   1      53.713  33.510  54.618  0.00  0.00     0.024 A 
ATOM     17  C   UNL d   1      54.320  33.079  54.247  0.00  0.00     0.094 A 
ATOM     18  C   UNL d   1      54.152  32.616  53.583  0.00  0.00     0.024 A 
ATOM     19  C   UNL d   1      53.374  32.586  53.291  0.00  0.00     0.002 A 
BRANCH  17  20
ATOM     20  O   UNL d   1      55.090  33.114  54.541  0.00  0.00    -0.328 OA
ATOM     21  C   UNL d   1      55.304  33.714  55.068  0.00  0.00     0.181 C 
ENDBRANCH  17  20
ENDBRANCH  13  14
ENDBRANCH  12  13
ENDBRANCH  11  12
ENDBRANCH   1   9
BRANCH   3  22
ATOM     22  C   UNL d   1      48.007  34.915  51.358  0.00  0.00     0.316 C 
ATOM     23  O   UNL d   1      47.920  34.463  50.675  0.00  0.00    -0.257 OA
BRANCH  22  24
ATOM     24  O   UNL d   1      47.415  35.437  51.589  0.00  0.00    -0.270 OA
BRANCH  24  25
ATOM     25  C   UNL d   1      46.720  35.492  51.144  0.00  0.00     0.126 C 
ATOM     26  C   UNL d   1      46.093  35.948  51.411  0.00  0.00     0.029 C 
ENDBRANCH  24  25
ENDBRANCH  22  24
ENDBRANCH   3  22
TORSDOF 8
ENDMDL
MODEL 7
REMARK VINA RESULT:      -5.2     10.176     11.626
REMARK  8 active torsions:
REMARK  status: ('A' for Active; 'I' for Inactive)
REMARK    1  A    between atoms: C_6  and  C_1 
REMARK    2  A    between atoms: C_7  and  C_3 
REMARK       I    between atoms: N_10  and  C_6 
REMARK    3  A    between atoms: O_12  and  C_7 
REMARK    4  A    between atoms: C_20  and  N_10 
REMARK    5  A    between atoms: C_23  and  O_12 
REMARK    6  A    between atoms: O_21  and  C_14 
REMARK    7  A    between atoms: C_15  and  C_22 
REMARK    8  A    between atoms: C_22  and  C_20 
ROOT
ATOM      1  C   UNL d   1      44.982  27.814  58.659  0.00  0.00     0.075 A 
ATOM      2  C   UNL d   1      44.952  28.623  58.503  0.00  0.00     0.027 A 
ATOM      3  C   UNL d   1      44.685  29.008  59.179  0.00  0.00     0.121 A 
ATOM      4  N   UNL d   1      44.548  28.430  59.764  0.00  0.00    -0.349 N 
ATOM      5  C   UNL d   1      44.733  27.696  59.438  0.00  0.00     0.061 A 
ATOM      6  C   UNL d   1      45.154  28.985  57.790  0.00  0.00     0.002 C 
ATOM      7  C   UNL d   1      44.678  26.965  59.824  0.00  0.00     0.019 C 
ATOM      8  H   UNL d   1      44.276  28.571  60.530  0.00  0.00     0.166 HD
ENDROOT
BRANCH   1   9
ATOM      9  C   UNL d   1      45.219  27.228  58.134  0.00  0.00     0.281 C 
ATOM     10  O   UNL d   1      46.019  27.051  58.045  0.00  0.00    -0.265 OA
ATOM     11  N   UNL d   1      44.659  26.813  57.692  0.00  0.00    -0.206 NA
BRANCH  11  12
ATOM     12  C   UNL d   1      44.896  26.228  57.166  0.00  0.00     0.102 C 
BRANCH  12  13
ATOM     13  C   UNL d   1      44.337  25.817  56.725  0.00  0.00     0.021 C 
BRANCH  13  14
ATOM     14  C   UNL d   1      44.520  25.088  56.399  0.00  0.00     0.002 A 
ATOM     15  C   UNL d   1      44.410  24.389  56.832  0.00  0.00     0.002 A 
ATOM     16  C   UNL d   1      44.592  23.661  56.506  0.00  0.00     0.024 A 
ATOM     17  C   UNL d   1      44.892  23.614  55.732  0.00  0.00     0.094 A 
ATOM     18  C   UNL d   1      45.007  24.303  55.291  0.00  0.00     0.024 A 
ATOM     19  C   UNL d   1      44.820  25.040  55.626  0.00  0.00     0.002 A 
BRANCH  17  20
ATOM     20  O   UNL d   1      45.076  22.879  55.405  0.00  0.00    -0.328 OA
ATOM     21  C   UNL d   1      45.680  22.420  55.734  0.00  0.00     0.181 C 
ENDBRANCH  17  20
ENDBRANCH  13  14
ENDBRANCH  12  13
ENDBRANCH  11  12
ENDBRANCH   1   9
BRANCH   3  22
ATOM     22  C   UNL d   1      44.570  29.823  59.273  0.00  0.00     0.316 C 
ATOM     23  O   UNL d   1      44.416  30.300  58.620  0.00  0.00    -0.257 OA
BRANCH  22  24
ATOM     24  O   UNL d   1      44.611  30.148  60.027  0.00  0.00    -0.270 OA
BRANCH  24  25
ATOM     25  C   UNL d   1      44.439  30.949  60.137  0.00  0.00     0.126 C 
ATOM     26  C   UNL d   1      44.429  31.270  60.892  0.00  0.00     0.029 C 
ENDBRANCH  24  25
ENDBRANCH  22  24
ENDBRANCH   3  22
TORSDOF 8
ENDMDL
