MODEL 1
REMARK VINA RESULT:      51.4      0.000      0.000
REMARK  1 active torsions:
REMARK  status: ('A' for Active; 'I' for Inactive)
REMARK    1  A    between atoms: C_2  and  C_1 
REMARK       I    between atoms: N_3  and  C_2 
ROOT
ATOM      1  C   UNL d   1     -58.841 -98.775 -45.005  0.00  0.00     0.248 C 
ATOM      2  N   UNL d   1     -58.101 -98.781 -45.381  0.00  0.00    -0.278 N 
ATOM      3  C   UNL d   1     -58.094 -98.786 -46.126  0.00  0.00     0.067 A 
ATOM      4  C   UNL d   1     -57.520 -98.780 -44.971  0.00  0.00     0.067 A 
ATOM      5  C   UNL d   1     -56.810 -98.786 -45.372  0.00  0.00     0.018 A 
ATOM      6  C   UNL d   1     -57.447 -98.791 -46.492  0.00  0.00     0.019 A 
ATOM      7  O   UNL d   1     -59.445 -98.777 -45.583  0.00  0.00    -0.271 OA
ATOM      8  C   UNL d   1     -58.741 -98.786 -46.497  0.00  0.00     0.019 C 
ATOM      9  C   UNL d   1     -57.531 -98.774 -44.146  0.00  0.00     0.018 A 
ATOM     10  C   UNL d   1     -56.101 -98.785 -44.959  0.00  0.00     0.002 A 
ATOM     11  C   UNL d   1     -56.820 -98.774 -43.727  0.00  0.00     0.002 A 
ATOM     12  C   UNL d   1     -56.106 -98.779 -44.136  0.00  0.00     0.000 A 
ENDROOT
BRANCH   1  13
ATOM     13  C   UNL d   1     -58.723 -98.770 -44.207  0.00  0.00     0.112 A 
ATOM     14  C   UNL d   1     -58.105 -98.761 -42.925  0.00  0.00     0.025 A 
ATOM     15  C   UNL d   1     -58.841 -98.766 -43.328  0.00  0.00     0.074 A 
ATOM     16  C   UNL d   1     -57.386 -98.761 -43.352  0.00  0.00     0.002 C 
ATOM     17  C   UNL d   1     -58.311 -98.757 -42.119  0.00  0.00     0.002 C 
ATOM     18  C   UNL d   1     -59.042 -98.761 -42.516  0.00  0.00     0.012 C 
ATOM     19  C   UNL d   1     -58.433 -98.768 -44.057  0.00  0.00    -0.023 A 
ATOM     20  C   UNL d   1     -59.551 -98.765 -42.910  0.00  0.00     0.172 A 
ATOM     21  C   UNL d   1     -58.441 -98.773 -44.897  0.00  0.00    -0.018 A 
ATOM     22  C   UNL d   1     -59.559 -98.770 -43.748  0.00  0.00     0.024 A 
ATOM     23  O   UNL d   1     -59.957 -98.763 -42.176  0.00  0.00    -0.291 OA
ENDBRANCH   1  13
TORSDOF 1
ENDMDL
