MODEL 1
REMARK VINA RESULT:      -9.6      0.000      0.000
REMARK  3 active torsions:
REMARK  status: ('A' for Active; 'I' for Inactive)
REMARK    1  A    between atoms: C_8  and  N_1 
REMARK    2  A    between atoms: O_16  and  C_11 
REMARK    3  A    between atoms: C_19  and  O_16 
ROOT
ATOM      1  N   UNL d   1     -48.827  13.828  23.062  0.00  0.00    -0.240 N 
ATOM      2  C   UNL d   1     -48.917  13.049  23.286  0.00  0.00     0.267 A 
ATOM      3  C   UNL d   1     -48.133  14.219  22.844  0.00  0.00     0.267 A 
ATOM      4  C   UNL d   1     -47.361  13.925  22.798  0.00  0.00     0.057 A 
ATOM      5  C   UNL d   1     -48.345  12.461  23.351  0.00  0.00     0.057 A 
ATOM      6  C   UNL d   1     -47.102  13.165  22.961  0.00  0.00     0.005 A 
ATOM      7  C   UNL d   1     -47.535  12.508  23.208  0.00  0.00     0.005 A 
ATOM      8  O   UNL d   1     -49.693  12.817  23.473  0.00  0.00    -0.267 OA
ATOM      9  O   UNL d   1     -48.226  15.015  22.645  0.00  0.00    -0.267 OA
ATOM     10  C   UNL d   1     -46.833  14.501  22.558  0.00  0.00     0.005 A 
ATOM     11  C   UNL d   1     -48.675  11.757  23.594  0.00  0.00     0.005 A 
ATOM     12  C   UNL d   1     -47.059  11.849  23.308  0.00  0.00     0.000 A 
ATOM     13  C   UNL d   1     -46.297  12.977  22.882  0.00  0.00     0.000 A 
ATOM     14  C   UNL d   1     -45.762  13.558  22.639  0.00  0.00     0.000 A 
ATOM     15  C   UNL d   1     -47.387  11.136  23.553  0.00  0.00     0.000 A 
ATOM     16  C   UNL d   1     -48.202  11.089  23.698  0.00  0.00     0.000 A 
ATOM     17  C   UNL d   1     -46.028  14.313  22.479  0.00  0.00     0.000 A 
ENDROOT
BRANCH   1  18
ATOM     18  C   UNL d   1     -49.520  14.282  23.051  0.00  0.00     0.092 A 
ATOM     19  C   UNL d   1     -50.030  14.243  22.403  0.00  0.00     0.116 A 
ATOM     20  C   UNL d   1     -50.723  14.697  22.392  0.00  0.00     0.026 A 
ATOM     21  C   UNL d   1     -50.906  15.196  23.037  0.00  0.00     0.002 A 
ATOM     22  C   UNL d   1     -50.387  15.232  23.691  0.00  0.00     0.002 A 
ATOM     23  C   UNL d   1     -49.697  14.777  23.697  0.00  0.00     0.020 A 
BRANCH  19  24
ATOM     24  O   UNL d   1     -49.846  13.749  21.765  0.00  0.00    -0.304 OA
BRANCH  24  25
ATOM     25  C   UNL d   1     -50.354  13.716  21.124  0.00  0.00     0.123 C 
ATOM     26  C   UNL d   1     -50.425  13.012  20.703  0.00  0.00     0.029 C 
ENDBRANCH  24  25
ENDBRANCH  19  24
ENDBRANCH   1  18
TORSDOF 3
ENDMDL
MODEL 2
REMARK VINA RESULT:      -9.3      0.181      2.044
REMARK  3 active torsions:
REMARK  status: ('A' for Active; 'I' for Inactive)
REMARK    1  A    between atoms: C_8  and  N_1 
REMARK    2  A    between atoms: O_16  and  C_11 
REMARK    3  A    between atoms: C_19  and  O_16 
ROOT
ATOM      1  N   UNL d   1     -48.984  13.920  23.068  0.00  0.00    -0.240 N 
ATOM      2  C   UNL d   1     -48.299  14.310  22.857  0.00  0.00     0.267 A 
ATOM      3  C   UNL d   1     -49.071  13.130  23.292  0.00  0.00     0.267 A 
ATOM      4  C   UNL d   1     -48.496  12.540  23.359  0.00  0.00     0.057 A 
ATOM      5  C   UNL d   1     -47.531  14.019  22.815  0.00  0.00     0.057 A 
ATOM      6  C   UNL d   1     -47.692  12.603  23.216  0.00  0.00     0.005 A 
ATOM      7  C   UNL d   1     -47.255  13.259  22.974  0.00  0.00     0.005 A 
ATOM      8  O   UNL d   1     -48.391  15.112  22.658  0.00  0.00    -0.267 OA
ATOM      9  O   UNL d   1     -49.844  12.901  23.473  0.00  0.00    -0.267 OA
ATOM     10  C   UNL d   1     -48.820  11.828  23.598  0.00  0.00     0.005 A 
ATOM     11  C   UNL d   1     -47.010  14.600  22.579  0.00  0.00     0.005 A 
ATOM     12  C   UNL d   1     -46.459  13.084  22.896  0.00  0.00     0.000 A 
ATOM     13  C   UNL d   1     -47.201  11.941  23.316  0.00  0.00     0.000 A 
ATOM     14  C   UNL d   1     -47.528  11.221  23.558  0.00  0.00     0.000 A 
ATOM     15  C   UNL d   1     -45.929  13.666  22.658  0.00  0.00     0.000 A 
ATOM     16  C   UNL d   1     -46.207  14.431  22.498  0.00  0.00     0.000 A 
ATOM     17  C   UNL d   1     -48.330  11.166  23.698  0.00  0.00     0.000 A 
ENDROOT
BRANCH   1  18
ATOM     18  C   UNL d   1     -49.676  14.375  23.055  0.00  0.00     0.092 A 
ATOM     19  C   UNL d   1     -50.187  14.331  22.407  0.00  0.00     0.116 A 
ATOM     20  C   UNL d   1     -50.879  14.786  22.394  0.00  0.00     0.026 A 
ATOM     21  C   UNL d   1     -51.063  15.288  23.036  0.00  0.00     0.002 A 
ATOM     22  C   UNL d   1     -50.543  15.328  23.689  0.00  0.00     0.002 A 
ATOM     23  C   UNL d   1     -49.853  14.873  23.698  0.00  0.00     0.020 A 
BRANCH  19  24
ATOM     24  O   UNL d   1     -50.003  13.834  21.773  0.00  0.00    -0.304 OA
BRANCH  24  25
ATOM     25  C   UNL d   1     -50.530  13.766  21.150  0.00  0.00     0.123 C 
ATOM     26  C   UNL d   1     -50.490  13.108  20.658  0.00  0.00     0.029 C 
ENDBRANCH  24  25
ENDBRANCH  19  24
ENDBRANCH   1  18
TORSDOF 3
ENDMDL
MODEL 3
REMARK VINA RESULT:      -8.6      0.829      3.808
REMARK  3 active torsions:
REMARK  status: ('A' for Active; 'I' for Inactive)
REMARK    1  A    between atoms: C_8  and  N_1 
REMARK    2  A    between atoms: O_16  and  C_11 
REMARK    3  A    between atoms: C_19  and  O_16 
ROOT
ATOM      1  N   UNL d   1     -48.268  13.729  22.399  0.00  0.00    -0.240 N 
ATOM      2  C   UNL d   1     -48.508  14.328  22.897  0.00  0.00     0.267 A 
ATOM      3  C   UNL d   1     -48.717  13.324  21.836  0.00  0.00     0.267 A 
ATOM      4  C   UNL d   1     -49.513  13.420  21.635  0.00  0.00     0.057 A 
ATOM      5  C   UNL d   1     -49.250  14.677  22.965  0.00  0.00     0.057 A 
ATOM      6  C   UNL d   1     -50.052  13.949  21.954  0.00  0.00     0.005 A 
ATOM      7  C   UNL d   1     -49.941  14.511  22.547  0.00  0.00     0.005 A 
ATOM      8  O   UNL d   1     -47.924  14.626  23.406  0.00  0.00    -0.267 OA
ATOM      9  O   UNL d   1     -48.309  12.741  21.416  0.00  0.00    -0.267 OA
ATOM     10  C   UNL d   1     -49.740  12.903  21.044  0.00  0.00     0.005 A 
ATOM     11  C   UNL d   1     -49.249  15.258  23.535  0.00  0.00     0.005 A 
ATOM     12  C   UNL d   1     -50.628  14.929  22.703  0.00  0.00     0.000 A 
ATOM     13  C   UNL d   1     -50.834  13.960  21.677  0.00  0.00     0.000 A 
ATOM     14  C   UNL d   1     -51.064  13.438  21.079  0.00  0.00     0.000 A 
ATOM     15  C   UNL d   1     -50.633  15.517  23.278  0.00  0.00     0.000 A 
ATOM     16  C   UNL d   1     -49.937  15.684  23.698  0.00  0.00     0.000 A 
ATOM     17  C   UNL d   1     -50.522  12.914  20.766  0.00  0.00     0.000 A 
ENDROOT
BRANCH   1  18
ATOM     18  C   UNL d   1     -47.475  13.499  22.467  0.00  0.00     0.092 A 
ATOM     19  C   UNL d   1     -47.278  12.817  22.889  0.00  0.00     0.116 A 
ATOM     20  C   UNL d   1     -46.484  12.588  22.958  0.00  0.00     0.026 A 
ATOM     21  C   UNL d   1     -45.884  13.045  22.600  0.00  0.00     0.002 A 
ATOM     22  C   UNL d   1     -46.089  13.734  22.174  0.00  0.00     0.002 A 
ATOM     23  C   UNL d   1     -46.881  13.959  22.108  0.00  0.00     0.020 A 
BRANCH  19  24
ATOM     24  O   UNL d   1     -47.874  12.366  23.242  0.00  0.00    -0.304 OA
BRANCH  24  25
ATOM     25  C   UNL d   1     -47.672  11.699  23.672  0.00  0.00     0.123 C 
ATOM     26  C   UNL d   1     -48.193  11.063  23.698  0.00  0.00     0.029 C 
ENDBRANCH  24  25
ENDBRANCH  19  24
ENDBRANCH   1  18
TORSDOF 3
ENDMDL
MODEL 4
REMARK VINA RESULT:      -8.2      0.899      3.584
REMARK  3 active torsions:
REMARK  status: ('A' for Active; 'I' for Inactive)
REMARK    1  A    between atoms: C_8  and  N_1 
REMARK    2  A    between atoms: O_16  and  C_11 
REMARK    3  A    between atoms: C_19  and  O_16 
ROOT
ATOM      1  N   UNL d   1     -48.145  13.623  22.339  0.00  0.00    -0.240 N 
ATOM      2  C   UNL d   1     -48.598  13.203  21.806  0.00  0.00     0.267 A 
ATOM      3  C   UNL d   1     -48.388  14.225  22.849  0.00  0.00     0.267 A 
ATOM      4  C   UNL d   1     -49.140  14.553  22.950  0.00  0.00     0.057 A 
ATOM      5  C   UNL d   1     -49.401  13.272  21.643  0.00  0.00     0.057 A 
ATOM      6  C   UNL d   1     -49.832  14.353  22.560  0.00  0.00     0.005 A 
ATOM      7  C   UNL d   1     -49.955  13.783  21.976  0.00  0.00     0.005 A 
ATOM      8  O   UNL d   1     -48.191  12.626  21.367  0.00  0.00    -0.267 OA
ATOM      9  O   UNL d   1     -47.791  14.543  23.325  0.00  0.00    -0.267 OA
ATOM     10  C   UNL d   1     -49.139  15.142  23.517  0.00  0.00     0.005 A 
ATOM     11  C   UNL d   1     -49.630  12.743  21.068  0.00  0.00     0.005 A 
ATOM     12  C   UNL d   1     -50.737  13.761  21.732  0.00  0.00     0.000 A 
ATOM     13  C   UNL d   1     -50.538  14.750  22.740  0.00  0.00     0.000 A 
ATOM     14  C   UNL d   1     -50.539  15.346  23.313  0.00  0.00     0.000 A 
ATOM     15  C   UNL d   1     -50.973  13.228  21.152  0.00  0.00     0.000 A 
ATOM     16  C   UNL d   1     -50.415  12.714  20.817  0.00  0.00     0.000 A 
ATOM     17  C   UNL d   1     -49.845  15.540  23.697  0.00  0.00     0.000 A 
ENDROOT
BRANCH   1  18
ATOM     18  C   UNL d   1     -47.343  13.418  22.371  0.00  0.00     0.092 A 
ATOM     19  C   UNL d   1     -47.099  12.773  22.826  0.00  0.00     0.116 A 
ATOM     20  C   UNL d   1     -46.297  12.569  22.858  0.00  0.00     0.026 A 
ATOM     21  C   UNL d   1     -45.734  13.014  22.431  0.00  0.00     0.002 A 
ATOM     22  C   UNL d   1     -45.986  13.665  21.972  0.00  0.00     0.002 A 
ATOM     23  C   UNL d   1     -46.787  13.866  21.943  0.00  0.00     0.020 A 
BRANCH  19  24
ATOM     24  O   UNL d   1     -47.659  12.334  23.248  0.00  0.00    -0.304 OA
BRANCH  24  25
ATOM     25  C   UNL d   1     -47.413  11.691  23.690  0.00  0.00     0.123 C 
ATOM     26  C   UNL d   1     -47.845  10.991  23.658  0.00  0.00     0.029 C 
ENDBRANCH  24  25
ENDBRANCH  19  24
ENDBRANCH   1  18
TORSDOF 3
ENDMDL
MODEL 5
REMARK VINA RESULT:      -7.9      7.626      9.899
REMARK  3 active torsions:
REMARK  status: ('A' for Active; 'I' for Inactive)
REMARK    1  A    between atoms: C_8  and  N_1 
REMARK    2  A    between atoms: O_16  and  C_11 
REMARK    3  A    between atoms: C_19  and  O_16 
ROOT
ATOM      1  N   UNL d   1     -39.629  14.873  19.495  0.00  0.00    -0.240 N 
ATOM      2  C   UNL d   1     -39.154  14.233  19.320  0.00  0.00     0.267 A 
ATOM      3  C   UNL d   1     -40.118  15.299  18.984  0.00  0.00     0.267 A 
ATOM      4  C   UNL d   1     -40.251  15.188  18.175  0.00  0.00     0.057 A 
ATOM      5  C   UNL d   1     -39.043  13.855  18.598  0.00  0.00     0.057 A 
ATOM      6  C   UNL d   1     -39.922  14.620  17.685  0.00  0.00     0.005 A 
ATOM      7  C   UNL d   1     -39.383  14.023  17.867  0.00  0.00     0.005 A 
ATOM      8  O   UNL d   1     -38.723  13.922  19.959  0.00  0.00    -0.267 OA
ATOM      9  O   UNL d   1     -40.532  15.922  19.334  0.00  0.00    -0.267 OA
ATOM     10  C   UNL d   1     -40.781  15.736  17.879  0.00  0.00     0.005 A 
ATOM     11  C   UNL d   1     -38.517  13.236  18.670  0.00  0.00     0.005 A 
ATOM     12  C   UNL d   1     -39.195  13.572  17.210  0.00  0.00     0.000 A 
ATOM     13  C   UNL d   1     -40.127  14.600  16.880  0.00  0.00     0.000 A 
ATOM     14  C   UNL d   1     -40.663  15.153  16.580  0.00  0.00     0.000 A 
ATOM     15  C   UNL d   1     -38.665  12.946  17.276  0.00  0.00     0.000 A 
ATOM     16  C   UNL d   1     -38.323  12.777  18.012  0.00  0.00     0.000 A 
ATOM     17  C   UNL d   1     -40.986  15.715  17.075  0.00  0.00     0.000 A 
ENDROOT
BRANCH   1  18
ATOM     18  C   UNL d   1     -39.618  15.125  20.284  0.00  0.00     0.092 A 
ATOM     19  C   UNL d   1     -40.179  14.838  20.817  0.00  0.00     0.116 A 
ATOM     20  C   UNL d   1     -40.168  15.090  21.606  0.00  0.00     0.026 A 
ATOM     21  C   UNL d   1     -39.589  15.635  21.864  0.00  0.00     0.002 A 
ATOM     22  C   UNL d   1     -39.023  15.922  21.320  0.00  0.00     0.002 A 
ATOM     23  C   UNL d   1     -39.038  15.668  20.534  0.00  0.00     0.020 A 
BRANCH  19  24
ATOM     24  O   UNL d   1     -40.752  14.300  20.560  0.00  0.00    -0.304 OA
BRANCH  24  25
ATOM     25  C   UNL d   1     -41.337  14.058  21.079  0.00  0.00     0.123 C 
ATOM     26  C   UNL d   1     -41.897  13.509  20.827  0.00  0.00     0.029 C 
ENDBRANCH  24  25
ENDBRANCH  19  24
ENDBRANCH   1  18
TORSDOF 3
ENDMDL
MODEL 6
REMARK VINA RESULT:      -7.3      8.107     10.395
REMARK  3 active torsions:
REMARK  status: ('A' for Active; 'I' for Inactive)
REMARK    1  A    between atoms: C_8  and  N_1 
REMARK    2  A    between atoms: O_16  and  C_11 
REMARK    3  A    between atoms: C_19  and  O_16 
ROOT
ATOM      1  N   UNL d   1     -39.360  14.710  18.624  0.00  0.00    -0.240 N 
ATOM      2  C   UNL d   1     -40.074  14.422  18.894  0.00  0.00     0.267 A 
ATOM      3  C   UNL d   1     -38.771  15.096  19.056  0.00  0.00     0.267 A 
ATOM      4  C   UNL d   1     -38.753  15.287  19.860  0.00  0.00     0.057 A 
ATOM      5  C   UNL d   1     -40.384  14.442  19.655  0.00  0.00     0.057 A 
ATOM      6  C   UNL d   1     -39.326  15.135  20.426  0.00  0.00     0.005 A 
ATOM      7  C   UNL d   1     -40.055  14.758  20.341  0.00  0.00     0.005 A 
ATOM      8  O   UNL d   1     -40.552  14.058  18.320  0.00  0.00    -0.267 OA
ATOM      9  O   UNL d   1     -38.108  15.322  18.618  0.00  0.00    -0.267 OA
ATOM     10  C   UNL d   1     -38.061  15.672  20.064  0.00  0.00     0.005 A 
ATOM     11  C   UNL d   1     -41.118  14.089  19.681  0.00  0.00     0.005 A 
ATOM     12  C   UNL d   1     -40.462  14.720  21.051  0.00  0.00     0.000 A 
ATOM     13  C   UNL d   1     -39.204  15.372  21.212  0.00  0.00     0.000 A 
ATOM     14  C   UNL d   1     -38.505  15.761  21.419  0.00  0.00     0.000 A 
ATOM     15  C   UNL d   1     -41.203  14.364  21.083  0.00  0.00     0.000 A 
ATOM     16  C   UNL d   1     -41.534  14.046  20.392  0.00  0.00     0.000 A 
ATOM     17  C   UNL d   1     -37.940  15.909  20.850  0.00  0.00     0.000 A 
ENDROOT
BRANCH   1  18
ATOM     18  C   UNL d   1     -39.209  14.602  17.817  0.00  0.00     0.092 A 
ATOM     19  C   UNL d   1     -38.824  13.919  17.557  0.00  0.00     0.116 A 
ATOM     20  C   UNL d   1     -38.673  13.810  16.750  0.00  0.00     0.026 A 
ATOM     21  C   UNL d   1     -38.909  14.391  16.197  0.00  0.00     0.002 A 
ATOM     22  C   UNL d   1     -39.299  15.080  16.465  0.00  0.00     0.002 A 
ATOM     23  C   UNL d   1     -39.448  15.184  17.272  0.00  0.00     0.020 A 
BRANCH  19  24
ATOM     24  O   UNL d   1     -38.590  13.346  18.106  0.00  0.00    -0.304 OA
BRANCH  24  25
ATOM     25  C   UNL d   1     -38.245  12.652  17.840  0.00  0.00     0.123 C 
ATOM     26  C   UNL d   1     -37.939  12.119  18.387  0.00  0.00     0.029 C 
ENDBRANCH  24  25
ENDBRANCH  19  24
ENDBRANCH   1  18
TORSDOF 3
ENDMDL
