MODEL 1
REMARK VINA RESULT:      48.5      0.000      0.000
REMARK  3 active torsions:
REMARK  status: ('A' for Active; 'I' for Inactive)
REMARK    1  A    between atoms: C_5  and  N_1 
REMARK    2  A    between atoms: C_4  and  C_5 
REMARK       I    between atoms: N_8  and  C_4 
REMARK    3  A    between atoms: C_13  and  N_8 
ROOT
ATOM      1  C   UNL d   1      57.862  49.308  50.675  0.00  0.00     0.297 C 
ATOM      2  N   UNL d   1      58.248  49.152  51.380  0.00  0.00    -0.207 NA
ATOM      3  O   UNL d   1      58.272  49.614  50.026  0.00  0.00    -0.264 OA
ENDROOT
BRANCH   1   4
ATOM      4  C   UNL d   1      57.054  49.157  50.611  0.00  0.00     0.148 C 
BRANCH   4   5
ATOM      5  N   UNL d   1      56.779  48.625  50.040  0.00  0.00    -0.235 N 
ATOM      6  C   UNL d   1      56.307  48.899  49.414  0.00  0.00     0.274 A 
ATOM      7  O   UNL d   1      56.113  49.704  49.365  0.00  0.00    -0.266 OA
ATOM      8  C   UNL d   1      56.036  48.374  48.850  0.00  0.00     0.097 A 
ATOM      9  S   UNL d   1      56.223  47.575  48.891  0.00  0.00    -0.076 SA
ATOM     10  C   UNL d   1      56.690  47.299  49.509  0.00  0.00     0.097 A 
ATOM     11  C   UNL d   1      56.972  47.818  50.087  0.00  0.00     0.274 A 
ATOM     12  O   UNL d   1      57.441  47.544  50.708  0.00  0.00    -0.266 OA
ENDBRANCH   4   5
ENDBRANCH   1   4
BRANCH   2  13
ATOM     13  C   UNL d   1      59.056  49.303  51.444  0.00  0.00     0.087 A 
ATOM     14  C   UNL d   1      59.547  49.203  50.788  0.00  0.00     0.045 A 
ATOM     15  C   UNL d   1      60.350  49.351  50.842  0.00  0.00     0.121 A 
ATOM     16  O   UNL d   1      60.968  49.300  50.289  0.00  0.00    -0.299 OA
ATOM     17  C   UNL d   1      60.676  49.602  51.558  0.00  0.00     0.119 A 
ATOM     18  C   UNL d   1      61.671  49.522  50.672  0.00  0.00     0.304 A 
ATOM     19  O   UNL d   1      61.481  49.705  51.450  0.00  0.00    -0.300 OA
ATOM     20  C   UNL d   1      60.177  49.700  52.215  0.00  0.00     0.028 A 
ATOM     21  C   UNL d   1      59.371  49.552  52.157  0.00  0.00     0.021 A 
ENDBRANCH   2  13
TORSDOF 3
ENDMDL
