MODEL 1
REMARK VINA RESULT:      53.7      0.000      0.000
REMARK  6 active torsions:
REMARK  status: ('A' for Active; 'I' for Inactive)
REMARK    1  A    between atoms: N_6  and  C_1 
REMARK    2  A    between atoms: C_7  and  C_2 
REMARK       I    between atoms: C_8  and  N_6 
REMARK    3  A    between atoms: O_14  and  C_7 
REMARK    4  A    between atoms: C_10  and  C_8 
REMARK    5  A    between atoms: N_9  and  C_10 
REMARK    6  A    between atoms: C_21  and  O_14 
ROOT
ATOM      1  C   UNL d   1      60.191  49.238  50.857  0.00  0.00     0.119 A 
ATOM      2  C   UNL d   1      60.850  48.750  50.942  0.00  0.00     0.088 A 
ATOM      3  S   UNL d   1      60.073  49.646  51.549  0.00  0.00    -0.068 SA
ATOM      4  C   UNL d   1      61.139  48.861  51.698  0.00  0.00     0.013 A 
ATOM      5  C   UNL d   1      60.655  49.420  52.076  0.00  0.00     0.031 A 
ATOM      6  C   UNL d   1      61.777  48.541  52.117  0.00  0.00     0.001 A 
ATOM      7  C   UNL d   1      60.815  49.651  52.868  0.00  0.00     0.006 A 
ATOM      8  C   UNL d   1      61.940  48.756  52.879  0.00  0.00     0.000 A 
ATOM      9  C   UNL d   1      61.456  49.315  53.257  0.00  0.00     0.001 A 
ENDROOT
BRANCH   1  10
ATOM     10  N   UNL d   1      59.729  49.298  50.176  0.00  0.00    -0.200 NA
ATOM     11  C   UNL d   1      58.939  49.533  50.214  0.00  0.00     0.297 C 
ATOM     12  O   UNL d   1      58.628  49.705  50.959  0.00  0.00    -0.264 OA
BRANCH  11  13
ATOM     13  C   UNL d   1      58.493  49.587  49.522  0.00  0.00     0.144 C 
BRANCH  13  14
ATOM     14  N   UNL d   1      57.674  49.498  49.591  0.00  0.00    -0.295 N 
ATOM     15  C   UNL d   1      57.222  49.414  48.900  0.00  0.00     0.107 A 
ATOM     16  C   UNL d   1      56.404  49.325  48.963  0.00  0.00     0.142 A 
ATOM     17  O   UNL d   1      56.036  49.318  49.686  0.00  0.00    -0.300 OA
ATOM     18  C   UNL d   1      56.488  49.402  50.377  0.00  0.00     0.142 A 
ATOM     19  C   UNL d   1      57.290  49.490  50.319  0.00  0.00     0.107 A 
ENDBRANCH  13  14
ENDBRANCH  11  13
ENDBRANCH   1  10
BRANCH   2  20
ATOM     20  C   UNL d   1      61.175  48.231  50.372  0.00  0.00     0.302 C 
ATOM     21  O   UNL d   1      61.163  48.460  49.570  0.00  0.00    -0.259 OA
BRANCH  20  22
ATOM     22  O   UNL d   1      61.496  47.516  50.607  0.00  0.00    -0.271 OA
BRANCH  22  23
ATOM     23  C   UNL d   1      61.507  46.879  50.095  0.00  0.00     0.126 C 
ATOM     24  C   UNL d   1      61.346  46.123  50.376  0.00  0.00     0.029 C 
ENDBRANCH  22  23
ENDBRANCH  20  22
ENDBRANCH   2  20
TORSDOF 6
ENDMDL
