MODEL 1
REMARK VINA RESULT:      86.5      0.000      0.000
REMARK  7 active torsions:
REMARK  status: ('A' for Active; 'I' for Inactive)
REMARK    1  A    between atoms: C_4  and  C_1 
REMARK    2  A    between atoms: N_5  and  C_3 
REMARK    3  A    between atoms: C_9  and  C_4 
REMARK       I    between atoms: C_7  and  N_5 
REMARK    4  A    between atoms: C_10  and  C_7 
REMARK       I    between atoms: N_19  and  C_9 
REMARK    5  A    between atoms: C_21  and  N_19 
REMARK    6  A    between atoms: C_24  and  C_21 
REMARK    7  A    between atoms: C_23  and  C_24 
ROOT
ATOM      1  C   UNL d   1     -48.606  28.369  34.871  0.00  0.00     0.144 C 
ATOM      2  C   UNL d   1     -48.311  27.860  34.296  0.00  0.00     0.107 C 
ATOM      3  N   UNL d   1     -48.012  27.358  33.723  0.00  0.00    -0.191 NA
ENDROOT
BRANCH   1   4
ATOM      4  C   UNL d   1     -48.295  29.136  34.957  0.00  0.00     0.097 A 
ATOM      5  N   UNL d   1     -48.405  29.809  34.492  0.00  0.00    -0.226 NA
ATOM      6  C   UNL d   1     -47.968  30.426  34.825  0.00  0.00     0.166 A 
ATOM      7  C   UNL d   1     -47.588  30.137  35.496  0.00  0.00     0.037 A 
ATOM      8  C   UNL d   1     -47.786  29.338  35.586  0.00  0.00     0.021 A 
ATOM      9  C   UNL d   1     -47.085  30.493  36.043  0.00  0.00     0.003 A 
ATOM     10  C   UNL d   1     -47.484  28.904  36.213  0.00  0.00     0.002 A 
ATOM     11  C   UNL d   1     -46.981  29.260  36.760  0.00  0.00     0.000 A 
ATOM     12  C   UNL d   1     -46.784  30.059  36.670  0.00  0.00     0.000 A 
BRANCH   6  13
ATOM     13  N   UNL d   1     -47.896  31.197  34.570  0.00  0.00    -0.189 NA
ATOM     14  C   UNL d   1     -48.367  31.613  34.022  0.00  0.00     0.286 C 
ATOM     15  O   UNL d   1     -49.000  31.219  33.672  0.00  0.00    -0.265 OA
BRANCH  14  16
ATOM     16  C   UNL d   1     -48.215  32.398  33.827  0.00  0.00     0.087 A 
ATOM     17  S   UNL d   1     -48.782  32.842  33.424  0.00  0.00    -0.082 SA
ATOM     18  C   UNL d   1     -48.472  33.599  33.309  0.00  0.00     0.036 A 
ATOM     19  C   UNL d   1     -47.715  33.621  33.641  0.00  0.00     0.008 A 
ATOM     20  C   UNL d   1     -47.557  32.879  33.961  0.00  0.00     0.012 A 
ENDBRANCH  14  16
ENDBRANCH   6  13
ENDBRANCH   1   4
BRANCH   1  21
ATOM     21  C   UNL d   1     -49.219  28.118  35.369  0.00  0.00     0.290 C 
ATOM     22  O   UNL d   1     -49.213  28.322  36.165  0.00  0.00    -0.264 OA
ATOM     23  N   UNL d   1     -49.833  27.665  35.069  0.00  0.00    -0.206 NA
BRANCH  23  24
ATOM     24  C   UNL d   1     -49.839  27.461  34.272  0.00  0.00     0.102 C 
BRANCH  24  25
ATOM     25  C   UNL d   1     -49.889  26.753  33.853  0.00  0.00     0.021 C 
BRANCH  25  26
ATOM     26  C   UNL d   1     -50.624  26.425  33.680  0.00  0.00     0.002 A 
ATOM     27  C   UNL d   1     -50.702  25.606  33.597  0.00  0.00     0.000 A 
ATOM     28  C   UNL d   1     -51.442  25.283  33.423  0.00  0.00     0.000 A 
ATOM     29  C   UNL d   1     -52.106  25.768  33.330  0.00  0.00     0.000 A 
ATOM     30  C   UNL d   1     -52.016  26.595  33.416  0.00  0.00     0.000 A 
ATOM     31  C   UNL d   1     -51.284  26.919  33.589  0.00  0.00     0.000 A 
ENDBRANCH  25  26
ENDBRANCH  24  25
ENDBRANCH  23  24
ENDBRANCH   1  21
TORSDOF 7
ENDMDL
MODEL 2
REMARK VINA RESULT:      87.0      2.729      4.140
REMARK  7 active torsions:
REMARK  status: ('A' for Active; 'I' for Inactive)
REMARK    1  A    between atoms: C_4  and  C_1 
REMARK    2  A    between atoms: N_5  and  C_3 
REMARK    3  A    between atoms: C_9  and  C_4 
REMARK       I    between atoms: C_7  and  N_5 
REMARK    4  A    between atoms: C_10  and  C_7 
REMARK       I    between atoms: N_19  and  C_9 
REMARK    5  A    between atoms: C_21  and  N_19 
REMARK    6  A    between atoms: C_24  and  C_21 
REMARK    7  A    between atoms: C_23  and  C_24 
ROOT
ATOM      1  C   UNL d   1     -49.882  27.032  34.020  0.00  0.00     0.144 C 
ATOM      2  C   UNL d   1     -49.312  26.544  33.682  0.00  0.00     0.107 C 
ATOM      3  N   UNL d   1     -48.741  26.060  33.351  0.00  0.00    -0.191 NA
ENDROOT
BRANCH   1   4
ATOM      4  C   UNL d   1     -49.756  27.375  34.767  0.00  0.00     0.097 A 
ATOM      5  N   UNL d   1     -50.173  27.280  35.473  0.00  0.00    -0.226 NA
ATOM      6  C   UNL d   1     -49.814  27.750  36.050  0.00  0.00     0.166 A 
ATOM      7  C   UNL d   1     -49.174  28.136  35.703  0.00  0.00     0.037 A 
ATOM      8  C   UNL d   1     -49.131  27.909  34.907  0.00  0.00     0.021 A 
ATOM      9  C   UNL d   1     -48.620  28.667  36.003  0.00  0.00     0.003 A 
ATOM     10  C   UNL d   1     -48.542  28.210  34.422  0.00  0.00     0.002 A 
ATOM     11  C   UNL d   1     -47.988  28.741  34.722  0.00  0.00     0.000 A 
ATOM     12  C   UNL d   1     -48.032  28.968  35.517  0.00  0.00     0.000 A 
BRANCH   6  13
ATOM     13  N   UNL d   1     -50.020  27.845  36.833  0.00  0.00    -0.189 NA
ATOM     14  C   UNL d   1     -50.595  27.436  37.275  0.00  0.00     0.286 C 
ATOM     15  O   UNL d   1     -51.033  26.849  36.900  0.00  0.00    -0.265 OA
BRANCH  14  16
ATOM     16  C   UNL d   1     -50.733  27.606  38.070  0.00  0.00     0.087 A 
ATOM     17  S   UNL d   1     -51.310  27.189  38.487  0.00  0.00    -0.082 SA
ATOM     18  C   UNL d   1     -51.318  27.480  39.261  0.00  0.00     0.036 A 
ATOM     19  C   UNL d   1     -50.745  28.075  39.318  0.00  0.00     0.008 A 
ATOM     20  C   UNL d   1     -50.385  28.151  38.583  0.00  0.00     0.012 A 
ENDBRANCH  14  16
ENDBRANCH   6  13
ENDBRANCH   1   4
BRANCH   1  21
ATOM     21  C   UNL d   1     -50.588  27.182  33.615  0.00  0.00     0.290 C 
ATOM     22  O   UNL d   1     -50.775  27.949  33.382  0.00  0.00    -0.264 OA
ATOM     23  N   UNL d   1     -51.105  26.569  33.446  0.00  0.00    -0.206 NA
BRANCH  23  24
ATOM     24  C   UNL d   1     -50.918  25.802  33.679  0.00  0.00     0.102 C 
BRANCH  24  25
ATOM     25  C   UNL d   1     -50.904  25.068  33.306  0.00  0.00     0.021 C 
BRANCH  25  26
ATOM     26  C   UNL d   1     -51.561  24.572  33.340  0.00  0.00     0.002 A 
ATOM     27  C   UNL d   1     -51.464  23.752  33.305  0.00  0.00     0.000 A 
ATOM     28  C   UNL d   1     -52.126  23.260  33.340  0.00  0.00     0.000 A 
ATOM     29  C   UNL d   1     -52.887  23.578  33.408  0.00  0.00     0.000 A 
ATOM     30  C   UNL d   1     -52.975  24.409  33.442  0.00  0.00     0.000 A 
ATOM     31  C   UNL d   1     -52.321  24.900  33.408  0.00  0.00     0.000 A 
ENDBRANCH  25  26
ENDBRANCH  24  25
ENDBRANCH  23  24
ENDBRANCH   1  21
TORSDOF 7
ENDMDL
