MODEL 1
REMARK VINA RESULT:      -4.7      0.000      0.000
REMARK  4 active torsions:
REMARK  status: ('A' for Active; 'I' for Inactive)
REMARK    1  A    between atoms: C_7  and  C_4 
REMARK    2  A    between atoms: C_11  and  C_7 
REMARK    3  A    between atoms: C_9  and  O_16 
REMARK    4  A    between atoms: O_16  and  C_11 
ROOT
ATOM      1  C   UNL d   1      57.382   0.031  31.359  0.00  0.00     0.124 C 
ENDROOT
BRANCH   1   2
ATOM      2  C   UNL d   1      58.092   0.289  31.008  0.00  0.00     0.046 C 
BRANCH   2   3
ATOM      3  C   UNL d   1      58.236   0.130  30.212  0.00  0.00     0.092 A 
ATOM      4  N   UNL d   1      58.412  -0.608  29.896  0.00  0.00    -0.219 NA
ATOM      5  C   UNL d   1      58.515  -0.512  29.083  0.00  0.00     0.215 A 
ATOM      6  S   UNL d   1      58.403   0.279  28.903  0.00  0.00    -0.045 SA
ATOM      7  N   UNL d   1      58.699  -1.109  28.544  0.00  0.00    -0.120 N 
ATOM      8  C   UNL d   1      58.230   0.682  29.599  0.00  0.00     0.058 A 
ENDBRANCH   2   3
ENDBRANCH   1   2
BRANCH   1   9
ATOM      9  O   UNL d   1      57.352  -0.076  32.172  0.00  0.00    -0.305 OA
BRANCH   9  10
ATOM     10  C   UNL d   1      56.619  -0.074  32.557  0.00  0.00     0.100 A 
ATOM     11  C   UNL d   1      56.261  -0.783  32.755  0.00  0.00     0.027 A 
ATOM     12  C   UNL d   1      55.529  -0.781  33.140  0.00  0.00     0.032 A 
ATOM     13  C   UNL d   1      55.159  -0.068  33.326  0.00  0.00     0.140 A 
ATOM     14  C   UNL d   1      55.518   0.648  33.128  0.00  0.00     0.032 A 
ATOM     15  F   UNL d   1      54.425  -0.072  33.713  0.00  0.00    -0.204 F 
ATOM     16  C   UNL d   1      56.245   0.647  32.746  0.00  0.00     0.027 A 
ENDBRANCH   9  10
ENDBRANCH   1   9
TORSDOF 4
ENDMDL
MODEL 2
REMARK VINA RESULT:      -4.0      2.916      4.418
REMARK  4 active torsions:
REMARK  status: ('A' for Active; 'I' for Inactive)
REMARK    1  A    between atoms: C_7  and  C_4 
REMARK    2  A    between atoms: C_11  and  C_7 
REMARK    3  A    between atoms: C_9  and  O_16 
REMARK    4  A    between atoms: O_16  and  C_11 
ROOT
ATOM      1  C   UNL d   1      57.072  -0.357  31.603  0.00  0.00     0.124 C 
ENDROOT
BRANCH   1   2
ATOM      2  C   UNL d   1      56.620  -0.724  32.197  0.00  0.00     0.046 C 
BRANCH   2   3
ATOM      3  C   UNL d   1      56.280  -0.268  32.795  0.00  0.00     0.092 A 
ATOM      4  N   UNL d   1      55.477  -0.228  32.966  0.00  0.00    -0.219 NA
ATOM      5  C   UNL d   1      55.385   0.291  33.602  0.00  0.00     0.215 A 
ATOM      6  S   UNL d   1      56.127   0.564  33.817  0.00  0.00    -0.045 SA
ATOM      7  N   UNL d   1      54.671   0.498  33.959  0.00  0.00    -0.120 N 
ATOM      8  C   UNL d   1      56.685   0.221  33.321  0.00  0.00     0.058 A 
ENDBRANCH   2   3
ENDBRANCH   1   2
BRANCH   1   9
ATOM      9  O   UNL d   1      57.250  -0.773  30.918  0.00  0.00    -0.305 OA
BRANCH   9  10
ATOM     10  C   UNL d   1      57.798  -0.462  30.381  0.00  0.00     0.100 A 
ATOM     11  C   UNL d   1      58.347  -0.956  30.028  0.00  0.00     0.027 A 
ATOM     12  C   UNL d   1      58.895  -0.646  29.492  0.00  0.00     0.032 A 
ATOM     13  C   UNL d   1      58.890   0.159  29.312  0.00  0.00     0.140 A 
ATOM     14  C   UNL d   1      58.338   0.659  29.666  0.00  0.00     0.032 A 
ATOM     15  F   UNL d   1      59.442   0.465  28.773  0.00  0.00    -0.204 F 
ATOM     16  C   UNL d   1      57.793   0.352  30.199  0.00  0.00     0.027 A 
ENDBRANCH   9  10
ENDBRANCH   1   9
TORSDOF 4
ENDMDL
MODEL 3
REMARK VINA RESULT:      -3.9      2.843      4.546
REMARK  4 active torsions:
REMARK  status: ('A' for Active; 'I' for Inactive)
REMARK    1  A    between atoms: C_7  and  C_4 
REMARK    2  A    between atoms: C_11  and  C_7 
REMARK    3  A    between atoms: C_9  and  O_16 
REMARK    4  A    between atoms: O_16  and  C_11 
ROOT
ATOM      1  C   UNL d   1      57.836  -0.158  30.679  0.00  0.00     0.124 C 
ENDROOT
BRANCH   1   2
ATOM      2  C   UNL d   1      57.199   0.229  31.049  0.00  0.00     0.046 C 
BRANCH   2   3
ATOM      3  C   UNL d   1      56.886  -0.073  31.750  0.00  0.00     0.092 A 
ATOM      4  N   UNL d   1      56.495  -0.792  31.827  0.00  0.00    -0.219 NA
ATOM      5  C   UNL d   1      56.277  -0.871  32.619  0.00  0.00     0.215 A 
ATOM      6  S   UNL d   1      56.533  -0.206  33.022  0.00  0.00    -0.045 SA
ATOM      7  N   UNL d   1      55.872  -1.510  32.948  0.00  0.00    -0.120 N 
ATOM      8  C   UNL d   1      56.911   0.292  32.489  0.00  0.00     0.058 A 
ENDBRANCH   2   3
ENDBRANCH   1   2
BRANCH   1   9
ATOM      9  O   UNL d   1      58.062   0.070  29.924  0.00  0.00    -0.305 OA
BRANCH   9  10
ATOM     10  C   UNL d   1      58.755  -0.241  29.593  0.00  0.00     0.100 A 
ATOM     11  C   UNL d   1      58.718  -0.919  29.136  0.00  0.00     0.027 A 
ATOM     12  C   UNL d   1      59.409  -1.230  28.805  0.00  0.00     0.032 A 
ATOM     13  C   UNL d   1      60.135  -0.859  28.933  0.00  0.00     0.140 A 
ATOM     14  C   UNL d   1      60.174  -0.176  29.394  0.00  0.00     0.032 A 
ATOM     15  F   UNL d   1      60.825  -1.175  28.599  0.00  0.00    -0.204 F 
ATOM     16  C   UNL d   1      59.488   0.134  29.723  0.00  0.00     0.027 A 
ENDBRANCH   9  10
ENDBRANCH   1   9
TORSDOF 4
ENDMDL
MODEL 4
REMARK VINA RESULT:      -2.4      1.340      1.690
REMARK  4 active torsions:
REMARK  status: ('A' for Active; 'I' for Inactive)
REMARK    1  A    between atoms: C_7  and  C_4 
REMARK    2  A    between atoms: C_11  and  C_7 
REMARK    3  A    between atoms: C_9  and  O_16 
REMARK    4  A    between atoms: O_16  and  C_11 
ROOT
ATOM      1  C   UNL d   1      56.545  -0.015  32.298  0.00  0.00     0.124 C 
ENDROOT
BRANCH   1   2
ATOM      2  C   UNL d   1      56.728  -0.261  31.525  0.00  0.00     0.046 C 
BRANCH   2   3
ATOM      3  C   UNL d   1      57.379   0.062  31.134  0.00  0.00     0.092 A 
ATOM      4  N   UNL d   1      58.133   0.145  31.452  0.00  0.00    -0.219 NA
ATOM      5  C   UNL d   1      58.608   0.492  30.873  0.00  0.00     0.215 A 
ATOM      6  S   UNL d   1      58.148   0.620  30.208  0.00  0.00    -0.045 SA
ATOM      7  N   UNL d   1      59.408   0.678  30.951  0.00  0.00    -0.120 N 
ATOM      8  C   UNL d   1      57.386   0.356  30.364  0.00  0.00     0.058 A 
ENDBRANCH   2   3
ENDBRANCH   1   2
BRANCH   1   9
ATOM      9  O   UNL d   1      56.153  -0.530  32.802  0.00  0.00    -0.305 OA
BRANCH   9  10
ATOM     10  C   UNL d   1      55.698  -0.227  33.424  0.00  0.00     0.100 A 
ATOM     11  C   UNL d   1      54.911  -0.041  33.300  0.00  0.00     0.027 A 
ATOM     12  C   UNL d   1      54.456   0.262  33.920  0.00  0.00     0.032 A 
ATOM     13  C   UNL d   1      54.793   0.377  34.665  0.00  0.00     0.140 A 
ATOM     14  C   UNL d   1      55.586   0.190  34.793  0.00  0.00     0.032 A 
ATOM     15  F   UNL d   1      54.332   0.680  35.284  0.00  0.00    -0.204 F 
ATOM     16  C   UNL d   1      56.038  -0.111  34.177  0.00  0.00     0.027 A 
ENDBRANCH   9  10
ENDBRANCH   1   9
TORSDOF 4
ENDMDL
MODEL 5
REMARK VINA RESULT:      -2.2      3.176      4.935
REMARK  4 active torsions:
REMARK  status: ('A' for Active; 'I' for Inactive)
REMARK    1  A    between atoms: C_7  and  C_4 
REMARK    2  A    between atoms: C_11  and  C_7 
REMARK    3  A    between atoms: C_9  and  O_16 
REMARK    4  A    between atoms: O_16  and  C_11 
ROOT
ATOM      1  C   UNL d   1      58.854  -0.979  29.221  0.00  0.00     0.124 C 
ENDROOT
BRANCH   1   2
ATOM      2  C   UNL d   1      58.895  -0.168  29.405  0.00  0.00     0.046 C 
BRANCH   2   3
ATOM      3  C   UNL d   1      58.439   0.137  30.020  0.00  0.00     0.092 A 
ATOM      4  N   UNL d   1      58.671   0.187  30.807  0.00  0.00    -0.219 NA
ATOM      5  C   UNL d   1      58.048   0.526  31.229  0.00  0.00     0.215 A 
ATOM      6  S   UNL d   1      57.439   0.682  30.703  0.00  0.00    -0.045 SA
ATOM      7  N   UNL d   1      58.038   0.682  32.038  0.00  0.00    -0.120 N 
ATOM      8  C   UNL d   1      57.676   0.443  29.953  0.00  0.00     0.058 A 
ENDBRANCH   2   3
ENDBRANCH   1   2
BRANCH   1   9
ATOM      9  O   UNL d   1      59.337  -1.283  28.632  0.00  0.00    -0.305 OA
BRANCH   9  10
ATOM     10  C   UNL d   1      59.500  -2.095  28.616  0.00  0.00     0.100 A 
ATOM     11  C   UNL d   1      58.886  -2.632  28.544  0.00  0.00     0.027 A 
ATOM     12  C   UNL d   1      59.048  -3.443  28.527  0.00  0.00     0.032 A 
ATOM     13  C   UNL d   1      59.826  -3.712  28.582  0.00  0.00     0.140 A 
ATOM     14  C   UNL d   1      60.446  -3.173  28.655  0.00  0.00     0.032 A 
ATOM     15  F   UNL d   1      59.983  -4.526  28.565  0.00  0.00    -0.204 F 
ATOM     16  C   UNL d   1      60.286  -2.367  28.671  0.00  0.00     0.027 A 
ENDBRANCH   9  10
ENDBRANCH   1   9
TORSDOF 4
ENDMDL
