MODEL 1
REMARK VINA RESULT:      -7.4      0.000      0.000
REMARK  6 active torsions:
REMARK  status: ('A' for Active; 'I' for Inactive)
REMARK       I    between atoms: N_2  and  C_1 
REMARK    1  A    between atoms: C_5  and  C_1 
REMARK    2  A    between atoms: C_3  and  N_2 
REMARK    3  A    between atoms: O_16  and  C_6 
REMARK    4  A    between atoms: O_17  and  C_11 
REMARK    5  A    between atoms: O_18  and  C_12 
REMARK    6  A    between atoms: C_19  and  O_18 
ROOT
ATOM      1  C   UNL d   1     -47.817  13.649  22.999  0.00  0.00     0.279 C 
ATOM      2  N   UNL d   1     -48.532  13.363  22.694  0.00  0.00    -0.206 NA
ATOM      3  O   UNL d   1     -47.737  14.440  23.190  0.00  0.00    -0.265 OA
ENDROOT
BRANCH   1   4
ATOM      4  C   UNL d   1     -47.168  13.118  23.112  0.00  0.00     0.058 A 
ATOM      5  C   UNL d   1     -46.449  13.271  22.737  0.00  0.00     0.007 A 
ATOM      6  C   UNL d   1     -45.824  12.760  22.846  0.00  0.00     0.025 A 
ATOM      7  C   UNL d   1     -45.914  12.092  23.331  0.00  0.00     0.100 A 
ATOM      8  C   UNL d   1     -46.634  11.951  23.698  0.00  0.00     0.025 A 
ATOM      9  C   UNL d   1     -47.259  12.462  23.589  0.00  0.00     0.007 A 
BRANCH   7  10
ATOM     10  O   UNL d   1     -45.269  11.564  23.444  0.00  0.00    -0.305 OA
BRANCH  10  11
ATOM     11  C   UNL d   1     -45.419  10.770  23.610  0.00  0.00     0.123 C 
ATOM     12  C   UNL d   1     -44.791  10.234  23.630  0.00  0.00     0.029 C 
ENDBRANCH  10  11
ENDBRANCH   7  10
ENDBRANCH   1   4
BRANCH   2  13
ATOM     13  C   UNL d   1     -49.157  13.875  22.585  0.00  0.00     0.109 A 
ATOM     14  C   UNL d   1     -49.284  14.472  23.136  0.00  0.00     0.045 A 
ATOM     15  C   UNL d   1     -49.908  14.986  23.031  0.00  0.00     0.096 A 
ATOM     16  C   UNL d   1     -50.419  14.919  22.378  0.00  0.00     0.026 A 
ATOM     17  C   UNL d   1     -50.287  14.329  21.841  0.00  0.00     0.028 A 
ATOM     18  C   UNL d   1     -49.657  13.795  21.930  0.00  0.00     0.112 A 
BRANCH  15  19
ATOM     19  O   UNL d   1     -50.020  15.582  23.597  0.00  0.00    -0.328 OA
ATOM     20  C   UNL d   1     -50.776  15.912  23.698  0.00  0.00     0.181 C 
ENDBRANCH  15  19
BRANCH  18  21
ATOM     21  O   UNL d   1     -49.537  13.204  21.378  0.00  0.00    -0.327 OA
ATOM     22  C   UNL d   1     -50.192  12.824  21.035  0.00  0.00     0.181 C 
ENDBRANCH  18  21
ENDBRANCH   2  13
TORSDOF 6
ENDMDL
MODEL 2
REMARK VINA RESULT:      -6.9      1.498      1.659
REMARK  6 active torsions:
REMARK  status: ('A' for Active; 'I' for Inactive)
REMARK       I    between atoms: N_2  and  C_1 
REMARK    1  A    between atoms: C_5  and  C_1 
REMARK    2  A    between atoms: C_3  and  N_2 
REMARK    3  A    between atoms: O_16  and  C_6 
REMARK    4  A    between atoms: O_17  and  C_11 
REMARK    5  A    between atoms: O_18  and  C_12 
REMARK    6  A    between atoms: C_19  and  O_18 
ROOT
ATOM      1  C   UNL d   1     -47.975  13.881  22.666  0.00  0.00     0.279 C 
ATOM      2  N   UNL d   1     -48.455  13.529  23.241  0.00  0.00    -0.206 NA
ATOM      3  O   UNL d   1     -48.275  14.469  22.183  0.00  0.00    -0.265 OA
ENDROOT
BRANCH   1   4
ATOM      4  C   UNL d   1     -47.172  13.629  22.579  0.00  0.00     0.058 A 
ATOM      5  C   UNL d   1     -46.997  12.999  22.075  0.00  0.00     0.007 A 
ATOM      6  C   UNL d   1     -46.224  12.757  21.991  0.00  0.00     0.025 A 
ATOM      7  C   UNL d   1     -45.620  13.143  22.411  0.00  0.00     0.100 A 
ATOM      8  C   UNL d   1     -45.808  13.768  22.908  0.00  0.00     0.025 A 
ATOM      9  C   UNL d   1     -46.581  14.010  22.992  0.00  0.00     0.007 A 
BRANCH   7  10
ATOM     10  O   UNL d   1     -44.822  12.893  22.324  0.00  0.00    -0.305 OA
BRANCH  10  11
ATOM     11  C   UNL d   1     -44.373  13.182  21.695  0.00  0.00     0.123 C 
ATOM     12  C   UNL d   1     -43.683  12.786  21.474  0.00  0.00     0.029 C 
ENDBRANCH  10  11
ENDBRANCH   7  10
ENDBRANCH   1   4
BRANCH   2  13
ATOM     13  C   UNL d   1     -49.229  13.771  23.325  0.00  0.00     0.109 A 
ATOM     14  C   UNL d   1     -49.393  14.576  23.360  0.00  0.00     0.045 A 
ATOM     15  C   UNL d   1     -50.165  14.823  23.444  0.00  0.00     0.096 A 
ATOM     16  C   UNL d   1     -50.791  14.277  23.494  0.00  0.00     0.026 A 
ATOM     17  C   UNL d   1     -50.622  13.487  23.459  0.00  0.00     0.028 A 
ATOM     18  C   UNL d   1     -49.841  13.215  23.374  0.00  0.00     0.112 A 
BRANCH  15  19
ATOM     19  O   UNL d   1     -50.311  15.639  23.477  0.00  0.00    -0.328 OA
ATOM     20  C   UNL d   1     -51.064  15.910  23.696  0.00  0.00     0.181 C 
ENDBRANCH  15  19
BRANCH  18  21
ATOM     21  O   UNL d   1     -49.686  12.413  23.340  0.00  0.00    -0.327 OA
ATOM     22  C   UNL d   1     -50.287  11.872  23.529  0.00  0.00     0.181 C 
ENDBRANCH  18  21
ENDBRANCH   2  13
TORSDOF 6
ENDMDL
MODEL 3
REMARK VINA RESULT:      -5.2      1.212      1.577
REMARK  6 active torsions:
REMARK  status: ('A' for Active; 'I' for Inactive)
REMARK       I    between atoms: N_2  and  C_1 
REMARK    1  A    between atoms: C_5  and  C_1 
REMARK    2  A    between atoms: C_3  and  N_2 
REMARK    3  A    between atoms: O_16  and  C_6 
REMARK    4  A    between atoms: O_17  and  C_11 
REMARK    5  A    between atoms: O_18  and  C_12 
REMARK    6  A    between atoms: C_19  and  O_18 
ROOT
ATOM      1  C   UNL d   1     -47.768  12.769  22.873  0.00  0.00     0.279 C 
ATOM      2  N   UNL d   1     -48.396  12.297  22.613  0.00  0.00    -0.206 NA
ATOM      3  O   UNL d   1     -47.880  13.569  23.003  0.00  0.00    -0.265 OA
ENDROOT
BRANCH   1   4
ATOM      4  C   UNL d   1     -47.008  12.420  23.005  0.00  0.00     0.058 A 
ATOM      5  C   UNL d   1     -46.362  12.677  22.561  0.00  0.00     0.007 A 
ATOM      6  C   UNL d   1     -45.630  12.342  22.688  0.00  0.00     0.025 A 
ATOM      7  C   UNL d   1     -45.540  11.747  23.260  0.00  0.00     0.100 A 
ATOM      8  C   UNL d   1     -46.191  11.500  23.695  0.00  0.00     0.025 A 
ATOM      9  C   UNL d   1     -46.923  11.836  23.568  0.00  0.00     0.007 A 
BRANCH   7  10
ATOM     10  O   UNL d   1     -44.785  11.400  23.391  0.00  0.00    -0.305 OA
BRANCH  10  11
ATOM     11  C   UNL d   1     -44.707  10.579  23.367  0.00  0.00     0.123 C 
ATOM     12  C   UNL d   1     -44.027  10.228  23.678  0.00  0.00     0.029 C 
ENDBRANCH  10  11
ENDBRANCH   7  10
ENDBRANCH   1   4
BRANCH   2  13
ATOM     13  C   UNL d   1     -49.127  12.633  22.486  0.00  0.00     0.109 A 
ATOM     14  C   UNL d   1     -49.203  13.222  21.917  0.00  0.00     0.045 A 
ATOM     15  C   UNL d   1     -49.932  13.560  21.786  0.00  0.00     0.096 A 
ATOM     16  C   UNL d   1     -50.603  13.322  22.217  0.00  0.00     0.026 A 
ATOM     17  C   UNL d   1     -50.522  12.743  22.775  0.00  0.00     0.028 A 
ATOM     18  C   UNL d   1     -49.786  12.385  22.923  0.00  0.00     0.112 A 
BRANCH  15  19
ATOM     19  O   UNL d   1     -49.988  14.153  21.209  0.00  0.00    -0.328 OA
ATOM     20  C   UNL d   1     -49.720  14.919  21.382  0.00  0.00     0.181 C 
ENDBRANCH  15  19
BRANCH  18  21
ATOM     21  O   UNL d   1     -49.719  11.800  23.490  0.00  0.00    -0.327 OA
ATOM     22  C   UNL d   1     -50.388  11.353  23.697  0.00  0.00     0.181 C 
ENDBRANCH  18  21
ENDBRANCH   2  13
TORSDOF 6
ENDMDL
MODEL 4
REMARK VINA RESULT:      -4.8      8.377     10.354
REMARK  6 active torsions:
REMARK  status: ('A' for Active; 'I' for Inactive)
REMARK       I    between atoms: N_2  and  C_1 
REMARK    1  A    between atoms: C_5  and  C_1 
REMARK    2  A    between atoms: C_3  and  N_2 
REMARK    3  A    between atoms: O_16  and  C_6 
REMARK    4  A    between atoms: O_17  and  C_11 
REMARK    5  A    between atoms: O_18  and  C_12 
REMARK    6  A    between atoms: C_19  and  O_18 
ROOT
ATOM      1  C   UNL d   1     -38.891  14.582  18.980  0.00  0.00     0.279 C 
ATOM      2  N   UNL d   1     -39.594  14.434  19.392  0.00  0.00    -0.206 NA
ATOM      3  O   UNL d   1     -38.227  14.844  19.379  0.00  0.00    -0.265 OA
ENDROOT
BRANCH   1   4
ATOM      4  C   UNL d   1     -38.863  14.459  18.143  0.00  0.00     0.058 A 
ATOM      5  C   UNL d   1     -38.916  15.109  17.637  0.00  0.00     0.007 A 
ATOM      6  C   UNL d   1     -38.888  14.991  16.831  0.00  0.00     0.025 A 
ATOM      7  C   UNL d   1     -38.807  14.224  16.526  0.00  0.00     0.100 A 
ATOM      8  C   UNL d   1     -38.755  13.586  17.040  0.00  0.00     0.025 A 
ATOM      9  C   UNL d   1     -38.783  13.704  17.846  0.00  0.00     0.007 A 
BRANCH   7  10
ATOM     10  O   UNL d   1     -38.778  14.102  15.694  0.00  0.00    -0.305 OA
BRANCH  10  11
ATOM     11  C   UNL d   1     -38.151  13.677  15.369  0.00  0.00     0.123 C 
ATOM     12  C   UNL d   1     -38.012  13.718  14.555  0.00  0.00     0.029 C 
ENDBRANCH  10  11
ENDBRANCH   7  10
ENDBRANCH   1   4
BRANCH   2  13
ATOM     13  C   UNL d   1     -39.622  14.552  20.198  0.00  0.00     0.109 A 
ATOM     14  C   UNL d   1     -39.076  14.166  20.676  0.00  0.00     0.045 A 
ATOM     15  C   UNL d   1     -39.100  14.280  21.483  0.00  0.00     0.096 A 
ATOM     16  C   UNL d   1     -39.666  14.780  21.832  0.00  0.00     0.026 A 
ATOM     17  C   UNL d   1     -40.199  15.156  21.356  0.00  0.00     0.028 A 
ATOM     18  C   UNL d   1     -40.191  15.052  20.531  0.00  0.00     0.112 A 
BRANCH  15  19
ATOM     19  O   UNL d   1     -38.540  13.882  21.948  0.00  0.00    -0.328 OA
ATOM     20  C   UNL d   1     -38.757  13.608  22.702  0.00  0.00     0.181 C 
ENDBRANCH  15  19
BRANCH  18  21
ATOM     21  O   UNL d   1     -40.738  15.440  20.062  0.00  0.00    -0.327 OA
ATOM     22  C   UNL d   1     -41.351  15.872  20.420  0.00  0.00     0.181 C 
ENDBRANCH  18  21
ENDBRANCH   2  13
TORSDOF 6
ENDMDL
