MODEL 1
REMARK VINA RESULT:      -2.5      0.000      0.000
REMARK  5 active torsions:
REMARK  status: ('A' for Active; 'I' for Inactive)
REMARK    1  A    between atoms: N_7  and  C_1 
REMARK    2  A    between atoms: C_6  and  N_2 
REMARK    3  A    between atoms: C_11  and  C_6 
REMARK    4  A    between atoms: C_12  and  N_7 
REMARK    5  A    between atoms: C_13  and  C_12 
ROOT
ATOM      1  C   UNL d   1      33.070  22.315 -20.630  0.00  0.00     0.735 A 
ATOM      2  N   UNL d   1      33.164  22.418 -21.448  0.00  0.00    -0.138 N 
ATOM      3  N   UNL d   1      33.014  21.503 -20.471  0.00  0.00    -0.059 NA
ATOM      4  C   UNL d   1      33.167  21.669 -21.798  0.00  0.00     0.100 A 
ATOM      5  C   UNL d   1      33.074  21.106 -21.189  0.00  0.00     0.116 A 
ATOM      6  C   UNL d   1      33.241  21.422 -22.581  0.00  0.00     0.020 A 
ATOM      7  C   UNL d   1      33.057  20.301 -21.382  0.00  0.00     0.021 A 
ATOM      8  C   UNL d   1      33.223  20.621 -22.765  0.00  0.00     0.002 A 
ATOM      9  C   UNL d   1      33.131  20.055 -22.165  0.00  0.00     0.002 A 
ENDROOT
BRANCH   1  10
ATOM     10  N   UNL d   1      33.037  22.918 -20.067  0.00  0.00    -0.056 NA
BRANCH  10  11
ATOM     11  C   UNL d   1      33.197  22.760 -19.274  0.00  0.00     0.163 C 
BRANCH  11  12
ATOM     12  C   UNL d   1      33.226  23.366 -18.720  0.00  0.00     0.255 C 
ATOM     13  O   UNL d   1      33.215  23.195 -17.915  0.00  0.00    -0.281 OA
ENDBRANCH  11  12
ENDBRANCH  10  11
ENDBRANCH   1  10
BRANCH   2  14
ATOM     14  C   UNL d   1      33.241  23.138 -21.839  0.00  0.00     0.098 C 
BRANCH  14  15
ATOM     15  C   UNL d   1      32.578  23.486 -22.198  0.00  0.00     0.018 C 
ATOM     16  C   UNL d   1      31.896  23.623 -21.765  0.00  0.00     0.002 C 
ATOM     17  C   UNL d   1      32.609  23.694 -22.998  0.00  0.00     0.002 C 
ENDBRANCH  14  15
ENDBRANCH   2  14
TORSDOF 5
ENDMDL
MODEL 2
REMARK VINA RESULT:      -1.7      5.757      7.126
REMARK  5 active torsions:
REMARK  status: ('A' for Active; 'I' for Inactive)
REMARK    1  A    between atoms: N_7  and  C_1 
REMARK    2  A    between atoms: C_6  and  N_2 
REMARK    3  A    between atoms: C_11  and  C_6 
REMARK    4  A    between atoms: C_12  and  N_7 
REMARK    5  A    between atoms: C_13  and  C_12 
ROOT
ATOM      1  C   UNL d   1      31.204  17.245 -24.533  0.00  0.00     0.735 A 
ATOM      2  N   UNL d   1      30.998  16.453 -24.395  0.00  0.00    -0.138 N 
ATOM      3  N   UNL d   1      30.511  17.701 -24.537  0.00  0.00    -0.059 NA
ATOM      4  C   UNL d   1      30.176  16.417 -24.315  0.00  0.00     0.100 A 
ATOM      5  C   UNL d   1      29.879  17.191 -24.403  0.00  0.00     0.116 A 
ATOM      6  C   UNL d   1      29.659  15.790 -24.174  0.00  0.00     0.020 A 
ATOM      7  C   UNL d   1      29.063  17.321 -24.348  0.00  0.00     0.021 A 
ATOM      8  C   UNL d   1      28.850  15.926 -24.120  0.00  0.00     0.002 A 
ATOM      9  C   UNL d   1      28.547  16.694 -24.207  0.00  0.00     0.002 A 
ENDROOT
BRANCH   1  10
ATOM     10  N   UNL d   1      31.969  17.534 -24.646  0.00  0.00    -0.056 NA
BRANCH  10  11
ATOM     11  C   UNL d   1      32.091  18.291 -24.945  0.00  0.00     0.163 C 
BRANCH  11  12
ATOM     12  C   UNL d   1      32.850  18.569 -25.097  0.00  0.00     0.255 C 
ATOM     13  O   UNL d   1      33.006  19.377 -25.090  0.00  0.00    -0.281 OA
ENDBRANCH  11  12
ENDBRANCH  10  11
ENDBRANCH   1  10
BRANCH   2  14
ATOM     14  C   UNL d   1      31.520  15.819 -24.348  0.00  0.00     0.098 C 
BRANCH  14  15
ATOM     15  C   UNL d   1      31.909  15.656 -23.632  0.00  0.00     0.018 C 
ATOM     16  C   UNL d   1      31.479  15.453 -22.965  0.00  0.00     0.002 C 
ATOM     17  C   UNL d   1      32.734  15.700 -23.596  0.00  0.00     0.002 C 
ENDBRANCH  14  15
ENDBRANCH   2  14
TORSDOF 5
ENDMDL
MODEL 3
REMARK VINA RESULT:      -1.7      5.908      7.104
REMARK  5 active torsions:
REMARK  status: ('A' for Active; 'I' for Inactive)
REMARK    1  A    between atoms: N_7  and  C_1 
REMARK    2  A    between atoms: C_6  and  N_2 
REMARK    3  A    between atoms: C_11  and  C_6 
REMARK    4  A    between atoms: C_12  and  N_7 
REMARK    5  A    between atoms: C_13  and  C_12 
ROOT
ATOM      1  C   UNL d   1      30.791  16.901 -24.389  0.00  0.00     0.735 A 
ATOM      2  N   UNL d   1      31.557  16.597 -24.477  0.00  0.00    -0.138 N 
ATOM      3  N   UNL d   1      30.810  17.715 -24.546  0.00  0.00    -0.059 NA
ATOM      4  C   UNL d   1      32.054  17.223 -24.690  0.00  0.00     0.100 A 
ATOM      5  C   UNL d   1      31.587  17.912 -24.731  0.00  0.00     0.116 A 
ATOM      6  C   UNL d   1      32.862  17.260 -24.851  0.00  0.00     0.020 A 
ATOM      7  C   UNL d   1      31.944  18.631 -24.935  0.00  0.00     0.021 A 
ATOM      8  C   UNL d   1      33.209  17.978 -25.052  0.00  0.00     0.002 A 
ATOM      9  C   UNL d   1      32.751  18.669 -25.095  0.00  0.00     0.002 A 
ENDROOT
BRANCH   1  10
ATOM     10  N   UNL d   1      30.119  16.469 -24.179  0.00  0.00    -0.056 NA
BRANCH  10  11
ATOM     11  C   UNL d   1      29.368  16.794 -24.267  0.00  0.00     0.163 C 
BRANCH  11  12
ATOM     12  C   UNL d   1      28.694  16.333 -24.170  0.00  0.00     0.255 C 
ATOM     13  O   UNL d   1      28.154  16.505 -23.573  0.00  0.00    -0.281 OA
ENDBRANCH  11  12
ENDBRANCH  10  11
ENDBRANCH   1  10
BRANCH   2  14
ATOM     14  C   UNL d   1      31.781  15.812 -24.372  0.00  0.00     0.098 C 
BRANCH  14  15
ATOM     15  C   UNL d   1      32.123  15.573 -23.653  0.00  0.00     0.018 C 
ATOM     16  C   UNL d   1      32.933  15.455 -23.599  0.00  0.00     0.002 C 
ATOM     17  C   UNL d   1      31.642  15.453 -22.992  0.00  0.00     0.002 C 
ENDBRANCH  14  15
ENDBRANCH   2  14
TORSDOF 5
ENDMDL
MODEL 4
REMARK VINA RESULT:      -1.5      5.416      6.534
REMARK  5 active torsions:
REMARK  status: ('A' for Active; 'I' for Inactive)
REMARK    1  A    between atoms: N_7  and  C_1 
REMARK    2  A    between atoms: C_6  and  N_2 
REMARK    3  A    between atoms: C_11  and  C_6 
REMARK    4  A    between atoms: C_12  and  N_7 
REMARK    5  A    between atoms: C_13  and  C_12 
ROOT
ATOM      1  C   UNL d   1      30.964  17.161 -24.348  0.00  0.00     0.735 A 
ATOM      2  N   UNL d   1      31.770  17.235 -24.531  0.00  0.00    -0.138 N 
ATOM      3  N   UNL d   1      30.875  16.553 -23.790  0.00  0.00    -0.059 NA
ATOM      4  C   UNL d   1      32.183  16.674 -24.086  0.00  0.00     0.100 A 
ATOM      5  C   UNL d   1      31.625  16.255 -23.629  0.00  0.00     0.116 A 
ATOM      6  C   UNL d   1      32.984  16.487 -24.034  0.00  0.00     0.020 A 
ATOM      7  C   UNL d   1      31.886  15.652 -23.125  0.00  0.00     0.021 A 
ATOM      8  C   UNL d   1      33.236  15.887 -23.531  0.00  0.00     0.002 A 
ATOM      9  C   UNL d   1      32.687  15.465 -23.073  0.00  0.00     0.002 A 
ENDROOT
BRANCH   1  10
ATOM     10  N   UNL d   1      30.351  17.613 -24.666  0.00  0.00    -0.056 NA
BRANCH  10  11
ATOM     11  C   UNL d   1      29.587  17.311 -24.710  0.00  0.00     0.163 C 
BRANCH  11  12
ATOM     12  C   UNL d   1      28.975  17.754 -25.034  0.00  0.00     0.255 C 
ATOM     13  O   UNL d   1      28.606  18.341 -24.590  0.00  0.00    -0.281 OA
ENDBRANCH  11  12
ENDBRANCH  10  11
ENDBRANCH   1  10
BRANCH   2  14
ATOM     14  C   UNL d   1      32.097  17.773 -25.061  0.00  0.00     0.098 C 
BRANCH  14  15
ATOM     15  C   UNL d   1      32.494  18.445 -24.776  0.00  0.00     0.018 C 
ATOM     16  C   UNL d   1      33.230  18.649 -25.073  0.00  0.00     0.002 C 
ATOM     17  C   UNL d   1      32.141  18.909 -24.189  0.00  0.00     0.002 C 
ENDBRANCH  14  15
ENDBRANCH   2  14
TORSDOF 5
ENDMDL
MODEL 5
REMARK VINA RESULT:      -1.4      6.708      7.484
REMARK  5 active torsions:
REMARK  status: ('A' for Active; 'I' for Inactive)
REMARK    1  A    between atoms: N_7  and  C_1 
REMARK    2  A    between atoms: C_6  and  N_2 
REMARK    3  A    between atoms: C_11  and  C_6 
REMARK    4  A    between atoms: C_12  and  N_7 
REMARK    5  A    between atoms: C_13  and  C_12 
ROOT
ATOM      1  C   UNL d   1      30.683  16.298 -23.868  0.00  0.00     0.735 A 
ATOM      2  N   UNL d   1      29.957  16.424 -24.247  0.00  0.00    -0.138 N 
ATOM      3  N   UNL d   1      30.541  15.923 -23.142  0.00  0.00    -0.059 NA
ATOM      4  C   UNL d   1      29.361  16.129 -23.756  0.00  0.00     0.100 A 
ATOM      5  C   UNL d   1      29.728  15.820 -23.073  0.00  0.00     0.116 A 
ATOM      6  C   UNL d   1      28.541  16.097 -23.834  0.00  0.00     0.020 A 
ATOM      7  C   UNL d   1      29.259  15.483 -22.479  0.00  0.00     0.021 A 
ATOM      8  C   UNL d   1      28.082  15.762 -23.240  0.00  0.00     0.002 A 
ATOM      9  C   UNL d   1      28.440  15.453 -22.558  0.00  0.00     0.002 A 
ENDROOT
BRANCH   1  10
ATOM     10  N   UNL d   1      31.426  16.508 -24.162  0.00  0.00    -0.056 NA
BRANCH  10  11
ATOM     11  C   UNL d   1      32.087  16.043 -24.002  0.00  0.00     0.163 C 
BRANCH  11  12
ATOM     12  C   UNL d   1      32.813  16.206 -24.352  0.00  0.00     0.255 C 
ATOM     13  O   UNL d   1      33.115  15.708 -24.935  0.00  0.00    -0.281 OA
ENDBRANCH  11  12
ENDBRANCH  10  11
ENDBRANCH   1  10
BRANCH   2  14
ATOM     14  C   UNL d   1      29.850  16.781 -24.981  0.00  0.00     0.098 C 
BRANCH  14  15
ATOM     15  C   UNL d   1      29.636  17.583 -25.024  0.00  0.00     0.018 C 
ATOM     16  C   UNL d   1      28.847  17.804 -24.998  0.00  0.00     0.002 C 
ATOM     17  C   UNL d   1      30.226  18.159 -25.092  0.00  0.00     0.002 C 
ENDBRANCH  14  15
ENDBRANCH   2  14
TORSDOF 5
ENDMDL
MODEL 6
REMARK VINA RESULT:      -1.1      4.946      6.125
REMARK  5 active torsions:
REMARK  status: ('A' for Active; 'I' for Inactive)
REMARK    1  A    between atoms: N_7  and  C_1 
REMARK    2  A    between atoms: C_6  and  N_2 
REMARK    3  A    between atoms: C_11  and  C_6 
REMARK    4  A    between atoms: C_12  and  N_7 
REMARK    5  A    between atoms: C_13  and  C_12 
ROOT
ATOM      1  C   UNL d   1      32.551  17.898 -24.419  0.00  0.00     0.735 A 
ATOM      2  N   UNL d   1      32.049  17.247 -24.526  0.00  0.00    -0.138 N 
ATOM      3  N   UNL d   1      33.081  17.726 -23.804  0.00  0.00    -0.059 NA
ATOM      4  C   UNL d   1      32.267  16.668 -23.978  0.00  0.00     0.100 A 
ATOM      5  C   UNL d   1      32.905  16.969 -23.533  0.00  0.00     0.116 A 
ATOM      6  C   UNL d   1      31.974  15.913 -23.821  0.00  0.00     0.020 A 
ATOM      7  C   UNL d   1      33.239  16.501 -22.937  0.00  0.00     0.021 A 
ATOM      8  C   UNL d   1      32.311  15.455 -23.228  0.00  0.00     0.002 A 
ATOM      9  C   UNL d   1      32.947  15.747 -22.782  0.00  0.00     0.002 A 
ENDROOT
BRANCH   1  10
ATOM     10  N   UNL d   1      32.529  18.603 -24.850  0.00  0.00    -0.056 NA
BRANCH  10  11
ATOM     11  C   UNL d   1      33.073  19.203 -24.699  0.00  0.00     0.163 C 
BRANCH  11  12
ATOM     12  C   UNL d   1      33.024  19.925 -25.088  0.00  0.00     0.255 C 
ATOM     13  O   UNL d   1      33.225  20.622 -24.699  0.00  0.00    -0.281 OA
ENDBRANCH  11  12
ENDBRANCH  10  11
ENDBRANCH   1  10
BRANCH   2  14
ATOM     14  C   UNL d   1      31.443  17.189 -25.080  0.00  0.00     0.098 C 
BRANCH  14  15
ATOM     15  C   UNL d   1      30.651  17.239 -24.833  0.00  0.00     0.018 C 
ATOM     16  C   UNL d   1      30.149  16.597 -24.922  0.00  0.00     0.002 C 
ATOM     17  C   UNL d   1      30.371  17.940 -24.496  0.00  0.00     0.002 C 
ENDBRANCH  14  15
ENDBRANCH   2  14
TORSDOF 5
ENDMDL
MODEL 7
REMARK VINA RESULT:      -1.1      6.887      7.659
REMARK  5 active torsions:
REMARK  status: ('A' for Active; 'I' for Inactive)
REMARK    1  A    between atoms: N_7  and  C_1 
REMARK    2  A    between atoms: C_6  and  N_2 
REMARK    3  A    between atoms: C_11  and  C_6 
REMARK    4  A    between atoms: C_12  and  N_7 
REMARK    5  A    between atoms: C_13  and  C_12 
ROOT
ATOM      1  C   UNL d   1      29.241  16.059 -23.943  0.00  0.00     0.735 A 
ATOM      2  N   UNL d   1      29.791  16.492 -24.387  0.00  0.00    -0.138 N 
ATOM      3  N   UNL d   1      29.652  15.598 -23.388  0.00  0.00    -0.059 NA
ATOM      4  C   UNL d   1      30.546  16.301 -24.109  0.00  0.00     0.100 A 
ATOM      5  C   UNL d   1      30.455  15.748 -23.491  0.00  0.00     0.116 A 
ATOM      6  C   UNL d   1      31.300  16.552 -24.330  0.00  0.00     0.020 A 
ATOM      7  C   UNL d   1      31.128  15.456 -23.106  0.00  0.00     0.021 A 
ATOM      8  C   UNL d   1      31.963  16.258 -23.944  0.00  0.00     0.002 A 
ATOM      9  C   UNL d   1      31.880  15.707 -23.328  0.00  0.00     0.002 A 
ENDROOT
BRANCH   1  10
ATOM     10  N   UNL d   1      28.421  16.080 -24.034  0.00  0.00    -0.056 NA
BRANCH  10  11
ATOM     11  C   UNL d   1      27.946  15.499 -23.693  0.00  0.00     0.163 C 
BRANCH  11  12
ATOM     12  C   UNL d   1      27.143  15.455 -23.865  0.00  0.00     0.255 C 
ATOM     13  O   UNL d   1      26.587  15.454 -23.257  0.00  0.00    -0.281 OA
ENDBRANCH  11  12
ENDBRANCH  10  11
ENDBRANCH   1  10
BRANCH   2  14
ATOM     14  C   UNL d   1      29.616  17.017 -24.995  0.00  0.00     0.098 C 
BRANCH  14  15
ATOM     15  C   UNL d   1      29.546  17.829 -24.833  0.00  0.00     0.018 C 
ATOM     16  C   UNL d   1      28.894  18.116 -24.427  0.00  0.00     0.002 C 
ATOM     17  C   UNL d   1      30.139  18.348 -25.083  0.00  0.00     0.002 C 
ENDBRANCH  14  15
ENDBRANCH   2  14
TORSDOF 5
ENDMDL
MODEL 8
REMARK VINA RESULT:      -1.0      1.928      3.560
REMARK  5 active torsions:
REMARK  status: ('A' for Active; 'I' for Inactive)
REMARK    1  A    between atoms: N_7  and  C_1 
REMARK    2  A    between atoms: C_6  and  N_2 
REMARK    3  A    between atoms: C_11  and  C_6 
REMARK    4  A    between atoms: C_12  and  N_7 
REMARK    5  A    between atoms: C_13  and  C_12 
ROOT
ATOM      1  C   UNL d   1      33.063  22.536 -22.233  0.00  0.00     0.735 A 
ATOM      2  N   UNL d   1      32.715  22.013 -21.693  0.00  0.00    -0.138 N 
ATOM      3  N   UNL d   1      33.241  23.244 -21.839  0.00  0.00    -0.059 NA
ATOM      4  C   UNL d   1      32.676  22.395 -20.961  0.00  0.00     0.100 A 
ATOM      5  C   UNL d   1      33.003  23.156 -21.056  0.00  0.00     0.116 A 
ATOM      6  C   UNL d   1      32.390  22.157 -20.224  0.00  0.00     0.020 A 
ATOM      7  C   UNL d   1      33.036  23.667 -20.406  0.00  0.00     0.021 A 
ATOM      8  C   UNL d   1      32.427  22.670 -19.583  0.00  0.00     0.002 A 
ATOM      9  C   UNL d   1      32.750  23.429 -19.670  0.00  0.00     0.002 A 
ENDROOT
BRANCH   1  10
ATOM     10  N   UNL d   1      33.209  22.382 -23.032  0.00  0.00    -0.056 NA
BRANCH  10  11
ATOM     11  C   UNL d   1      33.209  22.993 -23.583  0.00  0.00     0.163 C 
BRANCH  11  12
ATOM     12  C   UNL d   1      33.108  22.839 -24.385  0.00  0.00     0.255 C 
ATOM     13  O   UNL d   1      32.431  23.097 -24.776  0.00  0.00    -0.281 OA
ENDBRANCH  11  12
ENDBRANCH  10  11
ENDBRANCH   1  10
BRANCH   2  14
ATOM     14  C   UNL d   1      32.455  21.249 -21.857  0.00  0.00     0.098 C 
BRANCH  14  15
ATOM     15  C   UNL d   1      32.971  20.606 -21.754  0.00  0.00     0.018 C 
ATOM     16  C   UNL d   1      33.216  20.164 -22.400  0.00  0.00     0.002 C 
ATOM     17  C   UNL d   1      33.237  20.413 -20.996  0.00  0.00     0.002 C 
ENDBRANCH  14  15
ENDBRANCH   2  14
TORSDOF 5
ENDMDL
MODEL 9
REMARK VINA RESULT:      -1.0      1.862      3.038
REMARK  5 active torsions:
REMARK  status: ('A' for Active; 'I' for Inactive)
REMARK    1  A    between atoms: N_7  and  C_1 
REMARK    2  A    between atoms: C_6  and  N_2 
REMARK    3  A    between atoms: C_11  and  C_6 
REMARK    4  A    between atoms: C_12  and  N_7 
REMARK    5  A    between atoms: C_13  and  C_12 
ROOT
ATOM      1  C   UNL d   1      32.673  21.430 -21.774  0.00  0.00     0.735 A 
ATOM      2  N   UNL d   1      32.865  22.232 -21.860  0.00  0.00    -0.138 N 
ATOM      3  N   UNL d   1      32.299  21.325 -21.040  0.00  0.00    -0.059 NA
ATOM      4  C   UNL d   1      32.610  22.627 -21.181  0.00  0.00     0.100 A 
ATOM      5  C   UNL d   1      32.261  22.062 -20.676  0.00  0.00     0.116 A 
ATOM      6  C   UNL d   1      32.647  23.419 -20.951  0.00  0.00     0.020 A 
ATOM      7  C   UNL d   1      31.954  22.305 -19.947  0.00  0.00     0.021 A 
ATOM      8  C   UNL d   1      32.340  23.653 -20.225  0.00  0.00     0.002 A 
ATOM      9  C   UNL d   1      31.991  23.096 -19.718  0.00  0.00     0.002 A 
ENDROOT
BRANCH   1  10
ATOM     10  N   UNL d   1      32.827  20.833 -22.323  0.00  0.00    -0.056 NA
BRANCH  10  11
ATOM     11  C   UNL d   1      32.940  20.055 -22.076  0.00  0.00     0.163 C 
BRANCH  11  12
ATOM     12  C   UNL d   1      33.139  19.466 -22.613  0.00  0.00     0.255 C 
ATOM     13  O   UNL d   1      32.861  18.698 -22.510  0.00  0.00    -0.281 OA
ENDBRANCH  11  12
ENDBRANCH  10  11
ENDBRANCH   1  10
BRANCH   2  14
ATOM     14  C   UNL d   1      33.241  22.572 -22.509  0.00  0.00     0.098 C 
BRANCH  14  15
ATOM     15  C   UNL d   1      32.789  22.910 -23.119  0.00  0.00     0.018 C 
ATOM     16  C   UNL d   1      32.549  23.692 -23.072  0.00  0.00     0.002 C 
ATOM     17  C   UNL d   1      32.582  22.452 -23.776  0.00  0.00     0.002 C 
ENDBRANCH  14  15
ENDBRANCH   2  14
TORSDOF 5
ENDMDL
