MODEL 1
REMARK VINA RESULT:      -5.5      0.000      0.000
REMARK  3 active torsions:
REMARK  status: ('A' for Active; 'I' for Inactive)
REMARK    1  A    between atoms: N_2  and  S_1 
REMARK    2  A    between atoms: C_3  and  S_1 
REMARK    3  A    between atoms: C_4  and  N_2 
ROOT
ATOM      1  S   UNL d   1      57.760   0.218  30.286  0.00  0.00     0.287 S 
ATOM      2  O   UNL d   1      58.038   0.299  29.509  0.00  0.00    -0.198 OA
ATOM      3  O   UNL d   1      57.105   0.682  30.097  0.00  0.00    -0.198 OA
ENDROOT
BRANCH   1   4
ATOM      4  N   UNL d   1      58.417  -0.245  30.468  0.00  0.00    -0.139 NA
BRANCH   4   5
ATOM      5  C   UNL d   1      58.908  -0.533  29.874  0.00  0.00     0.175 A 
ATOM      6  N   UNL d   1      58.797  -1.288  29.568  0.00  0.00    -0.226 NA
ATOM      7  C   UNL d   1      59.273  -1.536  29.007  0.00  0.00     0.083 A 
ATOM      8  C   UNL d   1      59.187  -2.295  28.677  0.00  0.00     0.021 C 
ATOM      9  C   UNL d   1      59.882  -1.062  28.715  0.00  0.00     0.019 A 
ATOM     10  C   UNL d   1      59.973  -0.372  29.004  0.00  0.00     0.005 A 
ATOM     11  C   UNL d   1      59.516  -0.059  29.582  0.00  0.00     0.040 A 
ENDBRANCH   4   5
ENDBRANCH   1   4
BRANCH   1  12
ATOM     12  C   UNL d   1      57.483   0.140  31.049  0.00  0.00     0.105 A 
ATOM     13  C   UNL d   1      56.975  -0.480  31.245  0.00  0.00     0.013 A 
ATOM     14  C   UNL d   1      56.696  -0.556  32.017  0.00  0.00     0.001 A 
ATOM     15  C   UNL d   1      56.192  -1.172  32.211  0.00  0.00     0.000 A 
ATOM     16  C   UNL d   1      56.925  -0.012  32.594  0.00  0.00     0.000 A 
ATOM     17  C   UNL d   1      55.909  -1.253  32.986  0.00  0.00     0.000 A 
ATOM     18  C   UNL d   1      56.141  -0.703  33.566  0.00  0.00     0.000 A 
ATOM     19  C   UNL d   1      56.646  -0.087  33.371  0.00  0.00     0.000 A 
ATOM     20  C   UNL d   1      57.432   0.608  32.399  0.00  0.00     0.001 A 
ATOM     21  C   UNL d   1      57.710   0.682  31.626  0.00  0.00     0.013 A 
ENDBRANCH   1  12
TORSDOF 3
ENDMDL
MODEL 2
REMARK VINA RESULT:      -5.3      1.159      1.573
REMARK  3 active torsions:
REMARK  status: ('A' for Active; 'I' for Inactive)
REMARK    1  A    between atoms: N_2  and  S_1 
REMARK    2  A    between atoms: C_3  and  S_1 
REMARK    3  A    between atoms: C_4  and  N_2 
ROOT
ATOM      1  S   UNL d   1      57.809   0.321  31.443  0.00  0.00     0.287 S 
ATOM      2  O   UNL d   1      58.434   0.637  31.000  0.00  0.00    -0.198 OA
ATOM      3  O   UNL d   1      58.138   0.640  32.129  0.00  0.00    -0.198 OA
ENDROOT
BRANCH   1   4
ATOM      4  N   UNL d   1      57.485   0.005  30.754  0.00  0.00    -0.139 NA
BRANCH   4   5
ATOM      5  C   UNL d   1      57.891   0.047  30.040  0.00  0.00     0.175 A 
ATOM      6  N   UNL d   1      58.442  -0.528  29.836  0.00  0.00    -0.226 NA
ATOM      7  C   UNL d   1      58.812  -0.465  29.157  0.00  0.00     0.083 A 
ATOM      8  C   UNL d   1      59.375  -1.031  28.922  0.00  0.00     0.021 C 
ATOM      9  C   UNL d   1      58.665   0.161  28.641  0.00  0.00     0.019 A 
ATOM     10  C   UNL d   1      58.159   0.682  28.839  0.00  0.00     0.005 A 
ATOM     11  C   UNL d   1      57.745   0.674  29.524  0.00  0.00     0.040 A 
ENDBRANCH   4   5
ENDBRANCH   1   4
BRANCH   1  12
ATOM     12  C   UNL d   1      57.196   0.012  31.884  0.00  0.00     0.105 A 
ATOM     13  C   UNL d   1      56.741   0.505  32.364  0.00  0.00     0.013 A 
ATOM     14  C   UNL d   1      56.121   0.190  32.808  0.00  0.00     0.001 A 
ATOM     15  C   UNL d   1      55.669   0.680  33.285  0.00  0.00     0.000 A 
ATOM     16  C   UNL d   1      55.956  -0.617  32.772  0.00  0.00     0.000 A 
ATOM     17  C   UNL d   1      55.046   0.369  33.733  0.00  0.00     0.000 A 
ATOM     18  C   UNL d   1      54.882  -0.446  33.695  0.00  0.00     0.000 A 
ATOM     19  C   UNL d   1      55.334  -0.936  33.217  0.00  0.00     0.000 A 
ATOM     20  C   UNL d   1      56.411  -1.110  32.292  0.00  0.00     0.001 A 
ATOM     21  C   UNL d   1      57.030  -0.793  31.849  0.00  0.00     0.013 A 
ENDBRANCH   1  12
TORSDOF 3
ENDMDL
MODEL 3
REMARK VINA RESULT:      -5.1      0.736      3.947
REMARK  3 active torsions:
REMARK  status: ('A' for Active; 'I' for Inactive)
REMARK    1  A    between atoms: N_2  and  S_1 
REMARK    2  A    between atoms: C_3  and  S_1 
REMARK    3  A    between atoms: C_4  and  N_2 
ROOT
ATOM      1  S   UNL d   1      57.752   0.263  30.160  0.00  0.00     0.287 S 
ATOM      2  O   UNL d   1      57.027   0.554  30.437  0.00  0.00    -0.198 OA
ATOM      3  O   UNL d   1      57.600   0.598  29.421  0.00  0.00    -0.198 OA
ENDROOT
BRANCH   1   4
ATOM      4  N   UNL d   1      57.897  -0.069  30.900  0.00  0.00    -0.139 NA
BRANCH   4   5
ATOM      5  C   UNL d   1      57.329  -0.040  31.494  0.00  0.00     0.175 A 
ATOM      6  N   UNL d   1      56.940  -0.722  31.736  0.00  0.00    -0.226 NA
ATOM      7  C   UNL d   1      56.407  -0.668  32.298  0.00  0.00     0.083 A 
ATOM      8  C   UNL d   1      55.997  -1.341  32.565  0.00  0.00     0.021 C 
ATOM      9  C   UNL d   1      56.225   0.053  32.653  0.00  0.00     0.019 A 
ATOM     10  C   UNL d   1      56.588   0.671  32.422  0.00  0.00     0.005 A 
ATOM     11  C   UNL d   1      57.146   0.682  31.849  0.00  0.00     0.040 A 
ENDBRANCH   4   5
ENDBRANCH   1   4
BRANCH   1  12
ATOM     12  C   UNL d   1      58.464  -0.021  29.882  0.00  0.00     0.105 A 
ATOM     13  C   UNL d   1      58.501  -0.757  29.511  0.00  0.00     0.013 A 
ATOM     14  C   UNL d   1      59.222  -1.042  29.232  0.00  0.00     0.001 A 
ATOM     15  C   UNL d   1      59.259  -1.773  28.863  0.00  0.00     0.000 A 
ATOM     16  C   UNL d   1      59.908  -0.592  29.323  0.00  0.00     0.000 A 
ATOM     17  C   UNL d   1      59.981  -2.063  28.580  0.00  0.00     0.000 A 
ATOM     18  C   UNL d   1      60.671  -1.608  28.674  0.00  0.00     0.000 A 
ATOM     19  C   UNL d   1      60.634  -0.876  29.043  0.00  0.00     0.000 A 
ATOM     20  C   UNL d   1      59.871   0.144  29.695  0.00  0.00     0.001 A 
ATOM     21  C   UNL d   1      59.149   0.427  29.973  0.00  0.00     0.013 A 
ENDBRANCH   1  12
TORSDOF 3
ENDMDL
MODEL 4
REMARK VINA RESULT:      -4.7      1.077      4.067
REMARK  3 active torsions:
REMARK  status: ('A' for Active; 'I' for Inactive)
REMARK    1  A    between atoms: N_2  and  S_1 
REMARK    2  A    between atoms: C_3  and  S_1 
REMARK    3  A    between atoms: C_4  and  N_2 
ROOT
ATOM      1  S   UNL d   1      57.215   0.344  31.036  0.00  0.00     0.287 S 
ATOM      2  O   UNL d   1      56.431   0.423  31.294  0.00  0.00    -0.198 OA
ATOM      3  O   UNL d   1      57.008   0.681  30.312  0.00  0.00    -0.198 OA
ENDROOT
BRANCH   1   4
ATOM      4  N   UNL d   1      57.415   0.007  31.761  0.00  0.00    -0.139 NA
BRANCH   4   5
ATOM      5  C   UNL d   1      56.832  -0.240  32.287  0.00  0.00     0.175 A 
ATOM      6  N   UNL d   1      56.578   0.254  32.893  0.00  0.00    -0.226 NA
ATOM      7  C   UNL d   1      56.027  -0.002  33.376  0.00  0.00     0.083 A 
ATOM      8  C   UNL d   1      55.749   0.474  33.999  0.00  0.00     0.021 C 
ATOM      9  C   UNL d   1      55.693  -0.752  33.293  0.00  0.00     0.019 A 
ATOM     10  C   UNL d   1      55.935  -1.195  32.733  0.00  0.00     0.005 A 
ATOM     11  C   UNL d   1      56.499  -0.990  32.204  0.00  0.00     0.040 A 
ENDBRANCH   4   5
ENDBRANCH   1   4
BRANCH   1  12
ATOM     12  C   UNL d   1      57.985   0.267  30.778  0.00  0.00     0.105 A 
ATOM     13  C   UNL d   1      58.161  -0.223  30.138  0.00  0.00     0.013 A 
ATOM     14  C   UNL d   1      58.940  -0.298  29.880  0.00  0.00     0.001 A 
ATOM     15  C   UNL d   1      59.116  -0.785  29.244  0.00  0.00     0.000 A 
ATOM     16  C   UNL d   1      59.544   0.117  30.260  0.00  0.00     0.000 A 
ATOM     17  C   UNL d   1      59.897  -0.864  28.980  0.00  0.00     0.000 A 
ATOM     18  C   UNL d   1      60.503  -0.444  29.366  0.00  0.00     0.000 A 
ATOM     19  C   UNL d   1      60.328   0.043  30.001  0.00  0.00     0.000 A 
ATOM     20  C   UNL d   1      59.367   0.607  30.899  0.00  0.00     0.001 A 
ATOM     21  C   UNL d   1      58.588   0.681  31.156  0.00  0.00     0.013 A 
ENDBRANCH   1  12
TORSDOF 3
ENDMDL
MODEL 5
REMARK VINA RESULT:      -3.9      2.326      4.852
REMARK  3 active torsions:
REMARK  status: ('A' for Active; 'I' for Inactive)
REMARK    1  A    between atoms: N_2  and  S_1 
REMARK    2  A    between atoms: C_3  and  S_1 
REMARK    3  A    between atoms: C_4  and  N_2 
ROOT
ATOM      1  S   UNL d   1      56.060  -0.479  32.916  0.00  0.00     0.287 S 
ATOM      2  O   UNL d   1      55.420  -0.774  33.352  0.00  0.00    -0.198 OA
ATOM      3  O   UNL d   1      56.266  -1.249  32.703  0.00  0.00    -0.198 OA
ENDROOT
BRANCH   1   4
ATOM      4  N   UNL d   1      55.848   0.288  33.132  0.00  0.00    -0.139 NA
BRANCH   4   5
ATOM      5  C   UNL d   1      55.339   0.421  33.764  0.00  0.00     0.175 A 
ATOM      6  N   UNL d   1      55.629   0.486  34.530  0.00  0.00    -0.226 NA
ATOM      7  C   UNL d   1      55.128   0.612  35.109  0.00  0.00     0.083 A 
ATOM      8  C   UNL d   1      55.391   0.682  35.896  0.00  0.00     0.021 C 
ATOM      9  C   UNL d   1      54.318   0.682  34.972  0.00  0.00     0.019 A 
ATOM     10  C   UNL d   1      54.064   0.621  34.266  0.00  0.00     0.005 A 
ATOM     11  C   UNL d   1      54.528   0.491  33.627  0.00  0.00     0.040 A 
ENDBRANCH   4   5
ENDBRANCH   1   4
BRANCH   1  12
ATOM     12  C   UNL d   1      56.690  -0.193  32.485  0.00  0.00     0.105 A 
ATOM     13  C   UNL d   1      56.750  -0.356  31.678  0.00  0.00     0.013 A 
ATOM     14  C   UNL d   1      57.388  -0.065  31.245  0.00  0.00     0.001 A 
ATOM     15  C   UNL d   1      57.447  -0.228  30.443  0.00  0.00     0.000 A 
ATOM     16  C   UNL d   1      57.968   0.389  31.617  0.00  0.00     0.000 A 
ATOM     17  C   UNL d   1      58.087   0.062  30.004  0.00  0.00     0.000 A 
ATOM     18  C   UNL d   1      58.669   0.520  30.382  0.00  0.00     0.000 A 
ATOM     19  C   UNL d   1      58.610   0.682  31.184  0.00  0.00     0.000 A 
ATOM     20  C   UNL d   1      57.908   0.552  32.424  0.00  0.00     0.001 A 
ATOM     21  C   UNL d   1      57.269   0.260  32.855  0.00  0.00     0.013 A 
ENDBRANCH   1  12
TORSDOF 3
ENDMDL
