MODEL 1
REMARK VINA RESULT:      41.8      0.000      0.000
REMARK  3 active torsions:
REMARK  status: ('A' for Active; 'I' for Inactive)
REMARK    1  A    between atoms: C_2  and  C_4 
REMARK    2  A    between atoms: N_3  and  C_2 
REMARK    3  A    between atoms: C_5  and  N_3 
ROOT
ATOM      1  N   UNL d   1      59.726  49.275  51.767  0.00  0.00    -0.243 NA
ATOM      2  C   UNL d   1      59.414  49.080  51.016  0.00  0.00     0.109 A 
ATOM      3  C   UNL d   1      60.536  49.396  51.857  0.00  0.00     0.081 A 
ATOM      4  C   UNL d   1      59.919  49.009  50.368  0.00  0.00     0.021 A 
ATOM      5  C   UNL d   1      61.041  49.323  51.199  0.00  0.00     0.018 A 
ATOM      6  C   UNL d   1      60.733  49.130  50.456  0.00  0.00     0.003 A 
ATOM      7  C   UNL d   1      60.850  49.589  52.593  0.00  0.00     0.019 A 
ATOM      8  C   UNL d   1      61.849  49.444  51.291  0.00  0.00     0.002 A 
ATOM      9  C   UNL d   1      61.654  49.708  52.677  0.00  0.00     0.002 A 
ATOM     10  C   UNL d   1      62.154  49.635  52.027  0.00  0.00     0.000 A 
ENDROOT
BRANCH   2  11
ATOM     11  C   UNL d   1      58.600  48.959  50.928  0.00  0.00     0.153 C 
ATOM     12  S   UNL d   1      58.298  48.191  50.871  0.00  0.00    -0.056 SA
BRANCH  11  13
ATOM     13  N   UNL d   1      58.091  49.607  50.896  0.00  0.00    -0.233 NA
BRANCH  13  14
ATOM     14  C   UNL d   1      57.503  49.640  50.319  0.00  0.00     0.082 A 
ATOM     15  C   UNL d   1      56.703  49.645  50.542  0.00  0.00     0.018 A 
ATOM     16  C   UNL d   1      56.497  49.616  51.336  0.00  0.00     0.002 C 
ATOM     17  C   UNL d   1      56.121  49.678  49.959  0.00  0.00     0.002 A 
ATOM     18  C   UNL d   1      56.326  49.707  49.160  0.00  0.00     0.000 A 
ATOM     19  C   UNL d   1      57.124  49.703  48.942  0.00  0.00     0.002 A 
ATOM     20  C   UNL d   1      57.713  49.669  49.523  0.00  0.00     0.019 A 
ENDBRANCH  13  14
ENDBRANCH  11  13
ENDBRANCH   2  11
TORSDOF 3
ENDMDL
MODEL 2
REMARK VINA RESULT:      44.5      0.717      4.352
REMARK  3 active torsions:
REMARK  status: ('A' for Active; 'I' for Inactive)
REMARK    1  A    between atoms: C_2  and  C_4 
REMARK    2  A    between atoms: N_3  and  C_2 
REMARK    3  A    between atoms: C_5  and  N_3 
ROOT
ATOM      1  N   UNL d   1      58.495  49.241  49.859  0.00  0.00    -0.243 NA
ATOM      2  C   UNL d   1      58.794  49.320  50.635  0.00  0.00     0.109 A 
ATOM      3  C   UNL d   1      57.684  49.302  49.723  0.00  0.00     0.081 A 
ATOM      4  C   UNL d   1      58.278  49.460  51.263  0.00  0.00     0.021 A 
ATOM      5  C   UNL d   1      57.167  49.443  50.360  0.00  0.00     0.018 A 
ATOM      6  C   UNL d   1      57.463  49.522  51.128  0.00  0.00     0.003 A 
ATOM      7  C   UNL d   1      57.382  49.225  48.961  0.00  0.00     0.019 A 
ATOM      8  C   UNL d   1      56.359  49.504  50.222  0.00  0.00     0.002 A 
ATOM      9  C   UNL d   1      56.577  49.287  48.832  0.00  0.00     0.002 A 
ATOM     10  C   UNL d   1      56.066  49.426  49.461  0.00  0.00     0.000 A 
ENDROOT
BRANCH   2  11
ATOM     11  C   UNL d   1      59.609  49.258  50.770  0.00  0.00     0.153 C 
ATOM     12  S   UNL d   1      60.132  49.209  50.132  0.00  0.00    -0.056 SA
BRANCH  11  13
ATOM     13  N   UNL d   1      59.896  49.245  51.542  0.00  0.00    -0.233 NA
BRANCH  13  14
ATOM     14  C   UNL d   1      60.694  49.397  51.687  0.00  0.00     0.082 A 
ATOM     15  C   UNL d   1      60.957  49.523  52.465  0.00  0.00     0.018 A 
ATOM     16  C   UNL d   1      60.424  49.497  53.089  0.00  0.00     0.002 C 
ATOM     17  C   UNL d   1      61.756  49.675  52.602  0.00  0.00     0.002 A 
ATOM     18  C   UNL d   1      62.293  49.702  51.976  0.00  0.00     0.000 A 
ATOM     19  C   UNL d   1      62.027  49.575  51.203  0.00  0.00     0.002 A 
ATOM     20  C   UNL d   1      61.226  49.423  51.059  0.00  0.00     0.019 A 
ENDBRANCH  13  14
ENDBRANCH  11  13
ENDBRANCH   2  11
TORSDOF 3
ENDMDL
