MODEL 1
REMARK VINA RESULT:      39.0      0.000      0.000
REMARK  3 active torsions:
REMARK  status: ('A' for Active; 'I' for Inactive)
REMARK    1  A    between atoms: C_9  and  C_5 
REMARK    2  A    between atoms: C_10  and  C_6 
REMARK    3  A    between atoms: O_16  and  C_13 
ROOT
ATOM      1  N   UNL d   1     -51.546  24.538  33.433  0.00  0.00    -0.205 N 
ATOM      2  C   UNL d   1     -50.760  24.301  33.338  0.00  0.00     0.197 A 
ATOM      3  N   UNL d   1     -50.289  24.983  33.306  0.00  0.00    -0.200 NA
ATOM      4  N   UNL d   1     -51.561  25.362  33.461  0.00  0.00    -0.144 NA
ATOM      5  C   UNL d   1     -50.790  25.637  33.383  0.00  0.00     0.184 A 
ATOM      6  C   UNL d   1     -52.022  23.859  33.465  0.00  0.00     0.092 A 
ATOM      7  S   UNL d   1     -50.750  23.468  33.310  0.00  0.00    -0.046 SA
ATOM      8  C   UNL d   1     -51.533  23.200  33.390  0.00  0.00     0.058 A 
ENDROOT
BRANCH   5   9
ATOM      9  C   UNL d   1     -50.551  26.419  33.380  0.00  0.00     0.038 A 
ATOM     10  C   UNL d   1     -49.753  26.607  33.364  0.00  0.00     0.005 A 
ATOM     11  C   UNL d   1     -49.510  27.396  33.361  0.00  0.00     0.024 A 
ATOM     12  C   UNL d   1     -50.067  27.995  33.376  0.00  0.00     0.094 A 
ATOM     13  C   UNL d   1     -50.878  27.813  33.393  0.00  0.00     0.024 A 
ATOM     14  C   UNL d   1     -51.115  27.024  33.395  0.00  0.00     0.005 A 
BRANCH  12  15
ATOM     15  O   UNL d   1     -49.824  28.786  33.374  0.00  0.00    -0.328 OA
ATOM     16  C   UNL d   1     -49.318  29.063  33.971  0.00  0.00     0.181 C 
ENDBRANCH  12  15
ENDBRANCH   5   9
BRANCH   6  17
ATOM     17  C   UNL d   1     -52.846  23.853  33.557  0.00  0.00     0.018 A 
ATOM     18  C   UNL d   1     -53.301  24.493  33.308  0.00  0.00     0.002 A 
ATOM     19  C   UNL d   1     -54.119  24.484  33.401  0.00  0.00     0.000 A 
ATOM     20  C   UNL d   1     -54.493  23.827  33.749  0.00  0.00     0.000 A 
ATOM     21  C   UNL d   1     -54.039  23.188  33.998  0.00  0.00     0.000 A 
ATOM     22  C   UNL d   1     -53.219  23.193  33.907  0.00  0.00     0.002 A 
ENDBRANCH   6  17
TORSDOF 3
ENDMDL
MODEL 2
REMARK VINA RESULT:      40.6      0.549      1.025
REMARK  3 active torsions:
REMARK  status: ('A' for Active; 'I' for Inactive)
REMARK    1  A    between atoms: C_9  and  C_5 
REMARK    2  A    between atoms: C_10  and  C_6 
REMARK    3  A    between atoms: O_16  and  C_13 
ROOT
ATOM      1  N   UNL d   1     -51.195  24.908  33.353  0.00  0.00    -0.205 N 
ATOM      2  C   UNL d   1     -50.381  24.775  33.325  0.00  0.00     0.197 A 
ATOM      3  N   UNL d   1     -50.001  25.513  33.318  0.00  0.00    -0.200 NA
ATOM      4  N   UNL d   1     -51.320  25.724  33.364  0.00  0.00    -0.144 NA
ATOM      5  C   UNL d   1     -50.586  26.096  33.343  0.00  0.00     0.184 A 
ATOM      6  C   UNL d   1     -51.581  24.174  33.360  0.00  0.00     0.092 A 
ATOM      7  S   UNL d   1     -50.261  23.951  33.314  0.00  0.00    -0.046 SA
ATOM      8  C   UNL d   1     -51.007  23.584  33.336  0.00  0.00     0.058 A 
ENDROOT
BRANCH   5   9
ATOM      9  C   UNL d   1     -50.452  26.903  33.345  0.00  0.00     0.038 A 
ATOM     10  C   UNL d   1     -51.083  27.426  33.311  0.00  0.00     0.005 A 
ATOM     11  C   UNL d   1     -50.950  28.241  33.314  0.00  0.00     0.024 A 
ATOM     12  C   UNL d   1     -50.185  28.530  33.350  0.00  0.00     0.094 A 
ATOM     13  C   UNL d   1     -49.541  28.006  33.384  0.00  0.00     0.024 A 
ATOM     14  C   UNL d   1     -49.679  27.194  33.382  0.00  0.00     0.005 A 
BRANCH  12  15
ATOM     15  O   UNL d   1     -50.051  29.346  33.352  0.00  0.00    -0.328 OA
ATOM     16  C   UNL d   1     -49.896  29.736  34.069  0.00  0.00     0.181 C 
ENDBRANCH  12  15
ENDBRANCH   5   9
BRANCH   6  17
ATOM     17  C   UNL d   1     -52.402  24.061  33.386  0.00  0.00     0.018 A 
ATOM     18  C   UNL d   1     -52.720  23.304  33.451  0.00  0.00     0.002 A 
ATOM     19  C   UNL d   1     -53.537  23.196  33.477  0.00  0.00     0.000 A 
ATOM     20  C   UNL d   1     -54.046  23.852  33.439  0.00  0.00     0.000 A 
ATOM     21  C   UNL d   1     -53.729  24.609  33.374  0.00  0.00     0.000 A 
ATOM     22  C   UNL d   1     -52.912  24.721  33.347  0.00  0.00     0.002 A 
ENDBRANCH   6  17
TORSDOF 3
ENDMDL
