MODEL 1
REMARK VINA RESULT:     -10.5      0.000      0.000
REMARK  4 active torsions:
REMARK  status: ('A' for Active; 'I' for Inactive)
REMARK    1  A    between atoms: S_2  and  N_1 
REMARK    2  A    between atoms: C_10  and  S_2 
REMARK    3  A    between atoms: C_7  and  C_4 
REMARK    4  A    between atoms: C_11  and  C_5 
ROOT
ATOM      1  N   UNL d   1      52.683  32.465  53.230  0.00  0.00    -0.152 N 
ATOM      2  N   UNL d   1      51.943  32.642  52.872  0.00  0.00    -0.155 NA
ATOM      3  C   UNL d   1      53.003  33.172  53.525  0.00  0.00     0.099 A 
ATOM      4  C   UNL d   1      51.798  33.458  52.941  0.00  0.00     0.104 A 
ATOM      5  C   UNL d   1      52.449  33.788  53.343  0.00  0.00     0.041 A 
ENDROOT
BRANCH   1   6
ATOM      6  S   UNL d   1      53.035  31.738  53.286  0.00  0.00     0.286 S 
ATOM      7  O   UNL d   1      53.702  31.972  52.702  0.00  0.00    -0.198 OA
ATOM      8  O   UNL d   1      52.436  31.505  53.820  0.00  0.00    -0.198 OA
BRANCH   6   9
ATOM      9  C   UNL d   1      53.194  30.962  53.503  0.00  0.00     0.105 A 
ATOM     10  C   UNL d   1      52.869  30.652  54.195  0.00  0.00     0.013 A 
ATOM     11  C   UNL d   1      53.029  29.871  54.413  0.00  0.00     0.001 A 
ATOM     12  C   UNL d   1      53.510  29.425  53.932  0.00  0.00     0.000 A 
ATOM     13  C   UNL d   1      53.840  29.711  53.245  0.00  0.00     0.001 A 
ATOM     14  C   UNL d   1      53.680  30.492  53.027  0.00  0.00     0.013 A 
ENDBRANCH   6   9
ENDBRANCH   1   6
BRANCH   3  15
ATOM     15  C   UNL d   1      53.722  33.266  53.920  0.00  0.00     0.058 A 
ATOM     16  C   UNL d   1      53.706  33.503  54.698  0.00  0.00     0.197 A 
ATOM     17  O   UNL d   1      53.020  33.653  55.105  0.00  0.00    -0.286 OA
ATOM     18  C   UNL d   1      54.449  33.600  55.106  0.00  0.00     0.042 A 
ATOM     19  C   UNL d   1      55.160  33.453  54.710  0.00  0.00     0.003 A 
ATOM     20  C   UNL d   1      55.117  33.215  53.926  0.00  0.00     0.000 A 
ATOM     21  C   UNL d   1      54.421  33.125  53.543  0.00  0.00     0.005 A 
ENDBRANCH   3  15
BRANCH   4  22
ATOM     22  C   UNL d   1      51.143  33.841  52.665  0.00  0.00     0.019 A 
ATOM     23  C   UNL d   1      50.532  34.039  53.188  0.00  0.00     0.002 A 
ATOM     24  C   UNL d   1      49.874  34.425  52.912  0.00  0.00     0.000 A 
ATOM     25  C   UNL d   1      49.821  34.608  52.147  0.00  0.00     0.000 A 
ATOM     26  C   UNL d   1      50.397  34.429  51.616  0.00  0.00     0.000 A 
ATOM     27  C   UNL d   1      49.142  34.999  51.887  0.00  0.00     0.000 C 
ATOM     28  C   UNL d   1      51.078  34.036  51.876  0.00  0.00     0.002 A 
ENDBRANCH   4  22
TORSDOF 4
ENDMDL
MODEL 2
REMARK VINA RESULT:      -9.7      0.750      2.547
REMARK  4 active torsions:
REMARK  status: ('A' for Active; 'I' for Inactive)
REMARK    1  A    between atoms: S_2  and  N_1 
REMARK    2  A    between atoms: C_10  and  S_2 
REMARK    3  A    between atoms: C_7  and  C_4 
REMARK    4  A    between atoms: C_11  and  C_5 
ROOT
ATOM      1  N   UNL d   1      52.909  33.084  53.476  0.00  0.00    -0.152 N 
ATOM      2  N   UNL d   1      52.382  33.696  53.241  0.00  0.00    -0.155 NA
ATOM      3  C   UNL d   1      52.537  32.355  53.334  0.00  0.00     0.099 A 
ATOM      4  C   UNL d   1      51.682  33.354  52.953  0.00  0.00     0.104 A 
ATOM      5  C   UNL d   1      51.773  32.528  53.008  0.00  0.00     0.041 A 
ENDROOT
BRANCH   1   6
ATOM      6  S   UNL d   1      53.651  33.172  53.788  0.00  0.00     0.286 S 
ATOM      7  O   UNL d   1      54.050  32.817  53.043  0.00  0.00    -0.198 OA
ATOM      8  O   UNL d   1      53.307  33.499  54.476  0.00  0.00    -0.198 OA
BRANCH   6   9
ATOM      9  C   UNL d   1      54.266  33.358  54.299  0.00  0.00     0.105 A 
ATOM     10  C   UNL d   1      54.114  33.473  55.103  0.00  0.00     0.013 A 
ATOM     11  C   UNL d   1      54.733  33.659  55.617  0.00  0.00     0.001 A 
ATOM     12  C   UNL d   1      55.485  33.725  55.313  0.00  0.00     0.000 A 
ATOM     13  C   UNL d   1      55.656  33.615  54.524  0.00  0.00     0.001 A 
ATOM     14  C   UNL d   1      55.037  33.429  54.010  0.00  0.00     0.013 A 
ENDBRANCH   6   9
ENDBRANCH   1   6
BRANCH   3  15
ATOM     15  C   UNL d   1      52.845  31.603  53.479  0.00  0.00     0.058 A 
ATOM     16  C   UNL d   1      52.991  31.117  52.844  0.00  0.00     0.197 A 
ATOM     17  O   UNL d   1      52.849  31.334  52.074  0.00  0.00    -0.286 OA
ATOM     18  C   UNL d   1      53.309  30.340  52.994  0.00  0.00     0.042 A 
ATOM     19  C   UNL d   1      53.461  30.098  53.770  0.00  0.00     0.003 A 
ATOM     20  C   UNL d   1      53.294  30.630  54.373  0.00  0.00     0.000 A 
ATOM     21  C   UNL d   1      52.996  31.358  54.232  0.00  0.00     0.005 A 
ENDBRANCH   3  15
BRANCH   4  22
ATOM     22  C   UNL d   1      51.043  33.762  52.675  0.00  0.00     0.019 A 
ATOM     23  C   UNL d   1      50.425  33.959  53.191  0.00  0.00     0.002 A 
ATOM     24  C   UNL d   1      49.782  34.368  52.913  0.00  0.00     0.000 A 
ATOM     25  C   UNL d   1      49.751  34.576  52.153  0.00  0.00     0.000 A 
ATOM     26  C   UNL d   1      50.334  34.400  51.628  0.00  0.00     0.000 A 
ATOM     27  C   UNL d   1      49.088  34.993  51.891  0.00  0.00     0.000 C 
ATOM     28  C   UNL d   1      50.999  33.983  51.891  0.00  0.00     0.002 A 
ENDBRANCH   4  22
TORSDOF 4
ENDMDL
MODEL 3
REMARK VINA RESULT:      -8.8      1.245      4.008
REMARK  4 active torsions:
REMARK  status: ('A' for Active; 'I' for Inactive)
REMARK    1  A    between atoms: S_2  and  N_1 
REMARK    2  A    between atoms: C_10  and  S_2 
REMARK    3  A    between atoms: C_7  and  C_4 
REMARK    4  A    between atoms: C_11  and  C_5 
ROOT
ATOM      1  N   UNL d   1      52.051  33.169  53.042  0.00  0.00    -0.152 N 
ATOM      2  N   UNL d   1      52.072  32.330  52.976  0.00  0.00    -0.155 NA
ATOM      3  C   UNL d   1      52.709  33.409  53.488  0.00  0.00     0.099 A 
ATOM      4  C   UNL d   1      52.740  32.045  53.379  0.00  0.00     0.104 A 
ATOM      5  C   UNL d   1      53.136  32.705  53.696  0.00  0.00     0.041 A 
ENDROOT
BRANCH   1   6
ATOM      6  S   UNL d   1      51.494  33.668  52.732  0.00  0.00     0.286 S 
ATOM      7  O   UNL d   1      52.089  34.023  52.132  0.00  0.00    -0.198 OA
ATOM      8  O   UNL d   1      50.936  33.357  53.271  0.00  0.00    -0.198 OA
BRANCH   6   9
ATOM      9  C   UNL d   1      50.784  34.058  52.595  0.00  0.00     0.105 A 
ATOM     10  C   UNL d   1      50.298  34.265  53.229  0.00  0.00     0.013 A 
ATOM     11  C   UNL d   1      49.584  34.657  53.092  0.00  0.00     0.001 A 
ATOM     12  C   UNL d   1      49.378  34.829  52.324  0.00  0.00     0.000 A 
ATOM     13  C   UNL d   1      49.843  34.633  51.684  0.00  0.00     0.001 A 
ATOM     14  C   UNL d   1      50.557  34.242  51.822  0.00  0.00     0.013 A 
ENDBRANCH   6   9
ENDBRANCH   1   6
BRANCH   3  15
ATOM     15  C   UNL d   1      52.915  34.181  53.694  0.00  0.00     0.058 A 
ATOM     16  C   UNL d   1      52.935  34.377  54.483  0.00  0.00     0.197 A 
ATOM     17  O   UNL d   1      52.764  33.852  55.078  0.00  0.00    -0.286 OA
ATOM     18  C   UNL d   1      53.148  35.176  54.696  0.00  0.00     0.042 A 
ATOM     19  C   UNL d   1      53.327  35.727  54.106  0.00  0.00     0.003 A 
ATOM     20  C   UNL d   1      53.290  35.474  53.326  0.00  0.00     0.000 A 
ATOM     21  C   UNL d   1      53.091  34.726  53.126  0.00  0.00     0.005 A 
ENDBRANCH   3  15
BRANCH   4  22
ATOM     22  C   UNL d   1      52.952  31.267  53.441  0.00  0.00     0.019 A 
ATOM     23  C   UNL d   1      52.399  30.676  53.263  0.00  0.00     0.002 A 
ATOM     24  C   UNL d   1      52.610  29.895  53.325  0.00  0.00     0.000 A 
ATOM     25  C   UNL d   1      53.340  29.705  53.554  0.00  0.00     0.000 A 
ATOM     26  C   UNL d   1      53.898  30.255  53.732  0.00  0.00     0.000 A 
ATOM     27  C   UNL d   1      53.533  28.905  53.610  0.00  0.00     0.000 C 
ATOM     28  C   UNL d   1      53.704  31.059  53.676  0.00  0.00     0.002 A 
ENDBRANCH   4  22
TORSDOF 4
ENDMDL
MODEL 4
REMARK VINA RESULT:      -8.5      1.328      4.343
REMARK  4 active torsions:
REMARK  status: ('A' for Active; 'I' for Inactive)
REMARK    1  A    between atoms: S_2  and  N_1 
REMARK    2  A    between atoms: C_10  and  S_2 
REMARK    3  A    between atoms: C_7  and  C_4 
REMARK    4  A    between atoms: C_11  and  C_5 
ROOT
ATOM      1  N   UNL d   1      52.743  33.158  53.499  0.00  0.00    -0.152 N 
ATOM      2  N   UNL d   1      53.145  32.456  53.730  0.00  0.00    -0.155 NA
ATOM      3  C   UNL d   1      52.070  32.939  53.065  0.00  0.00     0.099 A 
ATOM      4  C   UNL d   1      52.726  31.798  53.443  0.00  0.00     0.104 A 
ATOM      5  C   UNL d   1      52.063  32.090  53.033  0.00  0.00     0.041 A 
ENDROOT
BRANCH   1   6
ATOM      6  S   UNL d   1      52.961  33.920  53.663  0.00  0.00     0.286 S 
ATOM      7  O   UNL d   1      53.224  34.073  52.798  0.00  0.00    -0.198 OA
ATOM      8  O   UNL d   1      52.727  33.802  54.456  0.00  0.00    -0.198 OA
BRANCH   6   9
ATOM      9  C   UNL d   1      53.101  34.623  54.063  0.00  0.00     0.105 A 
ATOM     10  C   UNL d   1      52.951  34.674  54.873  0.00  0.00     0.013 A 
ATOM     11  C   UNL d   1      53.092  35.382  55.276  0.00  0.00     0.001 A 
ATOM     12  C   UNL d   1      53.379  36.017  54.856  0.00  0.00     0.000 A 
ATOM     13  C   UNL d   1      53.534  35.987  54.057  0.00  0.00     0.001 A 
ATOM     14  C   UNL d   1      53.393  35.280  53.654  0.00  0.00     0.013 A 
ENDBRANCH   6   9
ENDBRANCH   1   6
BRANCH   3  15
ATOM     15  C   UNL d   1      51.511  33.443  52.728  0.00  0.00     0.058 A 
ATOM     16  C   UNL d   1      50.769  33.474  53.061  0.00  0.00     0.197 A 
ATOM     17  O   UNL d   1      50.552  33.035  53.709  0.00  0.00    -0.286 OA
ATOM     18  C   UNL d   1      50.191  33.996  52.712  0.00  0.00     0.042 A 
ATOM     19  C   UNL d   1      50.391  34.452  52.052  0.00  0.00     0.003 A 
ATOM     20  C   UNL d   1      51.153  34.380  51.757  0.00  0.00     0.000 A 
ATOM     21  C   UNL d   1      51.695  33.892  52.084  0.00  0.00     0.005 A 
ENDBRANCH   3  15
BRANCH   4  22
ATOM     22  C   UNL d   1      52.937  31.026  53.551  0.00  0.00     0.019 A 
ATOM     23  C   UNL d   1      53.315  30.798  54.253  0.00  0.00     0.002 A 
ATOM     24  C   UNL d   1      53.528  30.023  54.362  0.00  0.00     0.000 A 
ATOM     25  C   UNL d   1      53.373  29.492  53.800  0.00  0.00     0.000 A 
ATOM     26  C   UNL d   1      53.008  29.682  53.110  0.00  0.00     0.000 A 
ATOM     27  C   UNL d   1      53.598  28.709  53.933  0.00  0.00     0.000 C 
ATOM     28  C   UNL d   1      52.782  30.468  52.977  0.00  0.00     0.002 A 
ENDBRANCH   4  22
TORSDOF 4
ENDMDL
