MODEL 1
REMARK VINA RESULT:      -1.2      0.000      0.000
REMARK  5 active torsions:
REMARK  status: ('A' for Active; 'I' for Inactive)
REMARK    1  A    between atoms: C_11  and  C_5 
REMARK    2  A    between atoms: C_25  and  N_6 
REMARK    3  A    between atoms: N_14  and  C_27 
REMARK    4  A    between atoms: C_26  and  C_25 
REMARK    5  A    between atoms: C_27  and  C_26 
ROOT
ATOM      1  C   UNL d   1      32.927  21.020 -21.551  0.00  0.00     0.082 A 
ATOM      2  C   UNL d   1      32.890  20.753 -22.333  0.00  0.00     0.267 A 
ATOM      3  C   UNL d   1      33.067  20.490 -20.931  0.00  0.00     0.108 A 
ATOM      4  C   UNL d   1      32.859  22.101 -20.607  0.00  0.00     0.113 A 
ATOM      5  C   UNL d   1      32.821  21.833 -21.394  0.00  0.00     0.043 A 
ATOM      6  N   UNL d   1      32.996  19.946 -22.484  0.00  0.00    -0.273 N 
ATOM      7  C   UNL d   1      32.998  21.570 -19.992  0.00  0.00     0.213 A 
ATOM      8  O   UNL d   1      33.103  20.762 -20.155  0.00  0.00    -0.287 OA
ATOM      9  C   UNL d   1      33.171  19.692 -21.092  0.00  0.00     0.043 A 
ATOM     10  C   UNL d   1      33.136  19.416 -21.864  0.00  0.00     0.069 A 
ATOM     11  C   UNL d   1      32.755  22.902 -20.449  0.00  0.00     0.105 C 
ATOM     12  N   UNL d   1      32.651  23.702 -20.292  0.00  0.00    -0.191 NA
ATOM     13  O   UNL d   1      32.750  21.284 -22.954  0.00  0.00    -0.267 OA
ATOM     14  N   UNL d   1      33.035  21.837 -19.210  0.00  0.00    -0.120 N 
ATOM     15  C   UNL d   1      33.241  18.605 -22.030  0.00  0.00     0.019 C 
ENDROOT
BRANCH   5  16
ATOM     16  C   UNL d   1      32.682  22.364 -22.010  0.00  0.00     0.101 A 
ATOM     17  O   UNL d   1      31.983  22.763 -22.153  0.00  0.00    -0.305 OA
ATOM     18  C   UNL d   1      32.087  23.235 -22.823  0.00  0.00     0.123 A 
ATOM     19  C   UNL d   1      32.859  23.122 -23.090  0.00  0.00     0.029 A 
ATOM     20  C   UNL d   1      33.233  22.585 -22.592  0.00  0.00     0.027 A 
ENDBRANCH   5  16
BRANCH   6  21
ATOM     21  C   UNL d   1      32.960  19.669 -23.275  0.00  0.00     0.085 C 
BRANCH  21  22
ATOM     22  C   UNL d   1      32.304  19.236 -23.530  0.00  0.00     0.038 C 
BRANCH  22  23
ATOM     23  C   UNL d   1      32.312  18.883 -24.275  0.00  0.00     0.083 C 
BRANCH  23  24
ATOM     24  N   UNL d   1      31.745  18.316 -24.476  0.00  0.00    -0.285 N 
ATOM     25  C   UNL d   1      31.625  17.593 -24.103  0.00  0.00     0.183 A 
ATOM     26  N   UNL d   1      31.005  17.210 -24.485  0.00  0.00    -0.222 NA
ATOM     27  C   UNL d   1      30.740  17.694 -25.096  0.00  0.00     0.120 A 
ATOM     28  C   UNL d   1      31.192  18.372 -25.092  0.00  0.00     0.102 A 
ENDBRANCH  23  24
ENDBRANCH  22  23
ENDBRANCH  21  22
ENDBRANCH   6  21
TORSDOF 5
ENDMDL
MODEL 2
REMARK VINA RESULT:       0.6      3.385      5.641
REMARK  5 active torsions:
REMARK  status: ('A' for Active; 'I' for Inactive)
REMARK    1  A    between atoms: C_11  and  C_5 
REMARK    2  A    between atoms: C_25  and  N_6 
REMARK    3  A    between atoms: N_14  and  C_27 
REMARK    4  A    between atoms: C_26  and  C_25 
REMARK    5  A    between atoms: C_27  and  C_26 
ROOT
ATOM      1  C   UNL d   1      29.854  16.545 -23.683  0.00  0.00     0.082 A 
ATOM      2  C   UNL d   1      30.435  16.911 -24.145  0.00  0.00     0.267 A 
ATOM      3  C   UNL d   1      30.040  15.891 -23.211  0.00  0.00     0.108 A 
ATOM      4  C   UNL d   1      28.490  16.474 -23.235  0.00  0.00     0.113 A 
ATOM      5  C   UNL d   1      29.074  16.844 -23.700  0.00  0.00     0.043 A 
ATOM      6  N   UNL d   1      31.205  16.611 -24.126  0.00  0.00    -0.273 N 
ATOM      7  C   UNL d   1      28.680  15.824 -22.766  0.00  0.00     0.213 A 
ATOM      8  O   UNL d   1      29.457  15.531 -22.755  0.00  0.00    -0.287 OA
ATOM      9  C   UNL d   1      30.808  15.601 -23.200  0.00  0.00     0.043 A 
ATOM     10  C   UNL d   1      31.392  15.957 -23.654  0.00  0.00     0.069 A 
ATOM     11  C   UNL d   1      27.721  16.767 -23.249  0.00  0.00     0.105 C 
ATOM     12  N   UNL d   1      26.952  17.060 -23.263  0.00  0.00    -0.191 NA
ATOM     13  O   UNL d   1      30.248  17.566 -24.617  0.00  0.00    -0.267 OA
ATOM     14  N   UNL d   1      28.099  15.458 -22.305  0.00  0.00    -0.120 N 
ATOM     15  C   UNL d   1      32.173  15.665 -23.643  0.00  0.00     0.019 C 
ENDROOT
BRANCH   5  16
ATOM     16  C   UNL d   1      28.884  17.495 -24.169  0.00  0.00     0.101 A 
ATOM     17  O   UNL d   1      29.213  18.241 -24.113  0.00  0.00    -0.305 OA
ATOM     18  C   UNL d   1      28.863  18.721 -24.687  0.00  0.00     0.123 A 
ATOM     19  C   UNL d   1      28.314  18.262 -25.097  0.00  0.00     0.029 A 
ATOM     20  C   UNL d   1      28.322  17.502 -24.782  0.00  0.00     0.027 A 
ENDBRANCH   5  16
BRANCH   6  21
ATOM     21  C   UNL d   1      31.799  16.978 -24.591  0.00  0.00     0.085 C 
BRANCH  21  22
ATOM     22  C   UNL d   1      32.245  17.597 -24.276  0.00  0.00     0.038 C 
BRANCH  22  23
ATOM     23  C   UNL d   1      32.683  18.084 -24.779  0.00  0.00     0.083 C 
BRANCH  23  24
ATOM     24  N   UNL d   1      32.838  18.868 -24.571  0.00  0.00    -0.285 N 
ATOM     25  C   UNL d   1      33.197  19.129 -23.880  0.00  0.00     0.183 A 
ATOM     26  N   UNL d   1      33.239  19.950 -23.907  0.00  0.00    -0.222 NA
ATOM     27  C   UNL d   1      32.905  20.201 -24.616  0.00  0.00     0.120 A 
ATOM     28  C   UNL d   1      32.658  19.540 -25.025  0.00  0.00     0.102 A 
ENDBRANCH  23  24
ENDBRANCH  22  23
ENDBRANCH  21  22
ENDBRANCH   6  21
TORSDOF 5
ENDMDL
MODEL 3
REMARK VINA RESULT:       1.1      1.319      1.828
REMARK  5 active torsions:
REMARK  status: ('A' for Active; 'I' for Inactive)
REMARK    1  A    between atoms: C_11  and  C_5 
REMARK    2  A    between atoms: C_25  and  N_6 
REMARK    3  A    between atoms: N_14  and  C_27 
REMARK    4  A    between atoms: C_26  and  C_25 
REMARK    5  A    between atoms: C_27  and  C_26 
ROOT
ATOM      1  C   UNL d   1      33.116  20.085 -22.852  0.00  0.00     0.082 A 
ATOM      2  C   UNL d   1      33.076  19.598 -23.519  0.00  0.00     0.267 A 
ATOM      3  C   UNL d   1      33.183  19.758 -22.095  0.00  0.00     0.108 A 
ATOM      4  C   UNL d   1      33.127  21.403 -22.279  0.00  0.00     0.113 A 
ATOM      5  C   UNL d   1      33.087  20.914 -22.952  0.00  0.00     0.043 A 
ATOM      6  N   UNL d   1      33.105  18.778 -23.416  0.00  0.00    -0.273 N 
ATOM      7  C   UNL d   1      33.194  21.074 -21.527  0.00  0.00     0.213 A 
ATOM      8  O   UNL d   1      33.222  20.248 -21.435  0.00  0.00    -0.287 OA
ATOM      9  C   UNL d   1      33.210  18.943 -22.003  0.00  0.00     0.043 A 
ATOM     10  C   UNL d   1      33.172  18.451 -22.659  0.00  0.00     0.069 A 
ATOM     11  C   UNL d   1      33.100  22.220 -22.375  0.00  0.00     0.105 C 
ATOM     12  N   UNL d   1      33.072  23.037 -22.470  0.00  0.00    -0.191 NA
ATOM     13  O   UNL d   1      33.009  19.926 -24.278  0.00  0.00    -0.267 OA
ATOM     14  N   UNL d   1      33.234  21.561 -20.860  0.00  0.00    -0.120 N 
ATOM     15  C   UNL d   1      33.199  17.622 -22.568  0.00  0.00     0.019 C 
ENDROOT
BRANCH   5  16
ATOM     16  C   UNL d   1      33.021  21.244 -23.705  0.00  0.00     0.101 A 
ATOM     17  O   UNL d   1      33.238  20.888 -24.408  0.00  0.00    -0.305 OA
ATOM     18  C   UNL d   1      33.076  21.413 -25.024  0.00  0.00     0.123 A 
ATOM     19  C   UNL d   1      32.756  22.098 -24.692  0.00  0.00     0.029 A 
ATOM     20  C   UNL d   1      32.719  22.000 -23.877  0.00  0.00     0.027 A 
ENDBRANCH   5  16
BRANCH   6  21
ATOM     21  C   UNL d   1      33.065  18.279 -24.089  0.00  0.00     0.085 C 
BRANCH  21  22
ATOM     22  C   UNL d   1      32.471  17.707 -24.143  0.00  0.00     0.038 C 
BRANCH  22  23
ATOM     23  C   UNL d   1      32.161  17.507 -24.881  0.00  0.00     0.083 C 
BRANCH  23  24
ATOM     24  N   UNL d   1      31.611  16.895 -24.952  0.00  0.00    -0.285 N 
ATOM     25  C   UNL d   1      30.792  16.970 -24.938  0.00  0.00     0.183 A 
ATOM     26  N   UNL d   1      30.466  16.220 -25.027  0.00  0.00    -0.222 NA
ATOM     27  C   UNL d   1      31.082  15.678 -25.096  0.00  0.00     0.120 A 
ATOM     28  C   UNL d   1      31.784  16.089 -25.051  0.00  0.00     0.102 A 
ENDBRANCH  23  24
ENDBRANCH  22  23
ENDBRANCH  21  22
ENDBRANCH   6  21
TORSDOF 5
ENDMDL
