MODEL 1
REMARK VINA RESULT:      -9.7      0.000      0.000
REMARK  3 active torsions:
REMARK  status: ('A' for Active; 'I' for Inactive)
REMARK    1  A    between atoms: C_8  and  C_3 
REMARK    2  A    between atoms: O_18  and  C_12 
REMARK    3  A    between atoms: O_19  and  C_13 
ROOT
ATOM      1  S   UNL d   1      52.458  33.529  53.551  0.00  0.00     0.211 S 
ATOM      2  C   UNL d   1      53.162  33.333  54.031  0.00  0.00     0.103 A 
ATOM      3  C   UNL d   1      52.121  34.300  53.407  0.00  0.00     0.093 A 
ATOM      4  N   UNL d   1      53.527  34.590  54.451  0.00  0.00    -0.321 N 
ATOM      5  C   UNL d   1      52.959  35.106  54.108  0.00  0.00     0.258 A 
ATOM      6  C   UNL d   1      53.629  33.870  54.433  0.00  0.00     0.070 A 
ATOM      7  C   UNL d   1      52.394  35.011  53.692  0.00  0.00     0.072 A 
ATOM      8  O   UNL d   1      51.923  33.108  53.115  0.00  0.00    -0.217 OA
ATOM      9  O   UNL d   1      52.775  32.733  53.678  0.00  0.00    -0.217 OA
ATOM     10  O   UNL d   1      53.101  35.991  54.322  0.00  0.00    -0.267 OA
ATOM     11  C   UNL d   1      53.336  32.531  54.055  0.00  0.00     0.013 A 
ATOM     12  C   UNL d   1      54.271  33.610  54.861  0.00  0.00     0.018 A 
ATOM     13  C   UNL d   1      53.989  32.262  54.489  0.00  0.00     0.001 A 
ATOM     14  C   UNL d   1      54.451  32.816  54.890  0.00  0.00     0.002 A 
ATOM     15  H   UNL d   1      54.089  34.993  54.905  0.00  0.00     0.169 HD
ENDROOT
BRANCH   3  16
ATOM     16  C   UNL d   1      51.445  34.327  52.925  0.00  0.00     0.013 A 
ATOM     17  C   UNL d   1      50.707  34.500  53.255  0.00  0.00     0.027 A 
ATOM     18  C   UNL d   1      50.039  34.526  52.769  0.00  0.00     0.116 A 
ATOM     19  C   UNL d   1      50.104  34.382  51.972  0.00  0.00     0.116 A 
ATOM     20  C   UNL d   1      50.843  34.208  51.633  0.00  0.00     0.026 A 
ATOM     21  C   UNL d   1      51.519  34.179  52.110  0.00  0.00     0.003 A 
BRANCH  18  22
ATOM     22  O   UNL d   1      49.300  34.699  53.100  0.00  0.00    -0.326 OA
ATOM     23  C   UNL d   1      49.187  35.387  53.540  0.00  0.00     0.181 C 
ENDBRANCH  18  22
BRANCH  19  24
ATOM     24  O   UNL d   1      49.428  34.409  51.487  0.00  0.00    -0.326 OA
ATOM     25  C   UNL d   1      49.503  34.349  50.675  0.00  0.00     0.181 C 
ENDBRANCH  19  24
ENDBRANCH   3  16
TORSDOF 3
ENDMDL
MODEL 2
REMARK VINA RESULT:      -8.1      1.065      1.994
REMARK  3 active torsions:
REMARK  status: ('A' for Active; 'I' for Inactive)
REMARK    1  A    between atoms: C_8  and  C_3 
REMARK    2  A    between atoms: O_18  and  C_12 
REMARK    3  A    between atoms: O_19  and  C_13 
ROOT
ATOM      1  S   UNL d   1      52.602  33.731  53.804  0.00  0.00     0.211 S 
ATOM      2  C   UNL d   1      53.376  33.480  54.123  0.00  0.00     0.103 A 
ATOM      3  C   UNL d   1      52.093  33.304  53.268  0.00  0.00     0.093 A 
ATOM      4  N   UNL d   1      53.501  32.252  53.517  0.00  0.00    -0.321 N 
ATOM      5  C   UNL d   1      52.803  32.166  53.057  0.00  0.00     0.258 A 
ATOM      6  C   UNL d   1      53.754  32.774  53.955  0.00  0.00     0.070 A 
ATOM      7  C   UNL d   1      52.233  32.571  52.944  0.00  0.00     0.072 A 
ATOM      8  O   UNL d   1      52.130  34.382  53.886  0.00  0.00    -0.217 OA
ATOM      9  O   UNL d   1      53.094  34.189  54.349  0.00  0.00    -0.217 OA
ATOM     10  O   UNL d   1      52.771  31.369  52.597  0.00  0.00    -0.267 OA
ATOM     11  C   UNL d   1      53.721  34.026  54.629  0.00  0.00     0.013 A 
ATOM     12  C   UNL d   1      54.477  32.610  54.292  0.00  0.00     0.018 A 
ATOM     13  C   UNL d   1      54.457  33.864  54.974  0.00  0.00     0.001 A 
ATOM     14  C   UNL d   1      54.826  33.148  54.796  0.00  0.00     0.002 A 
ATOM     15  H   UNL d   1      54.006  31.599  53.454  0.00  0.00     0.169 HD
ENDROOT
BRANCH   3  16
ATOM     16  C   UNL d   1      51.382  33.675  53.053  0.00  0.00     0.013 A 
ATOM     17  C   UNL d   1      51.306  34.031  52.310  0.00  0.00     0.027 A 
ATOM     18  C   UNL d   1      50.596  34.397  52.104  0.00  0.00     0.116 A 
ATOM     19  C   UNL d   1      49.973  34.411  52.626  0.00  0.00     0.116 A 
ATOM     20  C   UNL d   1      50.042  34.056  53.375  0.00  0.00     0.026 A 
ATOM     21  C   UNL d   1      50.749  33.686  53.592  0.00  0.00     0.003 A 
BRANCH  18  22
ATOM     22  O   UNL d   1      50.520  34.753  51.360  0.00  0.00    -0.326 OA
ATOM     23  C   UNL d   1      50.662  34.322  50.672  0.00  0.00     0.181 C 
ENDBRANCH  18  22
BRANCH  19  24
ATOM     24  O   UNL d   1      49.259  34.782  52.414  0.00  0.00    -0.326 OA
ATOM     25  C   UNL d   1      48.801  35.149  52.983  0.00  0.00     0.181 C 
ENDBRANCH  19  24
ENDBRANCH   3  16
TORSDOF 3
ENDMDL
MODEL 3
REMARK VINA RESULT:      -8.1      1.698      2.514
REMARK  3 active torsions:
REMARK  status: ('A' for Active; 'I' for Inactive)
REMARK    1  A    between atoms: C_8  and  C_3 
REMARK    2  A    between atoms: O_18  and  C_12 
REMARK    3  A    between atoms: O_19  and  C_13 
ROOT
ATOM      1  S   UNL d   1      52.540  31.829  53.237  0.00  0.00     0.211 S 
ATOM      2  C   UNL d   1      52.972  31.073  53.312  0.00  0.00     0.103 A 
ATOM      3  C   UNL d   1      52.864  32.617  53.201  0.00  0.00     0.093 A 
ATOM      4  N   UNL d   1      54.266  31.538  53.351  0.00  0.00    -0.321 N 
ATOM      5  C   UNL d   1      54.197  32.373  53.290  0.00  0.00     0.258 A 
ATOM      6  C   UNL d   1      53.785  30.993  53.362  0.00  0.00     0.070 A 
ATOM      7  C   UNL d   1      53.651  32.820  53.230  0.00  0.00     0.072 A 
ATOM      8  O   UNL d   1      51.762  32.043  53.180  0.00  0.00    -0.217 OA
ATOM      9  O   UNL d   1      52.178  31.042  53.271  0.00  0.00    -0.217 OA
ATOM     10  O   UNL d   1      55.012  32.804  53.305  0.00  0.00    -0.267 OA
ATOM     11  C   UNL d   1      52.487  30.411  53.331  0.00  0.00     0.013 A 
ATOM     12  C   UNL d   1      54.117  30.252  53.431  0.00  0.00     0.018 A 
ATOM     13  C   UNL d   1      52.821  29.655  53.401  0.00  0.00     0.001 A 
ATOM     14  C   UNL d   1      53.642  29.590  53.450  0.00  0.00     0.002 A 
ATOM     15  H   UNL d   1      55.052  31.287  53.411  0.00  0.00     0.169 HD
ENDROOT
BRANCH   3  16
ATOM     16  C   UNL d   1      52.322  33.241  53.129  0.00  0.00     0.013 A 
ATOM     17  C   UNL d   1      52.357  33.885  53.647  0.00  0.00     0.027 A 
ATOM     18  C   UNL d   1      51.813  34.501  53.568  0.00  0.00     0.116 A 
ATOM     19  C   UNL d   1      51.246  34.480  52.986  0.00  0.00     0.116 A 
ATOM     20  C   UNL d   1      51.205  33.836  52.462  0.00  0.00     0.026 A 
ATOM     21  C   UNL d   1      51.744  33.212  52.531  0.00  0.00     0.003 A 
BRANCH  18  22
ATOM     22  O   UNL d   1      51.849  35.146  54.087  0.00  0.00    -0.326 OA
ATOM     23  C   UNL d   1      52.566  35.378  54.421  0.00  0.00     0.181 C 
ENDBRANCH  18  22
BRANCH  19  24
ATOM     24  O   UNL d   1      50.701  35.104  52.911  0.00  0.00    -0.326 OA
ATOM     25  C   UNL d   1      49.945  34.958  52.636  0.00  0.00     0.181 C 
ENDBRANCH  19  24
ENDBRANCH   3  16
TORSDOF 3
ENDMDL
MODEL 4
REMARK VINA RESULT:      -7.7      2.516      4.192
REMARK  3 active torsions:
REMARK  status: ('A' for Active; 'I' for Inactive)
REMARK    1  A    between atoms: C_8  and  C_3 
REMARK    2  A    between atoms: O_18  and  C_12 
REMARK    3  A    between atoms: O_19  and  C_13 
ROOT
ATOM      1  S   UNL d   1      53.544  31.374  54.003  0.00  0.00     0.211 S 
ATOM      2  C   UNL d   1      53.170  30.640  53.708  0.00  0.00     0.103 A 
ATOM      3  C   UNL d   1      53.414  32.172  53.732  0.00  0.00     0.093 A 
ATOM      4  N   UNL d   1      52.356  31.159  52.729  0.00  0.00    -0.321 N 
ATOM      5  C   UNL d   1      52.495  31.988  52.750  0.00  0.00     0.258 A 
ATOM      6  C   UNL d   1      52.618  30.596  53.107  0.00  0.00     0.070 A 
ATOM      7  C   UNL d   1      52.910  32.409  53.139  0.00  0.00     0.072 A 
ATOM      8  O   UNL d   1      54.088  31.553  54.574  0.00  0.00    -0.217 OA
ATOM      9  O   UNL d   1      53.698  30.575  54.301  0.00  0.00    -0.217 OA
ATOM     10  O   UNL d   1      51.998  32.452  52.128  0.00  0.00    -0.267 OA
ATOM     11  C   UNL d   1      53.421  29.960  54.094  0.00  0.00     0.013 A 
ATOM     12  C   UNL d   1      52.313  29.873  52.887  0.00  0.00     0.018 A 
ATOM     13  C   UNL d   1      53.113  29.222  53.873  0.00  0.00     0.001 A 
ATOM     14  C   UNL d   1      52.557  29.193  53.265  0.00  0.00     0.002 A 
ATOM     15  H   UNL d   1      51.802  30.944  52.153  0.00  0.00     0.169 HD
ENDROOT
BRANCH   3  16
ATOM     16  C   UNL d   1      53.847  32.770  54.113  0.00  0.00     0.013 A 
ATOM     17  C   UNL d   1      53.455  33.351  54.552  0.00  0.00     0.027 A 
ATOM     18  C   UNL d   1      53.893  33.942  54.928  0.00  0.00     0.116 A 
ATOM     19  C   UNL d   1      54.703  33.956  54.869  0.00  0.00     0.116 A 
ATOM     20  C   UNL d   1      55.104  33.375  54.429  0.00  0.00     0.026 A 
ATOM     21  C   UNL d   1      54.676  32.778  54.048  0.00  0.00     0.003 A 
BRANCH  18  22
ATOM     22  O   UNL d   1      53.501  34.524  55.368  0.00  0.00    -0.326 OA
ATOM     23  C   UNL d   1      52.918  34.992  55.020  0.00  0.00     0.181 C 
ENDBRANCH  18  22
BRANCH  19  24
ATOM     24  O   UNL d   1      55.140  34.553  55.249  0.00  0.00    -0.326 OA
ATOM     25  C   UNL d   1      55.939  34.453  55.388  0.00  0.00     0.181 C 
ENDBRANCH  19  24
ENDBRANCH   3  16
TORSDOF 3
ENDMDL
MODEL 5
REMARK VINA RESULT:      -7.5      1.959      3.986
REMARK  3 active torsions:
REMARK  status: ('A' for Active; 'I' for Inactive)
REMARK    1  A    between atoms: C_8  and  C_3 
REMARK    2  A    between atoms: O_18  and  C_12 
REMARK    3  A    between atoms: O_19  and  C_13 
ROOT
ATOM      1  S   UNL d   1      52.752  32.737  53.549  0.00  0.00     0.211 S 
ATOM      2  C   UNL d   1      52.743  33.606  53.645  0.00  0.00     0.103 A 
ATOM      3  C   UNL d   1      53.370  32.192  53.769  0.00  0.00     0.093 A 
ATOM      4  N   UNL d   1      53.973  33.797  54.230  0.00  0.00    -0.321 N 
ATOM      5  C   UNL d   1      54.305  33.027  54.293  0.00  0.00     0.258 A 
ATOM      6  C   UNL d   1      53.344  34.055  53.971  0.00  0.00     0.070 A 
ATOM      7  C   UNL d   1      54.082  32.378  54.116  0.00  0.00     0.072 A 
ATOM      8  O   UNL d   1      52.240  32.186  53.252  0.00  0.00    -0.217 OA
ATOM      9  O   UNL d   1      52.105  33.264  53.314  0.00  0.00    -0.217 OA
ATOM     10  O   UNL d   1      55.142  33.025  54.676  0.00  0.00    -0.267 OA
ATOM     11  C   UNL d   1      52.057  33.965  53.373  0.00  0.00     0.013 A 
ATOM     12  C   UNL d   1      53.264  34.863  54.028  0.00  0.00     0.018 A 
ATOM     13  C   UNL d   1      51.971  34.788  53.428  0.00  0.00     0.001 A 
ATOM     14  C   UNL d   1      52.586  35.227  53.759  0.00  0.00     0.002 A 
ATOM     15  H   UNL d   1      54.475  34.384  54.527  0.00  0.00     0.169 HD
ENDROOT
BRANCH   3  16
ATOM     16  C   UNL d   1      53.232  31.388  53.614  0.00  0.00     0.013 A 
ATOM     17  C   UNL d   1      53.121  30.857  54.238  0.00  0.00     0.027 A 
ATOM     18  C   UNL d   1      52.984  30.059  54.074  0.00  0.00     0.116 A 
ATOM     19  C   UNL d   1      52.957  29.794  53.306  0.00  0.00     0.116 A 
ATOM     20  C   UNL d   1      53.068  30.323  52.674  0.00  0.00     0.026 A 
ATOM     21  C   UNL d   1      53.206  31.124  52.825  0.00  0.00     0.003 A 
BRANCH  18  22
ATOM     22  O   UNL d   1      52.873  29.527  54.699  0.00  0.00    -0.326 OA
ATOM     23  C   UNL d   1      53.434  29.462  55.300  0.00  0.00     0.181 C 
ENDBRANCH  18  22
BRANCH  19  24
ATOM     24  O   UNL d   1      52.819  28.989  53.147  0.00  0.00    -0.326 OA
ATOM     25  C   UNL d   1      52.403  28.768  52.479  0.00  0.00     0.181 C 
ENDBRANCH  19  24
ENDBRANCH   3  16
TORSDOF 3
ENDMDL
