MODEL 1
REMARK VINA RESULT:      -2.4      0.000      0.000
REMARK  2 active torsions:
REMARK  status: ('A' for Active; 'I' for Inactive)
REMARK    1  A    between atoms: C_2  and  N_1 
REMARK    2  A    between atoms: N_8  and  C_3 
REMARK       I    between atoms: C_12  and  N_8 
ROOT
ATOM      1  N   UNL d   1      32.606  17.448 -24.068  0.00  0.00    -0.189 N 
ATOM      2  C   UNL d   1      31.875  17.109 -24.257  0.00  0.00     0.171 A 
ATOM      3  N   UNL d   1      33.206  16.944 -24.335  0.00  0.00    -0.162 NA
ATOM      4  C   UNL d   1      32.027  16.393 -24.643  0.00  0.00     0.060 A 
ATOM      5  C   UNL d   1      32.842  16.291 -24.691  0.00  0.00     0.105 A 
ATOM      6  C   UNL d   1      33.231  15.646 -25.035  0.00  0.00     0.023 C 
ENDROOT
BRANCH   1   7
ATOM      7  C   UNL d   1      32.751  18.151 -23.687  0.00  0.00     0.197 A 
ATOM      8  N   UNL d   1      32.807  18.168 -22.863  0.00  0.00    -0.221 NA
ATOM      9  C   UNL d   1      32.958  18.959 -22.638  0.00  0.00     0.090 A 
ATOM     10  C   UNL d   1      33.067  19.319 -21.919  0.00  0.00     0.020 A 
ATOM     11  C   UNL d   1      32.989  19.401 -23.337  0.00  0.00     0.050 A 
ATOM     12  C   UNL d   1      33.210  20.132 -21.869  0.00  0.00     0.002 A 
ATOM     13  C   UNL d   1      33.240  20.565 -22.558  0.00  0.00     0.001 A 
ATOM     14  C   UNL d   1      33.131  20.208 -23.295  0.00  0.00     0.008 A 
ATOM     15  S   UNL d   1      32.862  18.897 -23.972  0.00  0.00    -0.047 SA
ENDBRANCH   1   7
BRANCH   2  16
ATOM     16  N   UNL d   1      31.127  17.424 -24.094  0.00  0.00    -0.189 NA
ATOM     17  C   UNL d   1      30.473  17.064 -24.411  0.00  0.00     0.281 C 
ATOM     18  O   UNL d   1      29.723  17.376 -24.249  0.00  0.00    -0.265 OA
ATOM     19  C   UNL d   1      30.530  16.400 -24.886  0.00  0.00     0.068 C 
ENDBRANCH   2  16
TORSDOF 2
ENDMDL
MODEL 2
REMARK VINA RESULT:      -2.1      1.573      3.810
REMARK  2 active torsions:
REMARK  status: ('A' for Active; 'I' for Inactive)
REMARK    1  A    between atoms: C_2  and  N_1 
REMARK    2  A    between atoms: N_8  and  C_3 
REMARK       I    between atoms: C_12  and  N_8 
ROOT
ATOM      1  N   UNL d   1      32.866  19.165 -23.856  0.00  0.00    -0.189 N 
ATOM      2  C   UNL d   1      33.076  19.604 -23.187  0.00  0.00     0.171 A 
ATOM      3  N   UNL d   1      32.901  19.662 -24.518  0.00  0.00    -0.162 NA
ATOM      4  C   UNL d   1      33.241  20.375 -23.438  0.00  0.00     0.060 A 
ATOM      5  C   UNL d   1      33.134  20.411 -24.254  0.00  0.00     0.105 A 
ATOM      6  C   UNL d   1      33.241  21.082 -24.727  0.00  0.00     0.023 C 
ENDROOT
BRANCH   1   7
ATOM      7  C   UNL d   1      32.656  18.381 -23.900  0.00  0.00     0.197 A 
ATOM      8  N   UNL d   1      31.868  18.161 -23.788  0.00  0.00    -0.221 NA
ATOM      9  C   UNL d   1      31.827  17.328 -23.865  0.00  0.00     0.090 A 
ATOM     10  C   UNL d   1      31.216  16.797 -23.815  0.00  0.00     0.020 A 
ATOM     11  C   UNL d   1      32.597  17.068 -24.022  0.00  0.00     0.050 A 
ATOM     12  C   UNL d   1      31.349  15.987 -23.919  0.00  0.00     0.002 A 
ATOM     13  C   UNL d   1      32.107  15.733 -24.073  0.00  0.00     0.001 A 
ATOM     14  C   UNL d   1      32.735  16.266 -24.126  0.00  0.00     0.008 A 
ATOM     15  S   UNL d   1      33.096  17.720 -24.041  0.00  0.00    -0.047 SA
ENDBRANCH   1   7
BRANCH   2  16
ATOM     16  N   UNL d   1      33.116  19.328 -22.407  0.00  0.00    -0.189 NA
ATOM     17  C   UNL d   1      33.195  19.865 -21.805  0.00  0.00     0.281 C 
ATOM     18  O   UNL d   1      33.235  19.592 -21.024  0.00  0.00    -0.265 OA
ATOM     19  C   UNL d   1      33.236  20.670 -21.945  0.00  0.00     0.068 C 
ENDBRANCH   2  16
TORSDOF 2
ENDMDL
MODEL 3
REMARK VINA RESULT:      -1.9      2.633      3.680
REMARK  2 active torsions:
REMARK  status: ('A' for Active; 'I' for Inactive)
REMARK    1  A    between atoms: C_2  and  N_1 
REMARK    2  A    between atoms: N_8  and  C_3 
REMARK       I    between atoms: C_12  and  N_8 
ROOT
ATOM      1  N   UNL d   1      29.731  16.088 -23.940  0.00  0.00    -0.189 N 
ATOM      2  C   UNL d   1      29.260  16.692 -24.256  0.00  0.00     0.171 A 
ATOM      3  N   UNL d   1      29.238  15.548 -23.551  0.00  0.00    -0.162 NA
ATOM      4  C   UNL d   1      28.474  16.521 -24.059  0.00  0.00     0.060 A 
ATOM      5  C   UNL d   1      28.460  15.821 -23.627  0.00  0.00     0.105 A 
ATOM      6  C   UNL d   1      27.784  15.453 -23.322  0.00  0.00     0.023 C 
ENDROOT
BRANCH   1   7
ATOM      7  C   UNL d   1      30.538  16.004 -23.983  0.00  0.00     0.197 A 
ATOM      8  N   UNL d   1      31.008  16.226 -23.342  0.00  0.00    -0.221 NA
ATOM      9  C   UNL d   1      31.804  16.076 -23.550  0.00  0.00     0.090 A 
ATOM     10  C   UNL d   1      32.508  16.176 -23.159  0.00  0.00     0.020 A 
ATOM     11  C   UNL d   1      31.792  15.764 -24.317  0.00  0.00     0.050 A 
ATOM     12  C   UNL d   1      33.225  15.972 -23.516  0.00  0.00     0.002 A 
ATOM     13  C   UNL d   1      33.210  15.666 -24.271  0.00  0.00     0.001 A 
ATOM     14  C   UNL d   1      32.500  15.559 -24.677  0.00  0.00     0.008 A 
ATOM     15  S   UNL d   1      31.012  15.725 -24.572  0.00  0.00    -0.047 SA
ENDBRANCH   1   7
BRANCH   2  16
ATOM     16  N   UNL d   1      29.522  17.347 -24.689  0.00  0.00    -0.189 NA
ATOM     17  C   UNL d   1      29.087  18.031 -24.665  0.00  0.00     0.281 C 
ATOM     18  O   UNL d   1      29.346  18.689 -25.097  0.00  0.00    -0.265 OA
ATOM     19  C   UNL d   1      28.400  18.093 -24.225  0.00  0.00     0.068 C 
ENDBRANCH   2  16
TORSDOF 2
ENDMDL
MODEL 4
REMARK VINA RESULT:      -1.7      2.269      3.517
REMARK  2 active torsions:
REMARK  status: ('A' for Active; 'I' for Inactive)
REMARK    1  A    between atoms: C_2  and  N_1 
REMARK    2  A    between atoms: N_8  and  C_3 
REMARK       I    between atoms: C_12  and  N_8 
ROOT
ATOM      1  N   UNL d   1      29.979  17.316 -24.506  0.00  0.00    -0.189 N 
ATOM      2  C   UNL d   1      29.233  17.015 -24.309  0.00  0.00     0.171 A 
ATOM      3  N   UNL d   1      29.880  18.074 -24.826  0.00  0.00    -0.162 NA
ATOM      4  C   UNL d   1      28.674  17.591 -24.509  0.00  0.00     0.060 A 
ATOM      5  C   UNL d   1      29.069  18.240 -24.826  0.00  0.00     0.105 A 
ATOM      6  C   UNL d   1      28.716  18.938 -25.097  0.00  0.00     0.023 C 
ENDROOT
BRANCH   1   7
ATOM      7  C   UNL d   1      30.705  16.961 -24.418  0.00  0.00     0.197 A 
ATOM      8  N   UNL d   1      31.209  17.205 -23.811  0.00  0.00    -0.221 NA
ATOM      9  C   UNL d   1      31.905  16.743 -23.862  0.00  0.00     0.090 A 
ATOM     10  C   UNL d   1      32.590  16.723 -23.429  0.00  0.00     0.020 A 
ATOM     11  C   UNL d   1      31.800  16.229 -24.504  0.00  0.00     0.050 A 
ATOM     12  C   UNL d   1      33.196  16.192 -23.616  0.00  0.00     0.002 A 
ATOM     13  C   UNL d   1      33.090  15.688 -24.247  0.00  0.00     0.001 A 
ATOM     14  C   UNL d   1      32.397  15.701 -24.695  0.00  0.00     0.008 A 
ATOM     15  S   UNL d   1      31.063  16.372 -24.836  0.00  0.00    -0.047 SA
ENDBRANCH   1   7
BRANCH   2  16
ATOM     16  N   UNL d   1      29.072  16.276 -23.974  0.00  0.00    -0.189 NA
ATOM     17  C   UNL d   1      28.410  16.191 -23.513  0.00  0.00     0.281 C 
ATOM     18  O   UNL d   1      28.245  15.453 -23.176  0.00  0.00    -0.265 OA
ATOM     19  C   UNL d   1      27.899  16.814 -23.369  0.00  0.00     0.068 C 
ENDBRANCH   2  16
TORSDOF 2
ENDMDL
MODEL 5
REMARK VINA RESULT:      -0.6      2.793      4.189
REMARK  2 active torsions:
REMARK  status: ('A' for Active; 'I' for Inactive)
REMARK    1  A    between atoms: C_2  and  N_1 
REMARK    2  A    between atoms: N_8  and  C_3 
REMARK       I    between atoms: C_12  and  N_8 
ROOT
ATOM      1  N   UNL d   1      33.024  21.331 -22.838  0.00  0.00    -0.189 N 
ATOM      2  C   UNL d   1      33.135  20.514 -22.910  0.00  0.00     0.171 A 
ATOM      3  N   UNL d   1      33.042  21.666 -23.595  0.00  0.00    -0.162 NA
ATOM      4  C   UNL d   1      33.222  20.346 -23.716  0.00  0.00     0.060 A 
ATOM      5  C   UNL d   1      33.166  21.051 -24.136  0.00  0.00     0.105 A 
ATOM      6  C   UNL d   1      33.223  21.132 -24.958  0.00  0.00     0.023 C 
ENDROOT
BRANCH   1   7
ATOM      7  C   UNL d   1      32.912  21.767 -22.161  0.00  0.00     0.197 A 
ATOM      8  N   UNL d   1      32.442  22.445 -22.182  0.00  0.00    -0.221 NA
ATOM      9  C   UNL d   1      32.433  22.769 -21.411  0.00  0.00     0.090 A 
ATOM     10  C   UNL d   1      32.076  23.421 -21.088  0.00  0.00     0.020 A 
ATOM     11  C   UNL d   1      32.903  22.273 -20.942  0.00  0.00     0.050 A 
ATOM     12  C   UNL d   1      32.171  23.605 -20.287  0.00  0.00     0.002 A 
ATOM     13  C   UNL d   1      32.633  23.116 -19.828  0.00  0.00     0.001 A 
ATOM     14  C   UNL d   1      33.002  22.450 -20.147  0.00  0.00     0.008 A 
ATOM     15  S   UNL d   1      33.190  21.664 -21.411  0.00  0.00    -0.047 SA
ENDBRANCH   1   7
BRANCH   2  16
ATOM     16  N   UNL d   1      33.156  19.962 -22.293  0.00  0.00    -0.189 NA
ATOM     17  C   UNL d   1      33.208  19.173 -22.475  0.00  0.00     0.281 C 
ATOM     18  O   UNL d   1      33.229  18.618 -21.861  0.00  0.00    -0.265 OA
ATOM     19  C   UNL d   1      33.240  18.908 -23.248  0.00  0.00     0.068 C 
ENDBRANCH   2  16
TORSDOF 2
ENDMDL
MODEL 6
REMARK VINA RESULT:      -0.6      1.429      2.184
REMARK  2 active torsions:
REMARK  status: ('A' for Active; 'I' for Inactive)
REMARK    1  A    between atoms: C_2  and  N_1 
REMARK    2  A    between atoms: N_8  and  C_3 
REMARK       I    between atoms: C_12  and  N_8 
ROOT
ATOM      1  N   UNL d   1      31.245  17.308 -24.365  0.00  0.00    -0.189 N 
ATOM      2  C   UNL d   1      31.487  16.520 -24.288  0.00  0.00     0.171 A 
ATOM      3  N   UNL d   1      30.418  17.325 -24.414  0.00  0.00    -0.162 NA
ATOM      4  C   UNL d   1      30.805  16.051 -24.290  0.00  0.00     0.060 A 
ATOM      5  C   UNL d   1      30.150  16.543 -24.367  0.00  0.00     0.105 A 
ATOM      6  C   UNL d   1      29.360  16.298 -24.393  0.00  0.00     0.023 C 
ENDROOT
BRANCH   1   7
ATOM      7  C   UNL d   1      31.706  17.977 -24.392  0.00  0.00     0.197 A 
ATOM      8  N   UNL d   1      31.956  18.332 -23.690  0.00  0.00    -0.221 NA
ATOM      9  C   UNL d   1      32.415  19.000 -23.896  0.00  0.00     0.090 A 
ATOM     10  C   UNL d   1      32.805  19.560 -23.458  0.00  0.00     0.020 A 
ATOM     11  C   UNL d   1      32.431  19.029 -24.723  0.00  0.00     0.050 A 
ATOM     12  C   UNL d   1      33.224  20.171 -23.826  0.00  0.00     0.002 A 
ATOM     13  C   UNL d   1      33.238  20.198 -24.640  0.00  0.00     0.001 A 
ATOM     14  C   UNL d   1      32.844  19.632 -25.095  0.00  0.00     0.008 A 
ATOM     15  S   UNL d   1      31.994  18.399 -25.016  0.00  0.00    -0.047 SA
ENDBRANCH   1   7
BRANCH   2  16
ATOM     16  N   UNL d   1      32.266  16.247 -24.221  0.00  0.00    -0.189 NA
ATOM     17  C   UNL d   1      32.449  15.729 -23.625  0.00  0.00     0.281 C 
ATOM     18  O   UNL d   1      33.226  15.453 -23.554  0.00  0.00    -0.265 OA
ATOM     19  C   UNL d   1      31.888  15.469 -23.088  0.00  0.00     0.068 C 
ENDBRANCH   2  16
TORSDOF 2
ENDMDL
MODEL 7
REMARK VINA RESULT:      -0.3      2.499      4.811
REMARK  2 active torsions:
REMARK  status: ('A' for Active; 'I' for Inactive)
REMARK    1  A    between atoms: C_2  and  N_1 
REMARK    2  A    between atoms: N_8  and  C_3 
REMARK       I    between atoms: C_12  and  N_8 
ROOT
ATOM      1  N   UNL d   1      32.800  20.956 -21.678  0.00  0.00    -0.189 N 
ATOM      2  C   UNL d   1      32.833  21.713 -22.011  0.00  0.00     0.171 A 
ATOM      3  N   UNL d   1      32.786  21.032 -20.854  0.00  0.00    -0.162 NA
ATOM      4  C   UNL d   1      32.838  22.257 -21.388  0.00  0.00     0.060 A 
ATOM      5  C   UNL d   1      32.809  21.842 -20.679  0.00  0.00     0.105 A 
ATOM      6  C   UNL d   1      32.805  22.175 -19.921  0.00  0.00     0.023 C 
ENDROOT
BRANCH   1   7
ATOM      7  C   UNL d   1      32.784  20.238 -22.059  0.00  0.00     0.197 A 
ATOM      8  N   UNL d   1      32.228  20.101 -22.653  0.00  0.00    -0.221 NA
ATOM      9  C   UNL d   1      32.348  19.323 -22.935  0.00  0.00     0.090 A 
ATOM     10  C   UNL d   1      31.983  18.878 -23.507  0.00  0.00     0.020 A 
ATOM     11  C   UNL d   1      32.979  19.009 -22.499  0.00  0.00     0.050 A 
ATOM     12  C   UNL d   1      32.231  18.105 -23.666  0.00  0.00     0.002 A 
ATOM     13  C   UNL d   1      32.851  17.798 -23.236  0.00  0.00     0.001 A 
ATOM     14  C   UNL d   1      33.229  18.243 -22.652  0.00  0.00     0.008 A 
ATOM     15  S   UNL d   1      33.237  19.577 -21.966  0.00  0.00    -0.047 SA
ENDBRANCH   1   7
BRANCH   2  16
ATOM     16  N   UNL d   1      32.856  21.897 -22.818  0.00  0.00    -0.189 NA
ATOM     17  C   UNL d   1      32.846  22.676 -23.043  0.00  0.00     0.281 C 
ATOM     18  O   UNL d   1      32.869  22.864 -23.849  0.00  0.00    -0.265 OA
ATOM     19  C   UNL d   1      32.814  23.284 -22.496  0.00  0.00     0.068 C 
ENDBRANCH   2  16
TORSDOF 2
ENDMDL
