MODEL 1
REMARK VINA RESULT:      -9.0      0.000      0.000
REMARK  2 active torsions:
REMARK  status: ('A' for Active; 'I' for Inactive)
REMARK    1  A    between atoms: C_4  and  C_1 
REMARK    2  A    between atoms: C_8  and  C_2 
REMARK       I    between atoms: N_7  and  C_4 
ROOT
ATOM      1  C   UNL d   1     -48.269  13.832  22.431  0.00  0.00     0.081 A 
ATOM      2  C   UNL d   1     -48.463  14.540  22.776  0.00  0.00     0.104 A 
ATOM      3  C   UNL d   1     -47.457  13.720  22.458  0.00  0.00     0.033 A 
ATOM      4  O   UNL d   1     -47.750  14.897  23.034  0.00  0.00    -0.307 OA
ATOM      5  C   UNL d   1     -47.132  14.387  22.836  0.00  0.00     0.100 A 
ATOM      6  C   UNL d   1     -46.961  13.114  22.198  0.00  0.00     0.044 A 
ATOM      7  C   UNL d   1     -46.316  14.438  22.948  0.00  0.00     0.028 A 
ATOM      8  C   UNL d   1     -46.140  13.162  22.309  0.00  0.00     0.196 A 
ATOM      9  C   UNL d   1     -45.815  13.830  22.687  0.00  0.00     0.044 A 
ATOM     10  O   UNL d   1     -45.658  12.563  22.051  0.00  0.00    -0.287 OA
ENDROOT
BRANCH   1  11
ATOM     11  C   UNL d   1     -48.813  13.290  22.095  0.00  0.00     0.267 C 
ATOM     12  N   UNL d   1     -49.047  12.631  22.512  0.00  0.00    -0.268 N 
ATOM     13  C   UNL d   1     -49.591  12.089  22.177  0.00  0.00     0.110 A 
ATOM     14  C   UNL d   1     -48.752  12.481  23.278  0.00  0.00     0.110 A 
ATOM     15  C   UNL d   1     -49.822  11.424  22.606  0.00  0.00     0.142 A 
ATOM     16  O   UNL d   1     -49.530  11.279  23.359  0.00  0.00    -0.300 OA
ATOM     17  C   UNL d   1     -48.988  11.815  23.698  0.00  0.00     0.142 A 
ATOM     18  O   UNL d   1     -49.105  13.436  21.342  0.00  0.00    -0.267 OA
ENDBRANCH   1  11
BRANCH   2  19
ATOM     19  C   UNL d   1     -49.226  14.863  22.862  0.00  0.00     0.023 A 
ATOM     20  C   UNL d   1     -49.621  15.125  22.206  0.00  0.00     0.002 A 
ATOM     21  C   UNL d   1     -50.384  15.448  22.292  0.00  0.00     0.000 A 
ATOM     22  C   UNL d   1     -50.735  15.501  23.033  0.00  0.00     0.000 A 
ATOM     23  C   UNL d   1     -50.327  15.232  23.698  0.00  0.00     0.000 A 
ATOM     24  C   UNL d   1     -49.568  14.910  23.612  0.00  0.00     0.002 A 
ENDBRANCH   2  19
TORSDOF 2
ENDMDL
MODEL 2
REMARK VINA RESULT:      -8.8      0.858      3.060
REMARK  2 active torsions:
REMARK  status: ('A' for Active; 'I' for Inactive)
REMARK    1  A    between atoms: C_4  and  C_1 
REMARK    2  A    between atoms: C_8  and  C_2 
REMARK       I    between atoms: N_7  and  C_4 
ROOT
ATOM      1  C   UNL d   1     -48.432  13.833  22.408  0.00  0.00     0.081 A 
ATOM      2  C   UNL d   1     -47.728  14.105  22.704  0.00  0.00     0.104 A 
ATOM      3  C   UNL d   1     -49.016  14.399  22.505  0.00  0.00     0.033 A 
ATOM      4  O   UNL d   1     -47.864  14.877  23.004  0.00  0.00    -0.307 OA
ATOM      5  C   UNL d   1     -48.660  15.053  22.878  0.00  0.00     0.100 A 
ATOM      6  C   UNL d   1     -49.817  14.424  22.312  0.00  0.00     0.044 A 
ATOM      7  C   UNL d   1     -49.112  15.721  23.053  0.00  0.00     0.028 A 
ATOM      8  C   UNL d   1     -50.275  15.094  22.487  0.00  0.00     0.196 A 
ATOM      9  C   UNL d   1     -49.919  15.748  22.860  0.00  0.00     0.044 A 
ATOM     10  O   UNL d   1     -51.063  15.112  22.295  0.00  0.00    -0.287 OA
ENDROOT
BRANCH   1  11
ATOM     11  C   UNL d   1     -48.551  13.082  22.052  0.00  0.00     0.267 C 
ATOM     12  N   UNL d   1     -48.891  12.477  22.477  0.00  0.00    -0.268 N 
ATOM     13  C   UNL d   1     -49.010  11.727  22.123  0.00  0.00     0.110 A 
ATOM     14  C   UNL d   1     -49.127  12.588  23.270  0.00  0.00     0.110 A 
ATOM     15  C   UNL d   1     -49.355  11.119  22.561  0.00  0.00     0.142 A 
ATOM     16  O   UNL d   1     -49.586  11.231  23.340  0.00  0.00    -0.300 OA
ATOM     17  C   UNL d   1     -49.470  11.976  23.698  0.00  0.00     0.142 A 
ATOM     18  O   UNL d   1     -48.319  12.971  21.274  0.00  0.00    -0.267 OA
ENDBRANCH   1  11
BRANCH   2  19
ATOM     19  C   UNL d   1     -46.999  13.703  22.715  0.00  0.00     0.023 A 
ATOM     20  C   UNL d   1     -46.746  13.361  23.403  0.00  0.00     0.002 A 
ATOM     21  C   UNL d   1     -46.017  12.958  23.413  0.00  0.00     0.000 A 
ATOM     22  C   UNL d   1     -45.557  12.907  22.735  0.00  0.00     0.000 A 
ATOM     23  C   UNL d   1     -45.820  13.258  22.036  0.00  0.00     0.000 A 
ATOM     24  C   UNL d   1     -46.546  13.659  22.026  0.00  0.00     0.002 A 
ENDBRANCH   2  19
TORSDOF 2
ENDMDL
MODEL 3
REMARK VINA RESULT:      -8.5      1.097      3.582
REMARK  2 active torsions:
REMARK  status: ('A' for Active; 'I' for Inactive)
REMARK    1  A    between atoms: C_4  and  C_1 
REMARK    2  A    between atoms: C_8  and  C_2 
REMARK       I    between atoms: N_7  and  C_4 
ROOT
ATOM      1  C   UNL d   1     -48.383  12.918  22.593  0.00  0.00     0.081 A 
ATOM      2  C   UNL d   1     -47.660  12.661  22.855  0.00  0.00     0.104 A 
ATOM      3  C   UNL d   1     -48.975  12.427  22.876  0.00  0.00     0.033 A 
ATOM      4  O   UNL d   1     -47.791  11.978  23.324  0.00  0.00    -0.307 OA
ATOM      5  C   UNL d   1     -48.604  11.838  23.334  0.00  0.00     0.100 A 
ATOM      6  C   UNL d   1     -49.795  12.422  22.789  0.00  0.00     0.044 A 
ATOM      7  C   UNL d   1     -49.060  11.254  23.698  0.00  0.00     0.028 A 
ATOM      8  C   UNL d   1     -50.256  11.836  23.154  0.00  0.00     0.196 A 
ATOM      9  C   UNL d   1     -49.885  11.247  23.612  0.00  0.00     0.044 A 
ATOM     10  O   UNL d   1     -51.063  11.837  23.064  0.00  0.00    -0.287 OA
ENDROOT
BRANCH   1  11
ATOM     11  C   UNL d   1     -48.513  13.587  22.105  0.00  0.00     0.267 C 
ATOM     12  N   UNL d   1     -48.772  14.288  22.429  0.00  0.00    -0.268 N 
ATOM     13  C   UNL d   1     -48.902  14.957  21.942  0.00  0.00     0.110 A 
ATOM     14  C   UNL d   1     -48.914  14.355  23.249  0.00  0.00     0.110 A 
ATOM     15  C   UNL d   1     -49.164  15.662  22.279  0.00  0.00     0.142 A 
ATOM     16  O   UNL d   1     -49.303  15.726  23.084  0.00  0.00    -0.300 OA
ATOM     17  C   UNL d   1     -49.175  15.062  23.575  0.00  0.00     0.142 A 
ATOM     18  O   UNL d   1     -48.374  13.523  21.299  0.00  0.00    -0.267 OA
ENDBRANCH   1  11
BRANCH   2  19
ATOM     19  C   UNL d   1     -46.918  13.003  22.694  0.00  0.00     0.023 A 
ATOM     20  C   UNL d   1     -46.563  12.860  21.982  0.00  0.00     0.002 A 
ATOM     21  C   UNL d   1     -45.821  13.202  21.821  0.00  0.00     0.000 A 
ATOM     22  C   UNL d   1     -45.450  13.680  22.376  0.00  0.00     0.000 A 
ATOM     23  C   UNL d   1     -45.818  13.823  23.102  0.00  0.00     0.000 A 
ATOM     24  C   UNL d   1     -46.556  13.482  23.262  0.00  0.00     0.002 A 
ENDBRANCH   2  19
TORSDOF 2
ENDMDL
MODEL 4
REMARK VINA RESULT:      -8.3      1.098      2.519
REMARK  2 active torsions:
REMARK  status: ('A' for Active; 'I' for Inactive)
REMARK    1  A    between atoms: C_4  and  C_1 
REMARK    2  A    between atoms: C_8  and  C_2 
REMARK       I    between atoms: N_7  and  C_4 
ROOT
ATOM      1  C   UNL d   1     -48.174  12.906  22.567  0.00  0.00     0.081 A 
ATOM      2  C   UNL d   1     -48.601  12.399  23.034  0.00  0.00     0.104 A 
ATOM      3  C   UNL d   1     -47.374  12.830  22.728  0.00  0.00     0.033 A 
ATOM      4  O   UNL d   1     -48.056  11.981  23.515  0.00  0.00    -0.307 OA
ATOM      5  C   UNL d   1     -47.300  12.251  23.322  0.00  0.00     0.100 A 
ATOM      6  C   UNL d   1     -46.699  13.198  22.429  0.00  0.00     0.044 A 
ATOM      7  C   UNL d   1     -46.552  12.048  23.606  0.00  0.00     0.028 A 
ATOM      8  C   UNL d   1     -45.945  12.996  22.712  0.00  0.00     0.196 A 
ATOM      9  C   UNL d   1     -45.871  12.417  23.306  0.00  0.00     0.044 A 
ATOM     10  O   UNL d   1     -45.285  13.362  22.413  0.00  0.00    -0.287 OA
ENDROOT
BRANCH   1  11
ATOM     11  C   UNL d   1     -48.497  13.433  22.000  0.00  0.00     0.267 C 
ATOM     12  N   UNL d   1     -48.620  14.215  22.190  0.00  0.00    -0.268 N 
ATOM     13  C   UNL d   1     -48.943  14.742  21.624  0.00  0.00     0.110 A 
ATOM     14  C   UNL d   1     -48.428  14.509  22.947  0.00  0.00     0.110 A 
ATOM     15  C   UNL d   1     -49.063  15.533  21.825  0.00  0.00     0.142 A 
ATOM     16  O   UNL d   1     -48.874  15.818  22.570  0.00  0.00    -0.300 OA
ATOM     17  C   UNL d   1     -48.552  15.298  23.138  0.00  0.00     0.142 A 
ATOM     18  O   UNL d   1     -48.686  13.147  21.255  0.00  0.00    -0.267 OA
ENDBRANCH   1  11
BRANCH   2  19
ATOM     19  C   UNL d   1     -49.428  12.303  23.043  0.00  0.00     0.023 A 
ATOM     20  C   UNL d   1     -49.791  11.943  22.417  0.00  0.00     0.002 A 
ATOM     21  C   UNL d   1     -50.619  11.847  22.426  0.00  0.00     0.000 A 
ATOM     22  C   UNL d   1     -51.064  12.113  23.062  0.00  0.00     0.000 A 
ATOM     23  C   UNL d   1     -50.688  12.481  23.698  0.00  0.00     0.000 A 
ATOM     24  C   UNL d   1     -49.864  12.576  23.689  0.00  0.00     0.002 A 
ENDBRANCH   2  19
TORSDOF 2
ENDMDL
MODEL 5
REMARK VINA RESULT:      -6.7      1.062      2.593
REMARK  2 active torsions:
REMARK  status: ('A' for Active; 'I' for Inactive)
REMARK    1  A    between atoms: C_4  and  C_1 
REMARK    2  A    between atoms: C_8  and  C_2 
REMARK       I    between atoms: N_7  and  C_4 
ROOT
ATOM      1  C   UNL d   1     -48.852  13.235  22.763  0.00  0.00     0.081 A 
ATOM      2  C   UNL d   1     -49.520  13.541  23.108  0.00  0.00     0.104 A 
ATOM      3  C   UNL d   1     -48.784  12.438  22.941  0.00  0.00     0.033 A 
ATOM      4  O   UNL d   1     -49.896  12.917  23.524  0.00  0.00    -0.307 OA
ATOM      5  C   UNL d   1     -49.438  12.239  23.418  0.00  0.00     0.100 A 
ATOM      6  C   UNL d   1     -48.230  11.860  22.745  0.00  0.00     0.044 A 
ATOM      7  C   UNL d   1     -49.526  11.465  23.690  0.00  0.00     0.028 A 
ATOM      8  C   UNL d   1     -48.315  11.081  23.018  0.00  0.00     0.196 A 
ATOM      9  C   UNL d   1     -48.969  10.882  23.494  0.00  0.00     0.044 A 
ATOM     10  O   UNL d   1     -47.765  10.517  22.821  0.00  0.00    -0.287 OA
ENDROOT
BRANCH   1  11
ATOM     11  C   UNL d   1     -48.308  13.666  22.293  0.00  0.00     0.267 C 
ATOM     12  N   UNL d   1     -47.585  13.884  22.597  0.00  0.00    -0.268 N 
ATOM     13  C   UNL d   1     -47.040  14.314  22.128  0.00  0.00     0.110 A 
ATOM     14  C   UNL d   1     -47.370  13.684  23.379  0.00  0.00     0.110 A 
ATOM     15  C   UNL d   1     -46.311  14.530  22.445  0.00  0.00     0.142 A 
ATOM     16  O   UNL d   1     -46.102  14.333  23.213  0.00  0.00    -0.300 OA
ATOM     17  C   UNL d   1     -46.641  13.904  23.685  0.00  0.00     0.142 A 
ATOM     18  O   UNL d   1     -48.517  13.864  21.525  0.00  0.00    -0.267 OA
ENDBRANCH   1  11
BRANCH   2  19
ATOM     19  C   UNL d   1     -49.792  14.327  23.064  0.00  0.00     0.023 A 
ATOM     20  C   UNL d   1     -50.178  14.575  22.397  0.00  0.00     0.002 A 
ATOM     21  C   UNL d   1     -50.449  15.361  22.353  0.00  0.00     0.000 A 
ATOM     22  C   UNL d   1     -50.329  15.882  22.977  0.00  0.00     0.000 A 
ATOM     23  C   UNL d   1     -49.935  15.623  23.654  0.00  0.00     0.000 A 
ATOM     24  C   UNL d   1     -49.664  14.840  23.698  0.00  0.00     0.002 A 
ENDBRANCH   2  19
TORSDOF 2
ENDMDL
