MODEL 1
REMARK VINA RESULT:      -8.1      0.000      0.000
REMARK  2 active torsions:
REMARK  status: ('A' for Active; 'I' for Inactive)
REMARK    1  A    between atoms: N_2  and  C_1 
REMARK    2  A    between atoms: C_4  and  C_1 
ROOT
ATOM      1  C   UNL d   1      52.813  32.524  53.285  0.00  0.00     0.120 C 
ATOM      2  S   UNL d   1      52.838  31.755  52.984  0.00  0.00    -0.059 SA
ENDROOT
BRANCH   1   3
ATOM      3  N   UNL d   1      52.167  33.016  53.109  0.00  0.00    -0.293 N 
ATOM      4  C   UNL d   1      51.452  32.914  53.509  0.00  0.00     0.100 A 
ATOM      5  C   UNL d   1      50.809  33.400  53.337  0.00  0.00     0.100 A 
ATOM      6  N   UNL d   1      50.881  33.988  52.764  0.00  0.00    -0.299 N 
ATOM      7  C   UNL d   1      51.596  34.090  52.363  0.00  0.00     0.100 A 
ATOM      8  C   UNL d   1      50.237  34.477  52.590  0.00  0.00     0.100 C 
ATOM      9  C   UNL d   1      52.243  33.598  52.540  0.00  0.00     0.100 A 
ENDBRANCH   1   3
BRANCH   1  10
ATOM     10  C   UNL d   1      53.427  32.809  53.761  0.00  0.00     0.027 A 
ATOM     11  C   UNL d   1      53.323  32.890  54.582  0.00  0.00     0.003 A 
ATOM     12  C   UNL d   1      53.939  33.175  55.049  0.00  0.00     0.007 A 
ATOM     13  C   UNL d   1      54.658  33.380  54.703  0.00  0.00     0.035 A 
ATOM     14  C   UNL d   1      54.762  33.299  53.883  0.00  0.00     0.007 A 
ATOM     15 BR   UNL d   1      55.277  33.666  55.171  0.00  0.00    -0.049 Br
ATOM     16  C   UNL d   1      54.147  33.015  53.415  0.00  0.00     0.003 A 
ENDBRANCH   1  10
TORSDOF 2
ENDMDL
MODEL 2
REMARK VINA RESULT:      -7.9      1.686      3.460
REMARK  2 active torsions:
REMARK  status: ('A' for Active; 'I' for Inactive)
REMARK    1  A    between atoms: N_2  and  C_1 
REMARK    2  A    between atoms: C_4  and  C_1 
ROOT
ATOM      1  C   UNL d   1      52.797  32.533  53.271  0.00  0.00     0.120 C 
ATOM      2  S   UNL d   1      52.819  31.762  52.975  0.00  0.00    -0.059 SA
ENDROOT
BRANCH   1   3
ATOM      3  N   UNL d   1      53.418  32.810  53.749  0.00  0.00    -0.293 N 
ATOM      4  C   UNL d   1      54.140  33.016  53.405  0.00  0.00     0.100 A 
ATOM      5  C   UNL d   1      54.759  33.290  53.877  0.00  0.00     0.100 A 
ATOM      6  N   UNL d   1      54.654  33.359  54.692  0.00  0.00    -0.299 N 
ATOM      7  C   UNL d   1      53.932  33.153  55.035  0.00  0.00     0.100 A 
ATOM      8  C   UNL d   1      55.274  33.634  55.166  0.00  0.00     0.100 C 
ATOM      9  C   UNL d   1      53.311  32.876  54.556  0.00  0.00     0.100 A 
ENDBRANCH   1   3
BRANCH   1  10
ATOM     10  C   UNL d   1      52.161  33.034  53.095  0.00  0.00     0.027 A 
ATOM     11  C   UNL d   1      52.243  33.638  52.531  0.00  0.00     0.003 A 
ATOM     12  C   UNL d   1      51.605  34.132  52.361  0.00  0.00     0.007 A 
ATOM     13  C   UNL d   1      50.888  34.027  52.752  0.00  0.00     0.035 A 
ATOM     14  C   UNL d   1      50.807  33.423  53.317  0.00  0.00     0.007 A 
ATOM     15 BR   UNL d   1      50.247  34.523  52.584  0.00  0.00    -0.049 Br
ATOM     16  C   UNL d   1      51.443  32.929  53.487  0.00  0.00     0.003 A 
ENDBRANCH   1  10
TORSDOF 2
ENDMDL
MODEL 3
REMARK VINA RESULT:      -7.3      2.084      2.715
REMARK  2 active torsions:
REMARK  status: ('A' for Active; 'I' for Inactive)
REMARK    1  A    between atoms: N_2  and  C_1 
REMARK    2  A    between atoms: C_4  and  C_1 
ROOT
ATOM      1  C   UNL d   1      54.129  32.864  53.558  0.00  0.00     0.120 C 
ATOM      2  S   UNL d   1      54.918  32.938  53.326  0.00  0.00    -0.059 SA
ENDROOT
BRANCH   1   3
ATOM      3  N   UNL d   1      53.725  33.523  53.862  0.00  0.00    -0.293 N 
ATOM      4  C   UNL d   1      53.304  34.018  53.351  0.00  0.00     0.100 A 
ATOM      5  C   UNL d   1      52.901  34.673  53.650  0.00  0.00     0.100 A 
ATOM      6  N   UNL d   1      52.919  34.833  54.458  0.00  0.00    -0.299 N 
ATOM      7  C   UNL d   1      53.340  34.338  54.968  0.00  0.00     0.100 A 
ATOM      8  C   UNL d   1      52.516  35.490  54.758  0.00  0.00     0.100 C 
ATOM      9  C   UNL d   1      53.745  33.679  54.664  0.00  0.00     0.100 A 
ENDBRANCH   1   3
BRANCH   1  10
ATOM     10  C   UNL d   1      53.737  32.138  53.491  0.00  0.00     0.027 A 
ATOM     11  C   UNL d   1      53.168  32.018  52.897  0.00  0.00     0.003 A 
ATOM     12  C   UNL d   1      52.782  31.293  52.837  0.00  0.00     0.007 A 
ATOM     13  C   UNL d   1      52.960  30.687  53.365  0.00  0.00     0.035 A 
ATOM     14  C   UNL d   1      53.529  30.806  53.959  0.00  0.00     0.007 A 
ATOM     15 BR   UNL d   1      52.573  29.958  53.305  0.00  0.00    -0.049 Br
ATOM     16  C   UNL d   1      53.915  31.531  54.019  0.00  0.00     0.003 A 
ENDBRANCH   1  10
TORSDOF 2
ENDMDL
MODEL 4
REMARK VINA RESULT:      -7.1      1.928      2.695
REMARK  2 active torsions:
REMARK  status: ('A' for Active; 'I' for Inactive)
REMARK    1  A    between atoms: N_2  and  C_1 
REMARK    2  A    between atoms: C_4  and  C_1 
ROOT
ATOM      1  C   UNL d   1      54.112  32.781  53.535  0.00  0.00     0.120 C 
ATOM      2  S   UNL d   1      54.904  32.809  53.302  0.00  0.00    -0.059 SA
ENDROOT
BRANCH   1   3
ATOM      3  N   UNL d   1      53.686  32.071  53.466  0.00  0.00    -0.293 N 
ATOM      4  C   UNL d   1      53.849  31.444  53.978  0.00  0.00     0.100 A 
ATOM      5  C   UNL d   1      53.428  30.737  53.912  0.00  0.00     0.100 A 
ATOM      6  N   UNL d   1      52.845  30.659  53.335  0.00  0.00    -0.299 N 
ATOM      7  C   UNL d   1      52.683  31.287  52.823  0.00  0.00     0.100 A 
ATOM      8  C   UNL d   1      52.422  29.951  53.267  0.00  0.00     0.100 C 
ATOM      9  C   UNL d   1      53.109  31.997  52.892  0.00  0.00     0.100 A 
ENDBRANCH   1   3
BRANCH   1  10
ATOM     10  C   UNL d   1      53.738  33.455  53.837  0.00  0.00     0.027 A 
ATOM     11  C   UNL d   1      53.316  33.965  53.334  0.00  0.00     0.003 A 
ATOM     12  C   UNL d   1      52.946  34.634  53.642  0.00  0.00     0.007 A 
ATOM     13  C   UNL d   1      52.995  34.798  54.448  0.00  0.00     0.035 A 
ATOM     14  C   UNL d   1      53.418  34.288  54.950  0.00  0.00     0.007 A 
ATOM     15 BR   UNL d   1      52.625  35.469  54.758  0.00  0.00    -0.049 Br
ATOM     16  C   UNL d   1      53.787  33.620  54.643  0.00  0.00     0.003 A 
ENDBRANCH   1  10
TORSDOF 2
ENDMDL
