MODEL 1
REMARK VINA RESULT:      -6.9      0.000      0.000
REMARK  5 active torsions:
REMARK  status: ('A' for Active; 'I' for Inactive)
REMARK    1  A    between atoms: N_2  and  S_1 
REMARK    2  A    between atoms: C_7  and  S_1 
REMARK    3  A    between atoms: C_3  and  N_2 
REMARK    4  A    between atoms: C_14  and  C_4 
REMARK    5  A    between atoms: O_19  and  C_16 
ROOT
ATOM      1  N   UNL d   1     -48.042  12.778  22.990  0.00  0.00    -0.158 NA
ENDROOT
BRANCH   1   2
ATOM      2  S   UNL d   1     -47.124  12.980  23.017  0.00  0.00     0.285 S 
ATOM      3  O   UNL d   1     -47.060  13.613  23.698  0.00  0.00    -0.198 OA
ATOM      4  O   UNL d   1     -47.206  12.337  22.329  0.00  0.00    -0.198 OA
BRANCH   2   5
ATOM      5  C   UNL d   1     -46.436  12.896  22.779  0.00  0.00     0.105 A 
ATOM      6  C   UNL d   1     -46.047  12.303  22.991  0.00  0.00     0.015 A 
ATOM      7  C   UNL d   1     -45.354  12.220  22.750  0.00  0.00     0.025 A 
ATOM      8  C   UNL d   1     -45.042  12.722  22.299  0.00  0.00     0.094 A 
ATOM      9  C   UNL d   1     -45.431  13.314  22.087  0.00  0.00     0.025 A 
ATOM     10  C   UNL d   1     -46.138  13.404  22.329  0.00  0.00     0.015 A 
BRANCH   8  11
ATOM     11  O   UNL d   1     -44.352  12.627  22.067  0.00  0.00    -0.328 OA
ATOM     12  C   UNL d   1     -44.064  12.900  21.457  0.00  0.00     0.181 C 
ENDBRANCH   8  11
ENDBRANCH   2   5
ENDBRANCH   1   2
BRANCH   1  13
ATOM     13  C   UNL d   1     -48.806  13.081  23.154  0.00  0.00     0.094 A 
ATOM     14  C   UNL d   1     -48.978  13.864  22.974  0.00  0.00     0.023 A 
ATOM     15  C   UNL d   1     -49.740  14.166  23.138  0.00  0.00     0.041 A 
ATOM     16  C   UNL d   1     -50.314  13.678  23.477  0.00  0.00     0.196 A 
ATOM     17  C   UNL d   1     -50.130  12.889  23.654  0.00  0.00     0.044 A 
ATOM     18  O   UNL d   1     -51.064  13.974  23.638  0.00  0.00    -0.287 OA
ATOM     19  C   UNL d   1     -49.379  12.591  23.493  0.00  0.00     0.022 A 
ATOM     20  C   UNL d   1     -49.196  11.803  23.671  0.00  0.00     0.002 C 
BRANCH  15  21
ATOM     21  C   UNL d   1     -49.924  14.954  22.961  0.00  0.00     0.003 C 
ATOM     22  C   UNL d   1     -49.855  15.541  23.543  0.00  0.00     0.000 C 
ATOM     23  C   UNL d   1     -50.182  15.160  22.187  0.00  0.00     0.000 C 
ENDBRANCH  15  21
ENDBRANCH   1  13
TORSDOF 5
ENDMDL
MODEL 2
REMARK VINA RESULT:      -5.6      8.486      9.635
REMARK  5 active torsions:
REMARK  status: ('A' for Active; 'I' for Inactive)
REMARK    1  A    between atoms: N_2  and  S_1 
REMARK    2  A    between atoms: C_7  and  S_1 
REMARK    3  A    between atoms: C_3  and  N_2 
REMARK    4  A    between atoms: C_14  and  C_4 
REMARK    5  A    between atoms: O_19  and  C_16 
ROOT
ATOM      1  N   UNL d   1     -39.762  14.676  20.119  0.00  0.00    -0.158 NA
ENDROOT
BRANCH   1   2
ATOM      2  S   UNL d   1     -39.128  14.440  20.773  0.00  0.00     0.285 S 
ATOM      3  O   UNL d   1     -38.413  15.012  20.600  0.00  0.00    -0.198 OA
ATOM      4  O   UNL d   1     -39.863  13.867  20.936  0.00  0.00    -0.198 OA
BRANCH   2   5
ATOM      5  C   UNL d   1     -38.908  14.040  21.346  0.00  0.00     0.105 A 
ATOM      6  C   UNL d   1     -38.328  13.588  21.273  0.00  0.00     0.015 A 
ATOM      7  C   UNL d   1     -38.106  13.184  21.851  0.00  0.00     0.025 A 
ATOM      8  C   UNL d   1     -38.459  13.227  22.505  0.00  0.00     0.094 A 
ATOM      9  C   UNL d   1     -39.039  13.679  22.577  0.00  0.00     0.025 A 
ATOM     10  C   UNL d   1     -39.269  14.092  21.992  0.00  0.00     0.015 A 
BRANCH   8  11
ATOM     11  O   UNL d   1     -38.230  12.822  23.071  0.00  0.00    -0.328 OA
ATOM     12  C   UNL d   1     -37.952  13.075  23.695  0.00  0.00     0.181 C 
ENDBRANCH   8  11
ENDBRANCH   2   5
ENDBRANCH   1   2
BRANCH   1  13
ATOM     13  C   UNL d   1     -39.879  14.777  19.296  0.00  0.00     0.094 A 
ATOM     14  C   UNL d   1     -39.435  14.331  18.767  0.00  0.00     0.023 A 
ATOM     15  C   UNL d   1     -39.552  14.432  17.945  0.00  0.00     0.041 A 
ATOM     16  C   UNL d   1     -40.110  14.976  17.671  0.00  0.00     0.196 A 
ATOM     17  C   UNL d   1     -40.552  15.421  18.213  0.00  0.00     0.044 A 
ATOM     18  O   UNL d   1     -40.225  15.076  16.862  0.00  0.00    -0.287 OA
ATOM     19  C   UNL d   1     -40.437  15.322  19.023  0.00  0.00     0.022 A 
ATOM     20  C   UNL d   1     -40.879  15.766  19.564  0.00  0.00     0.002 C 
BRANCH  15  21
ATOM     21  C   UNL d   1     -39.110  13.988  17.403  0.00  0.00     0.003 C 
ATOM     22  C   UNL d   1     -38.486  14.339  16.984  0.00  0.00     0.000 C 
ATOM     23  C   UNL d   1     -39.296  13.177  17.277  0.00  0.00     0.000 C 
ENDBRANCH  15  21
ENDBRANCH   1  13
TORSDOF 5
ENDMDL
MODEL 3
REMARK VINA RESULT:      -5.4      8.516     10.043
REMARK  5 active torsions:
REMARK  status: ('A' for Active; 'I' for Inactive)
REMARK    1  A    between atoms: N_2  and  S_1 
REMARK    2  A    between atoms: C_7  and  S_1 
REMARK    3  A    between atoms: C_3  and  N_2 
REMARK    4  A    between atoms: C_14  and  C_4 
REMARK    5  A    between atoms: O_19  and  C_16 
ROOT
ATOM      1  N   UNL d   1     -39.726  14.881  18.555  0.00  0.00    -0.158 NA
ENDROOT
BRANCH   1   2
ATOM      2  S   UNL d   1     -39.050  14.739  17.916  0.00  0.00     0.285 S 
ATOM      3  O   UNL d   1     -38.392  15.354  18.155  0.00  0.00    -0.198 OA
ATOM      4  O   UNL d   1     -39.728  14.121  17.686  0.00  0.00    -0.198 OA
BRANCH   2   5
ATOM      5  C   UNL d   1     -38.776  14.396  17.330  0.00  0.00     0.105 A 
ATOM      6  C   UNL d   1     -38.636  14.782  16.714  0.00  0.00     0.015 A 
ATOM      7  C   UNL d   1     -38.360  14.435  16.123  0.00  0.00     0.025 A 
ATOM      8  C   UNL d   1     -38.220  13.704  16.139  0.00  0.00     0.094 A 
ATOM      9  C   UNL d   1     -38.360  13.319  16.754  0.00  0.00     0.025 A 
ATOM     10  C   UNL d   1     -38.641  13.668  17.358  0.00  0.00     0.015 A 
BRANCH   8  11
ATOM     11  O   UNL d   1     -37.946  13.372  15.546  0.00  0.00    -0.328 OA
ATOM     12  C   UNL d   1     -37.947  13.637  14.867  0.00  0.00     0.181 C 
ENDBRANCH   8  11
ENDBRANCH   2   5
ENDBRANCH   1   2
BRANCH   1  13
ATOM     13  C   UNL d   1     -39.868  15.073  19.357  0.00  0.00     0.094 A 
ATOM     14  C   UNL d   1     -39.392  14.745  19.942  0.00  0.00     0.023 A 
ATOM     15  C   UNL d   1     -39.535  14.937  20.743  0.00  0.00     0.041 A 
ATOM     16  C   UNL d   1     -40.149  15.453  20.942  0.00  0.00     0.196 A 
ATOM     17  C   UNL d   1     -40.622  15.777  20.344  0.00  0.00     0.044 A 
ATOM     18  O   UNL d   1     -40.289  15.642  21.731  0.00  0.00    -0.287 OA
ATOM     19  C   UNL d   1     -40.483  15.588  19.555  0.00  0.00     0.022 A 
ATOM     20  C   UNL d   1     -40.956  15.914  18.958  0.00  0.00     0.002 C 
BRANCH  15  21
ATOM     21  C   UNL d   1     -39.061  14.612  21.341  0.00  0.00     0.003 C 
ATOM     22  C   UNL d   1     -38.391  15.020  21.612  0.00  0.00     0.000 C 
ATOM     23  C   UNL d   1     -39.261  13.866  21.674  0.00  0.00     0.000 C 
ENDBRANCH  15  21
ENDBRANCH   1  13
TORSDOF 5
ENDMDL
MODEL 4
REMARK VINA RESULT:      -5.2      8.828      9.954
REMARK  5 active torsions:
REMARK  status: ('A' for Active; 'I' for Inactive)
REMARK    1  A    between atoms: N_2  and  S_1 
REMARK    2  A    between atoms: C_7  and  S_1 
REMARK    3  A    between atoms: C_3  and  N_2 
REMARK    4  A    between atoms: C_14  and  C_4 
REMARK    5  A    between atoms: O_19  and  C_16 
ROOT
ATOM      1  N   UNL d   1     -39.018  14.114  19.463  0.00  0.00    -0.158 NA
ENDROOT
BRANCH   1   2
ATOM      2  S   UNL d   1     -39.432  14.464  20.231  0.00  0.00     0.285 S 
ATOM      3  O   UNL d   1     -40.329  14.236  20.120  0.00  0.00    -0.198 OA
ATOM      4  O   UNL d   1     -38.519  14.689  20.330  0.00  0.00    -0.198 OA
BRANCH   2   5
ATOM      5  C   UNL d   1     -39.413  14.823  20.870  0.00  0.00     0.105 A 
ATOM      6  C   UNL d   1     -39.782  15.461  20.941  0.00  0.00     0.015 A 
ATOM      7  C   UNL d   1     -39.761  15.822  21.585  0.00  0.00     0.025 A 
ATOM      8  C   UNL d   1     -39.376  15.554  22.162  0.00  0.00     0.094 A 
ATOM      9  C   UNL d   1     -39.007  14.917  22.091  0.00  0.00     0.025 A 
ATOM     10  C   UNL d   1     -39.025  14.545  21.437  0.00  0.00     0.015 A 
BRANCH   8  11
ATOM     11  O   UNL d   1     -39.364  15.922  22.796  0.00  0.00    -0.328 OA
ATOM     12  C   UNL d   1     -38.856  15.865  23.315  0.00  0.00     0.181 C 
ENDBRANCH   8  11
ENDBRANCH   2   5
ENDBRANCH   1   2
BRANCH   1  13
ATOM     13  C   UNL d   1     -39.054  14.092  18.627  0.00  0.00     0.094 A 
ATOM     14  C   UNL d   1     -39.466  14.678  18.223  0.00  0.00     0.023 A 
ATOM     15  C   UNL d   1     -39.500  14.656  17.388  0.00  0.00     0.041 A 
ATOM     16  C   UNL d   1     -39.122  14.049  16.975  0.00  0.00     0.196 A 
ATOM     17  C   UNL d   1     -38.710  13.463  17.391  0.00  0.00     0.044 A 
ATOM     18  O   UNL d   1     -39.157  14.027  16.153  0.00  0.00    -0.287 OA
ATOM     19  C   UNL d   1     -38.675  13.484  18.214  0.00  0.00     0.022 A 
ATOM     20  C   UNL d   1     -38.262  12.898  18.629  0.00  0.00     0.002 C 
BRANCH  15  21
ATOM     21  C   UNL d   1     -39.913  15.242  16.972  0.00  0.00     0.003 C 
ATOM     22  C   UNL d   1     -40.728  15.163  16.836  0.00  0.00     0.000 C 
ATOM     23  C   UNL d   1     -39.504  15.919  16.687  0.00  0.00     0.000 C 
ENDBRANCH  15  21
ENDBRANCH   1  13
TORSDOF 5
ENDMDL
MODEL 5
REMARK VINA RESULT:      -4.8      8.597      9.857
REMARK  5 active torsions:
REMARK  status: ('A' for Active; 'I' for Inactive)
REMARK    1  A    between atoms: N_2  and  S_1 
REMARK    2  A    between atoms: C_7  and  S_1 
REMARK    3  A    between atoms: C_3  and  N_2 
REMARK    4  A    between atoms: C_14  and  C_4 
REMARK    5  A    between atoms: O_19  and  C_16 
ROOT
ATOM      1  N   UNL d   1     -39.036  14.461  19.066  0.00  0.00    -0.158 NA
ENDROOT
BRANCH   1   2
ATOM      2  S   UNL d   1     -39.771  14.520  18.482  0.00  0.00     0.285 S 
ATOM      3  O   UNL d   1     -40.227  13.720  18.623  0.00  0.00    -0.198 OA
ATOM      4  O   UNL d   1     -39.297  15.328  18.351  0.00  0.00    -0.198 OA
BRANCH   2   5
ATOM      5  C   UNL d   1     -40.168  14.871  17.976  0.00  0.00     0.105 A 
ATOM      6  C   UNL d   1     -40.283  14.552  17.318  0.00  0.00     0.015 A 
ATOM      7  C   UNL d   1     -40.683  14.906  16.808  0.00  0.00     0.025 A 
ATOM      8  C   UNL d   1     -40.972  15.577  16.947  0.00  0.00     0.094 A 
ATOM      9  C   UNL d   1     -40.857  15.896  17.604  0.00  0.00     0.025 A 
ATOM     10  C   UNL d   1     -40.450  15.539  18.127  0.00  0.00     0.015 A 
BRANCH   8  11
ATOM     11  O   UNL d   1     -41.368  15.918  16.432  0.00  0.00    -0.328 OA
ATOM     12  C   UNL d   1     -42.094  15.922  16.383  0.00  0.00     0.181 C 
ENDBRANCH   8  11
ENDBRANCH   2   5
ENDBRANCH   1   2
BRANCH   1  13
ATOM     13  C   UNL d   1     -38.791  14.186  19.818  0.00  0.00     0.094 A 
ATOM     14  C   UNL d   1     -39.098  14.535  20.497  0.00  0.00     0.023 A 
ATOM     15  C   UNL d   1     -38.853  14.260  21.247  0.00  0.00     0.041 A 
ATOM     16  C   UNL d   1     -38.306  13.643  21.304  0.00  0.00     0.196 A 
ATOM     17  C   UNL d   1     -38.003  13.299  20.614  0.00  0.00     0.044 A 
ATOM     18  O   UNL d   1     -38.065  13.373  22.043  0.00  0.00    -0.287 OA
ATOM     19  C   UNL d   1     -38.244  13.569  19.873  0.00  0.00     0.022 A 
ATOM     20  C   UNL d   1     -37.940  13.224  19.184  0.00  0.00     0.002 C 
BRANCH  15  21
ATOM     21  C   UNL d   1     -39.157  14.605  21.937  0.00  0.00     0.003 C 
ATOM     22  C   UNL d   1     -38.644  14.868  22.534  0.00  0.00     0.000 C 
ATOM     23  C   UNL d   1     -39.988  14.688  22.032  0.00  0.00     0.000 C 
ENDBRANCH  15  21
ENDBRANCH   1  13
TORSDOF 5
ENDMDL
