MODEL 1
REMARK VINA RESULT:      52.3      0.000      0.000
REMARK  8 active torsions:
REMARK  status: ('A' for Active; 'I' for Inactive)
REMARK    1  A    between atoms: S_13  and  C_4 
REMARK    2  A    between atoms: C_5  and  N_10 
REMARK    3  A    between atoms: C_20  and  N_6 
REMARK       I    between atoms: N_10  and  C_14 
REMARK    4  A    between atoms: C_19  and  S_13 
REMARK    5  A    between atoms: C_14  and  C_19 
REMARK    6  A    between atoms: C_22  and  C_20 
REMARK    7  A    between atoms: C_28  and  C_22 
REMARK    8  A    between atoms: N_25  and  C_28 
ROOT
ATOM      1  N   UNL d   1      13.634  14.007  -3.369  0.00  0.00    -0.185 NA
ATOM      2  C   UNL d   1      13.836  13.362  -2.897  0.00  0.00     0.354 A 
ATOM      3  C   UNL d   1      13.129  13.117  -4.368  0.00  0.00     0.040 A 
ATOM      4  C   UNL d   1      13.280  13.885  -4.105  0.00  0.00     0.117 A 
ATOM      5  N   UNL d   1      13.685  12.595  -3.160  0.00  0.00    -0.258 N 
ATOM      6  C   UNL d   1      13.332  12.472  -3.896  0.00  0.00     0.070 A 
ATOM      7  O   UNL d   1      14.192  13.478  -2.156  0.00  0.00    -0.244 OA
ATOM      8  C   UNL d   1      12.792  12.823  -5.057  0.00  0.00     0.004 A 
ATOM      9  C   UNL d   1      13.119  11.784  -4.296  0.00  0.00     0.018 A 
ATOM     10  C   UNL d   1      12.788  11.996  -5.008  0.00  0.00     0.002 A 
ENDROOT
BRANCH   4  11
ATOM     11  S   UNL d   1      13.077  14.530  -4.578  0.00  0.00    -0.062 SA
BRANCH  11  12
ATOM     12  C   UNL d   1      13.661  14.972  -4.937  0.00  0.00     0.099 C 
BRANCH  12  13
ATOM     13  C   UNL d   1      13.546  15.778  -5.070  0.00  0.00     0.288 C 
ATOM     14  N   UNL d   1      13.943  16.156  -5.682  0.00  0.00    -0.182 NA
ATOM     15  O   UNL d   1      13.031  16.205  -4.587  0.00  0.00    -0.265 OA
BRANCH  14  16
ATOM     16  C   UNL d   1      13.827  16.962  -5.815  0.00  0.00     0.197 A 
ATOM     17  N   UNL d   1      14.477  17.469  -5.865  0.00  0.00    -0.221 NA
ATOM     18  C   UNL d   1      14.187  18.235  -5.999  0.00  0.00     0.090 A 
ATOM     19  C   UNL d   1      14.569  18.959  -6.096  0.00  0.00     0.020 A 
ATOM     20  C   UNL d   1      13.373  18.198  -6.031  0.00  0.00     0.050 A 
ATOM     21  C   UNL d   1      14.129  19.639  -6.224  0.00  0.00     0.002 A 
ATOM     22  C   UNL d   1      13.310  19.602  -6.256  0.00  0.00     0.001 A 
ATOM     23  C   UNL d   1      12.928  18.882  -6.160  0.00  0.00     0.008 A 
ATOM     24  C   UNL d   1      12.876  20.306  -6.388  0.00  0.00     0.000 C 
ATOM     25  S   UNL d   1      13.142  17.410  -5.918  0.00  0.00    -0.047 SA
ENDBRANCH  14  16
ENDBRANCH  12  13
ENDBRANCH  11  12
ENDBRANCH   4  11
BRANCH   5  26
ATOM     26  C   UNL d   1      13.888  11.949  -2.688  0.00  0.00     0.086 C 
BRANCH  26  27
ATOM     27  C   UNL d   1      13.574  11.873  -1.936  0.00  0.00     0.038 C 
BRANCH  27  28
ATOM     28  C   UNL d   1      14.071  11.779  -1.285  0.00  0.00     0.082 C 
BRANCH  28  29
ATOM     29  N   UNL d   1      14.092  12.352  -0.696  0.00  0.00    -0.300 N 
ATOM     30  C   UNL d   1      14.721  12.885  -0.659  0.00  0.00     0.100 C 
ATOM     31  C   UNL d   1      13.483  12.395  -0.141  0.00  0.00     0.100 C 
ENDBRANCH  28  29
ENDBRANCH  27  28
ENDBRANCH  26  27
ENDBRANCH   5  26
TORSDOF 8
ENDMDL
