MODEL 1
REMARK VINA RESULT:      14.6      0.000      0.000
REMARK  2 active torsions:
REMARK  status: ('A' for Active; 'I' for Inactive)
REMARK    1  A    between atoms: C_6  and  C_3 
REMARK    2  A    between atoms: C_9  and  C_6 
ROOT
ATOM      1  C   UNL d   1     -57.852 -98.781 -45.020  0.00  0.00     0.011 C 
ENDROOT
BRANCH   1   2
ATOM      2  C   UNL d   1     -58.551 -98.788 -44.560  0.00  0.00     0.092 A 
ATOM      3  C   UNL d   1     -59.309 -98.818 -44.806  0.00  0.00     0.288 A 
ATOM      4  N   UNL d   1     -59.790 -98.813 -44.167  0.00  0.00    -0.163 NA
ATOM      5  O   UNL d   1     -59.552 -98.850 -45.633  0.00  0.00    -0.265 OA
ATOM      6  C   UNL d   1     -59.280 -98.778 -43.500  0.00  0.00     0.313 A 
ATOM      7  S   UNL d   1     -58.527 -98.764 -43.783  0.00  0.00    -0.021 SA
ATOM      8  O   UNL d   1     -59.536 -98.762 -42.695  0.00  0.00    -0.258 OA
ENDBRANCH   1   2
BRANCH   1   9
ATOM      9  C   UNL d   1     -57.089 -98.792 -44.702  0.00  0.00     0.001 A 
ATOM     10  C   UNL d   1     -56.932 -98.822 -43.893  0.00  0.00     0.001 A 
ATOM     11  C   UNL d   1     -56.176 -98.832 -43.623  0.00  0.00     0.011 A 
ATOM     12  C   UNL d   1     -55.523 -98.812 -44.163  0.00  0.00     0.058 A 
ATOM     13  C   UNL d   1     -55.680 -98.782 -44.972  0.00  0.00     0.011 A 
ATOM     14 CL   UNL d   1     -54.739 -98.821 -43.902  0.00  0.00    -0.082 Cl
ATOM     15  C   UNL d   1     -56.474 -98.772 -45.250  0.00  0.00     0.001 A 
ENDBRANCH   1   9
TORSDOF 2
ENDMDL
MODEL 2
REMARK VINA RESULT:      15.9      2.793      3.491
REMARK  2 active torsions:
REMARK  status: ('A' for Active; 'I' for Inactive)
REMARK    1  A    between atoms: C_6  and  C_3 
REMARK    2  A    between atoms: C_9  and  C_6 
ROOT
ATOM      1  C   UNL d   1     -56.229 -98.759 -44.180  0.00  0.00     0.011 C 
ENDROOT
BRANCH   1   2
ATOM      2  C   UNL d   1     -55.735 -99.420 -44.319  0.00  0.00     0.092 A 
ATOM      3  C   UNL d   1     -55.065 -99.459 -44.751  0.00  0.00     0.288 A 
ATOM      4  N   UNL d   1     -54.782-100.207 -44.726  0.00  0.00    -0.163 NA
ATOM      5  O   UNL d   1     -54.716 -98.791 -45.171  0.00  0.00    -0.265 OA
ATOM      6  C   UNL d   1     -55.323-100.637 -44.246  0.00  0.00     0.313 A 
ATOM      7  S   UNL d   1     -55.894-100.118 -44.016  0.00  0.00    -0.021 SA
ATOM      8  O   UNL d   1     -55.256-101.457 -44.057  0.00  0.00    -0.258 OA
ENDBRANCH   1   2
BRANCH   1   9
ATOM      9  C   UNL d   1     -57.048 -98.764 -44.289  0.00  0.00     0.001 A 
ATOM     10  C   UNL d   1     -57.591 -98.768 -43.668  0.00  0.00     0.001 A 
ATOM     11  C   UNL d   1     -58.381 -98.772 -43.814  0.00  0.00     0.011 A 
ATOM     12  C   UNL d   1     -58.673 -98.773 -44.610  0.00  0.00     0.058 A 
ATOM     13  C   UNL d   1     -58.130 -98.769 -45.231  0.00  0.00     0.011 A 
ATOM     14 CL   UNL d   1     -59.482 -98.778 -44.779  0.00  0.00    -0.082 Cl
ATOM     15  C   UNL d   1     -57.304 -98.764 -45.072  0.00  0.00     0.001 A 
ENDBRANCH   1   9
TORSDOF 2
ENDMDL
