MODEL 1
REMARK VINA RESULT:      -5.8      0.000      0.000
REMARK  1 active torsions:
REMARK  status: ('A' for Active; 'I' for Inactive)
REMARK    1  A    between atoms: C_8  and  CA_5 
ROOT
ATOM      1  N   UNL d   1     -41.729-121.934 -54.013  0.00  0.00    -0.224 NA
ATOM      2  C   UNL d   1     -41.528-122.354 -53.340  0.00  0.00     0.162 A 
ATOM      3  N   UNL d   1     -41.500-121.975 -52.615  0.00  0.00    -0.225 NA
ATOM      4  C   UNL d   1     -41.355-123.159 -53.397  0.00  0.00     0.036 A 
ATOM      5  CA  UNL d   1     -41.761-122.304 -54.746  0.00  0.00     0.125 A 
ATOM      6  C   UNL d   1     -41.384-123.539 -54.127  0.00  0.00     0.005 A 
ATOM      7  C   UNL d   1     -41.588-123.109 -54.803  0.00  0.00     0.023 A 
ATOM      8  C   UNL d   1     -41.296-122.404 -51.939  0.00  0.00     0.101 A 
ATOM      9  C   UNL d   1     -41.153-123.588 -52.730  0.00  0.00     0.005 A 
ATOM     10  C   UNL d   1     -41.123-123.209 -51.996  0.00  0.00     0.021 A 
ENDROOT
BRANCH   5  11
ATOM     11  C   UNL d   1     -41.961-121.884 -55.414  0.00  0.00     0.253 C 
ATOM     12  O   UNL d   1     -42.749-121.854 -55.658  0.00  0.00    -0.281 OA
ENDBRANCH   5  11
TORSDOF 1
ENDMDL
MODEL 2
REMARK VINA RESULT:      -5.5      1.415      2.593
REMARK  1 active torsions:
REMARK  status: ('A' for Active; 'I' for Inactive)
REMARK    1  A    between atoms: C_8  and  CA_5 
ROOT
ATOM      1  N   UNL d   1     -41.869-121.921 -53.018  0.00  0.00    -0.224 NA
ATOM      2  C   UNL d   1     -41.873-122.053 -53.826  0.00  0.00     0.162 A 
ATOM      3  N   UNL d   1     -42.247-121.523 -54.325  0.00  0.00    -0.225 NA
ATOM      4  C   UNL d   1     -41.499-122.721 -54.132  0.00  0.00     0.036 A 
ATOM      5  CA  UNL d   1     -41.497-122.446 -52.507  0.00  0.00     0.125 A 
ATOM      6  C   UNL d   1     -41.123-123.254 -53.628  0.00  0.00     0.005 A 
ATOM      7  C   UNL d   1     -41.123-123.114 -52.814  0.00  0.00     0.023 A 
ATOM      8  C   UNL d   1     -42.248-121.661 -55.139  0.00  0.00     0.101 A 
ATOM      9  C   UNL d   1     -41.497-122.863 -54.938  0.00  0.00     0.005 A 
ATOM     10  C   UNL d   1     -41.873-122.330 -55.445  0.00  0.00     0.021 A 
ENDROOT
BRANCH   5  11
ATOM     11  C   UNL d   1     -41.494-122.312 -51.704  0.00  0.00     0.253 C 
ATOM     12  O   UNL d   1     -42.111-122.601 -51.238  0.00  0.00    -0.281 OA
ENDBRANCH   5  11
TORSDOF 1
ENDMDL
MODEL 3
REMARK VINA RESULT:      -4.8      0.712      1.128
REMARK  1 active torsions:
REMARK  status: ('A' for Active; 'I' for Inactive)
REMARK    1  A    between atoms: C_8  and  CA_5 
ROOT
ATOM      1  N   UNL d   1     -41.554-122.251 -53.144  0.00  0.00    -0.224 NA
ATOM      2  C   UNL d   1     -41.448-122.503 -52.373  0.00  0.00     0.162 A 
ATOM      3  N   UNL d   1     -41.556-121.978 -51.754  0.00  0.00    -0.225 NA
ATOM      4  C   UNL d   1     -41.232-123.285 -52.224  0.00  0.00     0.036 A 
ATOM      5  CA  UNL d   1     -41.448-122.769 -53.774  0.00  0.00     0.125 A 
ATOM      6  C   UNL d   1     -41.123-123.811 -52.848  0.00  0.00     0.005 A 
ATOM      7  C   UNL d   1     -41.232-123.551 -53.625  0.00  0.00     0.023 A 
ATOM      8  C   UNL d   1     -41.447-122.237 -50.977  0.00  0.00     0.101 A 
ATOM      9  C   UNL d   1     -41.123-123.547 -51.456  0.00  0.00     0.005 A 
ATOM     10  C   UNL d   1     -41.231-123.020 -50.828  0.00  0.00     0.021 A 
ENDROOT
BRANCH   5  11
ATOM     11  C   UNL d   1     -41.555-122.517 -54.540  0.00  0.00     0.253 C 
ATOM     12  O   UNL d   1     -42.318-122.417 -54.837  0.00  0.00    -0.281 OA
ENDBRANCH   5  11
TORSDOF 1
ENDMDL
MODEL 4
REMARK VINA RESULT:      -4.3      2.137      3.088
REMARK  1 active torsions:
REMARK  status: ('A' for Active; 'I' for Inactive)
REMARK    1  A    between atoms: C_8  and  CA_5 
ROOT
ATOM      1  N   UNL d   1     -42.087-122.276 -51.209  0.00  0.00    -0.224 NA
ATOM      2  C   UNL d   1     -42.262-122.664 -50.510  0.00  0.00     0.162 A 
ATOM      3  N   UNL d   1     -42.827-122.358 -50.003  0.00  0.00    -0.225 NA
ATOM      4  C   UNL d   1     -41.866-123.362 -50.320  0.00  0.00     0.036 A 
ATOM      5  CA  UNL d   1     -41.521-122.574 -51.725  0.00  0.00     0.125 A 
ATOM      6  C   UNL d   1     -41.297-123.669 -50.831  0.00  0.00     0.005 A 
ATOM      7  C   UNL d   1     -41.125-123.272 -51.535  0.00  0.00     0.023 A 
ATOM      8  C   UNL d   1     -43.000-122.753 -49.299  0.00  0.00     0.101 A 
ATOM      9  C   UNL d   1     -42.033-123.758 -49.623  0.00  0.00     0.005 A 
ATOM     10  C   UNL d   1     -42.604-123.452 -49.109  0.00  0.00     0.021 A 
ENDROOT
BRANCH   5  11
ATOM     11  C   UNL d   1     -41.349-122.186 -52.420  0.00  0.00     0.253 C 
ATOM     12  O   UNL d   1     -41.810-122.320 -53.090  0.00  0.00    -0.281 OA
ENDBRANCH   5  11
TORSDOF 1
ENDMDL
MODEL 5
REMARK VINA RESULT:      -4.1      2.288      3.534
REMARK  1 active torsions:
REMARK  status: ('A' for Active; 'I' for Inactive)
REMARK    1  A    between atoms: C_8  and  CA_5 
ROOT
ATOM      1  N   UNL d   1     -41.676-123.596 -51.133  0.00  0.00    -0.224 NA
ATOM      2  C   UNL d   1     -41.498-123.304 -51.877  0.00  0.00     0.162 A 
ATOM      3  N   UNL d   1     -41.413-123.817 -52.508  0.00  0.00    -0.225 NA
ATOM      4  C   UNL d   1     -41.405-122.491 -51.984  0.00  0.00     0.036 A 
ATOM      5  CA  UNL d   1     -41.764-123.090 -50.492  0.00  0.00     0.125 A 
ATOM      6  C   UNL d   1     -41.490-121.976 -51.348  0.00  0.00     0.005 A 
ATOM      7  C   UNL d   1     -41.670-122.277 -50.600  0.00  0.00     0.023 A 
ATOM      8  C   UNL d   1     -41.234-123.517 -53.256  0.00  0.00     0.101 A 
ATOM      9  C   UNL d   1     -41.226-122.188 -52.724  0.00  0.00     0.005 A 
ATOM     10  C   UNL d   1     -41.140-122.704 -53.364  0.00  0.00     0.021 A 
ENDROOT
BRANCH   5  11
ATOM     11  C   UNL d   1     -41.941-123.383 -49.754  0.00  0.00     0.253 C 
ATOM     12  O   UNL d   1     -42.609-123.111 -49.354  0.00  0.00    -0.281 OA
ENDBRANCH   5  11
TORSDOF 1
ENDMDL
