MODEL 1
REMARK VINA RESULT:      -4.0      0.000      0.000
REMARK  5 active torsions:
REMARK  status: ('A' for Active; 'I' for Inactive)
REMARK    1  A    between atoms: C_10  and  N_2 
REMARK    2  A    between atoms: C_11  and  N_4 
REMARK    3  A    between atoms: C_12  and  C_11 
REMARK       I    between atoms: N_16  and  C_12 
REMARK       I    between atoms: C_15  and  N_17 
REMARK    4  A    between atoms: C_22  and  N_16 
REMARK    5  A    between atoms: N_17  and  C_23 
ROOT
ATOM      1  C   UNL d   1     -39.547  15.081  20.524  0.00  0.00     0.172 A 
ATOM      2  N   UNL d   1     -40.363  14.840  19.364  0.00  0.00    -0.226 N 
ATOM      3  C   UNL d   1     -40.718  14.190  19.770  0.00  0.00     0.342 A 
ATOM      4  N   UNL d   1     -40.484  14.004  20.530  0.00  0.00    -0.252 N 
ATOM      5  C   UNL d   1     -39.904  14.444  20.907  0.00  0.00     0.098 A 
ATOM      6  C   UNL d   1     -39.780  15.276  19.749  0.00  0.00     0.292 A 
ATOM      7  O   UNL d   1     -38.993  15.419  21.023  0.00  0.00    -0.301 OA
ATOM      8  C   UNL d   1     -39.551  14.407  21.646  0.00  0.00     0.041 A 
ATOM      9  C   UNL d   1     -38.998  15.006  21.702  0.00  0.00     0.102 A 
ATOM     10  O   UNL d   1     -41.314  13.733  19.393  0.00  0.00    -0.245 OA
ATOM     11  O   UNL d   1     -39.420  15.922  19.358  0.00  0.00    -0.264 OA
ATOM     12  C   UNL d   1     -39.672  13.887  22.286  0.00  0.00     0.004 A 
ATOM     13  C   UNL d   1     -38.555  15.099  22.397  0.00  0.00     0.025 A 
ATOM     14  C   UNL d   1     -39.229  13.980  22.981  0.00  0.00     0.000 A 
ATOM     15  C   UNL d   1     -38.680  14.585  23.021  0.00  0.00     0.002 A 
ENDROOT
BRANCH   4  16
ATOM     16  C   UNL d   1     -40.840  13.356  20.936  0.00  0.00     0.147 C 
BRANCH  16  17
ATOM     17  C   UNL d   1     -41.668  13.387  21.119  0.00  0.00     0.297 C 
ATOM     18  N   UNL d   1     -42.069  12.701  21.282  0.00  0.00    -0.207 NA
ATOM     19  O   UNL d   1     -42.049  14.118  21.128  0.00  0.00    -0.264 OA
BRANCH  18  20
ATOM     20  C   UNL d   1     -42.861  12.733  21.458  0.00  0.00     0.085 A 
ATOM     21  C   UNL d   1     -43.356  13.279  21.087  0.00  0.00     0.021 A 
ATOM     22  C   UNL d   1     -44.155  13.308  21.267  0.00  0.00     0.021 A 
ATOM     23  C   UNL d   1     -44.472  12.786  21.826  0.00  0.00     0.085 A 
ATOM     24  C   UNL d   1     -43.979  12.231  22.205  0.00  0.00     0.021 A 
ATOM     25  C   UNL d   1     -43.174  12.205  22.021  0.00  0.00     0.021 A 
BRANCH  23  26
ATOM     26  N   UNL d   1     -45.278  12.812  22.010  0.00  0.00    -0.208 NA
ATOM     27  C   UNL d   1     -45.608  13.511  22.319  0.00  0.00     0.279 C 
ATOM     28  O   UNL d   1     -46.389  13.532  22.497  0.00  0.00    -0.265 OA
ATOM     29  C   UNL d   1     -45.109  14.179  22.437  0.00  0.00     0.068 C 
ENDBRANCH  23  26
ENDBRANCH  18  20
ENDBRANCH  16  17
ENDBRANCH   4  16
BRANCH   2  30
ATOM     30  C   UNL d   1     -40.590  15.041  18.589  0.00  0.00     0.071 A 
ATOM     31  C   UNL d   1     -40.310  14.614  17.950  0.00  0.00     0.020 A 
ATOM     32  C   UNL d   1     -40.528  14.806  17.188  0.00  0.00     0.031 A 
ATOM     33  C   UNL d   1     -41.039  15.441  17.062  0.00  0.00     0.140 A 
ATOM     34  C   UNL d   1     -41.323  15.872  17.684  0.00  0.00     0.031 A 
ATOM     35  F   UNL d   1     -41.262  15.637  16.283  0.00  0.00    -0.204 F 
ATOM     36  C   UNL d   1     -41.100  15.676  18.463  0.00  0.00     0.020 A 
ENDBRANCH   2  30
TORSDOF 5
ENDMDL
