MODEL 1
REMARK VINA RESULT:      -7.2      0.000      0.000
REMARK  4 active torsions:
REMARK  status: ('A' for Active; 'I' for Inactive)
REMARK    1  A    between atoms: C_11  and  C_3 
REMARK    2  A    between atoms: N_10  and  C_4 
REMARK    3  A    between atoms: C_15  and  N_10 
REMARK    4  A    between atoms: C_16  and  C_15 
ROOT
ATOM      1  C   UNL d   1      52.342  34.120  53.723  0.00  0.00     0.167 A 
ATOM      2  N   UNL d   1      51.610  34.437  53.430  0.00  0.00    -0.195 N 
ATOM      3  C   UNL d   1      52.834  34.584  54.169  0.00  0.00     0.057 A 
ATOM      4  C   UNL d   1      51.132  33.964  52.989  0.00  0.00     0.167 A 
ATOM      5  N   UNL d   1      51.912  35.676  54.054  0.00  0.00    -0.161 NA
ATOM      6  N   UNL d   1      52.546  33.352  53.555  0.00  0.00    -0.227 NA
ATOM      7  C   UNL d   1      51.330  33.184  52.813  0.00  0.00     0.058 A 
ATOM      8  C   UNL d   1      52.621  35.369  54.338  0.00  0.00     0.124 A 
ATOM      9  C   UNL d   1      52.050  32.873  53.102  0.00  0.00     0.086 A 
ATOM     10  C   UNL d   1      52.266  32.061  52.924  0.00  0.00     0.021 C 
ENDROOT
BRANCH   4  11
ATOM     11  N   UNL d   1      50.392  34.279  52.691  0.00  0.00    -0.224 NA
BRANCH  11  12
ATOM     12  C   UNL d   1      49.908  34.309  51.983  0.00  0.00     0.120 C 
BRANCH  12  13
ATOM     13  C   UNL d   1      49.174  34.750  51.984  0.00  0.00     0.101 A 
ATOM     14  N   UNL d   1      48.951  35.192  52.691  0.00  0.00    -0.242 NA
ATOM     15  C   UNL d   1      48.217  35.632  52.691  0.00  0.00     0.099 A 
ATOM     16  C   UNL d   1      47.711  35.632  51.997  0.00  0.00     0.021 A 
ATOM     17  C   UNL d   1      47.940  35.191  51.301  0.00  0.00     0.003 A 
ATOM     18  C   UNL d   1      48.675  34.750  51.299  0.00  0.00     0.021 A 
ENDBRANCH  12  13
ENDBRANCH  11  12
ENDBRANCH   4  11
BRANCH   3  19
ATOM     19  C   UNL d   1      53.544  34.277  54.453  0.00  0.00     0.005 A 
ATOM     20  C   UNL d   1      54.218  34.332  54.002  0.00  0.00     0.001 A 
ATOM     21  C   UNL d   1      54.927  34.025  54.285  0.00  0.00     0.011 A 
ATOM     22  C   UNL d   1      54.951  33.669  55.016  0.00  0.00     0.058 A 
ATOM     23  C   UNL d   1      54.265  33.619  55.463  0.00  0.00     0.011 A 
ATOM     24 CL   UNL d   1      55.694  33.347  55.313  0.00  0.00    -0.082 Cl
ATOM     25  C   UNL d   1      53.567  33.921  55.184  0.00  0.00     0.001 A 
ENDBRANCH   3  19
TORSDOF 4
ENDMDL
MODEL 2
REMARK VINA RESULT:      -7.0      2.597      5.926
REMARK  4 active torsions:
REMARK  status: ('A' for Active; 'I' for Inactive)
REMARK    1  A    between atoms: C_11  and  C_3 
REMARK    2  A    between atoms: N_10  and  C_4 
REMARK    3  A    between atoms: C_15  and  N_10 
REMARK    4  A    between atoms: C_16  and  C_15 
ROOT
ATOM      1  C   UNL d   1      48.437  35.396  52.589  0.00  0.00     0.167 A 
ATOM      2  N   UNL d   1      49.211  35.246  52.904  0.00  0.00    -0.195 N 
ATOM      3  C   UNL d   1      47.910  35.847  53.008  0.00  0.00     0.057 A 
ATOM      4  C   UNL d   1      49.724  34.797  52.476  0.00  0.00     0.167 A 
ATOM      5  N   UNL d   1      48.880  36.015  54.051  0.00  0.00    -0.161 NA
ATOM      6  N   UNL d   1      48.226  35.087  51.867  0.00  0.00    -0.227 NA
ATOM      7  C   UNL d   1      49.520  34.479  51.744  0.00  0.00     0.058 A 
ATOM      8  C   UNL d   1      48.130  36.161  53.746  0.00  0.00     0.124 A 
ATOM      9  C   UNL d   1      48.757  34.627  51.434  0.00  0.00     0.086 A 
ATOM     10  C   UNL d   1      48.536  34.300  50.672  0.00  0.00     0.021 C 
ENDROOT
BRANCH   4  11
ATOM     11  N   UNL d   1      50.507  34.643  52.790  0.00  0.00    -0.224 NA
BRANCH  11  12
ATOM     12  C   UNL d   1      51.252  34.267  52.588  0.00  0.00     0.120 C 
BRANCH  12  13
ATOM     13  C   UNL d   1      51.892  34.253  53.157  0.00  0.00     0.101 A 
ATOM     14  N   UNL d   1      52.081  33.511  53.557  0.00  0.00    -0.242 NA
ATOM     15  C   UNL d   1      52.721  33.497  54.126  0.00  0.00     0.099 A 
ATOM     16  C   UNL d   1      53.166  34.212  54.295  0.00  0.00     0.021 A 
ATOM     17  C   UNL d   1      52.971  34.942  53.894  0.00  0.00     0.003 A 
ATOM     18  C   UNL d   1      52.331  34.957  53.324  0.00  0.00     0.021 A 
ENDBRANCH  12  13
ENDBRANCH  11  12
ENDBRANCH   4  11
BRANCH   3  19
ATOM     19  C   UNL d   1      47.159  35.992  52.703  0.00  0.00     0.005 A 
ATOM     20  C   UNL d   1      46.522  35.563  52.971  0.00  0.00     0.001 A 
ATOM     21  C   UNL d   1      45.772  35.708  52.666  0.00  0.00     0.011 A 
ATOM     22  C   UNL d   1      45.670  36.281  52.098  0.00  0.00     0.058 A 
ATOM     23  C   UNL d   1      46.318  36.709  51.834  0.00  0.00     0.011 A 
ATOM     24 CL   UNL d   1      44.883  36.433  51.779  0.00  0.00    -0.082 Cl
ATOM     25  C   UNL d   1      47.057  36.566  52.135  0.00  0.00     0.001 A 
ENDBRANCH   3  19
TORSDOF 4
ENDMDL
MODEL 3
REMARK VINA RESULT:      -6.8      0.876      1.783
REMARK  4 active torsions:
REMARK  status: ('A' for Active; 'I' for Inactive)
REMARK    1  A    between atoms: C_11  and  C_3 
REMARK    2  A    between atoms: N_10  and  C_4 
REMARK    3  A    between atoms: C_15  and  N_10 
REMARK    4  A    between atoms: C_16  and  C_15 
ROOT
ATOM      1  C   UNL d   1      52.576  33.666  53.494  0.00  0.00     0.167 A 
ATOM      2  N   UNL d   1      51.847  33.585  53.065  0.00  0.00    -0.195 N 
ATOM      3  C   UNL d   1      53.070  33.028  53.575  0.00  0.00     0.057 A 
ATOM      4  C   UNL d   1      51.367  34.227  52.993  0.00  0.00     0.167 A 
ATOM      5  N   UNL d   1      52.155  32.220  52.823  0.00  0.00    -0.161 NA
ATOM      6  N   UNL d   1      52.776  34.382  53.822  0.00  0.00    -0.227 NA
ATOM      7  C   UNL d   1      51.561  34.957  53.321  0.00  0.00     0.058 A 
ATOM      8  C   UNL d   1      52.862  32.298  53.239  0.00  0.00     0.124 A 
ATOM      9  C   UNL d   1      52.278  35.036  53.744  0.00  0.00     0.086 A 
ATOM     10  C   UNL d   1      52.489  35.793  54.090  0.00  0.00     0.021 C 
ENDROOT
BRANCH   4  11
ATOM     11  N   UNL d   1      50.630  34.151  52.560  0.00  0.00    -0.224 NA
BRANCH  11  12
ATOM     12  C   UNL d   1      49.781  34.109  52.677  0.00  0.00     0.120 C 
BRANCH  12  13
ATOM     13  C   UNL d   1      49.251  34.426  52.084  0.00  0.00     0.101 A 
ATOM     14  N   UNL d   1      49.338  34.170  51.264  0.00  0.00    -0.242 NA
ATOM     15  C   UNL d   1      48.808  34.487  50.672  0.00  0.00     0.099 A 
ATOM     16  C   UNL d   1      48.199  35.052  50.893  0.00  0.00     0.021 A 
ATOM     17  C   UNL d   1      48.120  35.299  51.707  0.00  0.00     0.003 A 
ATOM     18  C   UNL d   1      48.650  34.982  52.301  0.00  0.00     0.021 A 
ENDBRANCH  12  13
ENDBRANCH  11  12
ENDBRANCH   4  11
BRANCH   3  19
ATOM     19  C   UNL d   1      53.777  33.106  53.992  0.00  0.00     0.005 A 
ATOM     20  C   UNL d   1      53.783  33.018  54.800  0.00  0.00     0.001 A 
ATOM     21  C   UNL d   1      54.489  33.096  55.216  0.00  0.00     0.011 A 
ATOM     22  C   UNL d   1      55.178  33.261  54.816  0.00  0.00     0.058 A 
ATOM     23  C   UNL d   1      55.161  33.348  54.001  0.00  0.00     0.011 A 
ATOM     24 CL   UNL d   1      55.917  33.342  55.252  0.00  0.00    -0.082 Cl
ATOM     25  C   UNL d   1      54.466  33.271  53.592  0.00  0.00     0.001 A 
ENDBRANCH   3  19
TORSDOF 4
ENDMDL
MODEL 4
REMARK VINA RESULT:      -6.2      2.255      3.689
REMARK  4 active torsions:
REMARK  status: ('A' for Active; 'I' for Inactive)
REMARK    1  A    between atoms: C_11  and  C_3 
REMARK    2  A    between atoms: N_10  and  C_4 
REMARK    3  A    between atoms: C_15  and  N_10 
REMARK    4  A    between atoms: C_16  and  C_15 
ROOT
ATOM      1  C   UNL d   1      53.166  31.483  53.647  0.00  0.00     0.167 A 
ATOM      2  N   UNL d   1      52.928  32.156  53.188  0.00  0.00    -0.195 N 
ATOM      3  C   UNL d   1      52.997  30.735  53.384  0.00  0.00     0.057 A 
ATOM      4  C   UNL d   1      53.102  32.893  53.462  0.00  0.00     0.167 A 
ATOM      5  N   UNL d   1      52.362  31.283  52.222  0.00  0.00    -0.161 NA
ATOM      6  N   UNL d   1      53.562  31.590  54.349  0.00  0.00    -0.227 NA
ATOM      7  C   UNL d   1      53.503  33.012  54.171  0.00  0.00     0.058 A 
ATOM      8  C   UNL d   1      52.592  30.630  52.667  0.00  0.00     0.124 A 
ATOM      9  C   UNL d   1      53.737  32.348  54.622  0.00  0.00     0.086 A 
ATOM     10  C   UNL d   1      54.155  32.462  55.364  0.00  0.00     0.021 C 
ENDROOT
BRANCH   4  11
ATOM     11  N   UNL d   1      52.864  33.577  53.001  0.00  0.00    -0.224 NA
BRANCH  11  12
ATOM     12  C   UNL d   1      52.426  34.312  53.064  0.00  0.00     0.120 C 
BRANCH  12  13
ATOM     13  C   UNL d   1      51.646  34.376  52.716  0.00  0.00     0.101 A 
ATOM     14  N   UNL d   1      51.566  34.343  51.858  0.00  0.00    -0.242 NA
ATOM     15  C   UNL d   1      50.785  34.407  51.511  0.00  0.00     0.099 A 
ATOM     16  C   UNL d   1      50.095  34.503  52.013  0.00  0.00     0.021 A 
ATOM     17  C   UNL d   1      50.184  34.535  52.862  0.00  0.00     0.003 A 
ATOM     18  C   UNL d   1      50.965  34.470  53.211  0.00  0.00     0.021 A 
ENDBRANCH  12  13
ENDBRANCH  11  12
ENDBRANCH   4  11
BRANCH   3  19
ATOM     19  C   UNL d   1      53.228  30.081  53.830  0.00  0.00     0.005 A 
ATOM     20  C   UNL d   1      52.741  29.798  54.416  0.00  0.00     0.001 A 
ATOM     21  C   UNL d   1      52.971  29.144  54.860  0.00  0.00     0.011 A 
ATOM     22  C   UNL d   1      53.685  28.785  54.712  0.00  0.00     0.058 A 
ATOM     23  C   UNL d   1      54.169  29.078  54.118  0.00  0.00     0.011 A 
ATOM     24 CL   UNL d   1      53.926  28.100  55.177  0.00  0.00    -0.082 Cl
ATOM     25  C   UNL d   1      53.942  29.721  53.680  0.00  0.00     0.001 A 
ENDBRANCH   3  19
TORSDOF 4
ENDMDL
MODEL 5
REMARK VINA RESULT:      -5.8      2.256      4.642
REMARK  4 active torsions:
REMARK  status: ('A' for Active; 'I' for Inactive)
REMARK    1  A    between atoms: C_11  and  C_3 
REMARK    2  A    between atoms: N_10  and  C_4 
REMARK    3  A    between atoms: C_15  and  N_10 
REMARK    4  A    between atoms: C_16  and  C_15 
ROOT
ATOM      1  C   UNL d   1      53.121  33.059  53.793  0.00  0.00     0.167 A 
ATOM      2  N   UNL d   1      53.315  32.247  53.636  0.00  0.00    -0.195 N 
ATOM      3  C   UNL d   1      53.654  33.537  54.173  0.00  0.00     0.057 A 
ATOM      4  C   UNL d   1      52.775  31.785  53.258  0.00  0.00     0.167 A 
ATOM      5  N   UNL d   1      54.578  32.444  54.255  0.00  0.00    -0.161 NA
ATOM      6  N   UNL d   1      52.400  33.354  53.562  0.00  0.00    -0.227 NA
ATOM      7  C   UNL d   1      52.043  32.075  53.020  0.00  0.00     0.058 A 
ATOM      8  C   UNL d   1      54.390  33.230  54.407  0.00  0.00     0.124 A 
ATOM      9  C   UNL d   1      51.851  32.874  53.175  0.00  0.00     0.086 A 
ATOM     10  C   UNL d   1      51.089  33.186  52.930  0.00  0.00     0.021 C 
ENDROOT
BRANCH   4  11
ATOM     11  N   UNL d   1      52.967  30.965  53.097  0.00  0.00    -0.224 NA
BRANCH  11  12
ATOM     12  C   UNL d   1      52.641  30.173  53.150  0.00  0.00     0.120 C 
BRANCH  12  13
ATOM     13  C   UNL d   1      52.967  29.612  53.709  0.00  0.00     0.101 A 
ATOM     14  N   UNL d   1      52.522  29.426  54.425  0.00  0.00    -0.242 NA
ATOM     15  C   UNL d   1      52.850  28.864  54.983  0.00  0.00     0.099 A 
ATOM     16  C   UNL d   1      53.609  28.493  54.829  0.00  0.00     0.021 A 
ATOM     17  C   UNL d   1      54.042  28.683  54.116  0.00  0.00     0.003 A 
ATOM     18  C   UNL d   1      53.715  29.245  53.557  0.00  0.00     0.021 A 
ENDBRANCH  12  13
ENDBRANCH  11  12
ENDBRANCH   4  11
BRANCH   3  19
ATOM     19  C   UNL d   1      53.465  34.324  54.325  0.00  0.00     0.005 A 
ATOM     20  C   UNL d   1      53.564  34.884  53.744  0.00  0.00     0.001 A 
ATOM     21  C   UNL d   1      53.376  35.671  53.896  0.00  0.00     0.011 A 
ATOM     22  C   UNL d   1      53.091  35.885  54.627  0.00  0.00     0.058 A 
ATOM     23  C   UNL d   1      52.995  35.312  55.207  0.00  0.00     0.011 A 
ATOM     24 CL   UNL d   1      52.894  36.709  54.787  0.00  0.00    -0.082 Cl
ATOM     25  C   UNL d   1      53.180  34.538  55.057  0.00  0.00     0.001 A 
ENDBRANCH   3  19
TORSDOF 4
ENDMDL
MODEL 6
REMARK VINA RESULT:      -5.2      2.081      3.868
REMARK  4 active torsions:
REMARK  status: ('A' for Active; 'I' for Inactive)
REMARK    1  A    between atoms: C_11  and  C_3 
REMARK    2  A    between atoms: N_10  and  C_4 
REMARK    3  A    between atoms: C_15  and  N_10 
REMARK    4  A    between atoms: C_16  and  C_15 
ROOT
ATOM      1  C   UNL d   1      49.188  34.979  52.517  0.00  0.00     0.167 A 
ATOM      2  N   UNL d   1      48.464  35.161  52.114  0.00  0.00    -0.195 N 
ATOM      3  C   UNL d   1      49.736  34.495  52.167  0.00  0.00     0.057 A 
ATOM      4  C   UNL d   1      47.929  35.643  52.475  0.00  0.00     0.167 A 
ATOM      5  N   UNL d   1      48.883  34.355  51.023  0.00  0.00    -0.161 NA
ATOM      6  N   UNL d   1      49.331  35.291  53.255  0.00  0.00    -0.227 NA
ATOM      7  C   UNL d   1      48.065  35.964  53.221  0.00  0.00     0.058 A 
ATOM      8  C   UNL d   1      49.586  34.178  51.414  0.00  0.00     0.124 A 
ATOM      9  C   UNL d   1      48.778  35.784  53.618  0.00  0.00     0.086 A 
ATOM     10  C   UNL d   1      48.928  36.114  54.396  0.00  0.00     0.021 C 
ENDROOT
BRANCH   4  11
ATOM     11  N   UNL d   1      47.196  35.830  52.071  0.00  0.00    -0.224 NA
BRANCH  11  12
ATOM     12  C   UNL d   1      46.441  36.220  52.191  0.00  0.00     0.120 C 
BRANCH  12  13
ATOM     13  C   UNL d   1      45.732  35.900  51.832  0.00  0.00     0.101 A 
ATOM     14  N   UNL d   1      45.520  36.146  51.032  0.00  0.00    -0.242 NA
ATOM     15  C   UNL d   1      44.811  35.826  50.673  0.00  0.00     0.099 A 
ATOM     16  C   UNL d   1      44.321  35.269  51.105  0.00  0.00     0.021 A 
ATOM     17  C   UNL d   1      44.539  35.031  51.897  0.00  0.00     0.003 A 
ATOM     18  C   UNL d   1      45.248  35.351  52.257  0.00  0.00     0.021 A 
ENDBRANCH  12  13
ENDBRANCH  11  12
ENDBRANCH   4  11
BRANCH   3  19
ATOM     19  C   UNL d   1      50.439  34.318  52.559  0.00  0.00     0.005 A 
ATOM     20  C   UNL d   1      51.066  34.834  52.518  0.00  0.00     0.001 A 
ATOM     21  C   UNL d   1      51.768  34.657  52.909  0.00  0.00     0.011 A 
ATOM     22  C   UNL d   1      51.833  33.968  53.334  0.00  0.00     0.058 A 
ATOM     23  C   UNL d   1      51.194  33.454  53.369  0.00  0.00     0.011 A 
ATOM     24 CL   UNL d   1      52.568  33.783  53.744  0.00  0.00    -0.082 Cl
ATOM     25  C   UNL d   1      50.503  33.627  52.985  0.00  0.00     0.001 A 
ENDBRANCH   3  19
TORSDOF 4
ENDMDL
MODEL 7
REMARK VINA RESULT:      -5.1      2.143      5.112
REMARK  4 active torsions:
REMARK  status: ('A' for Active; 'I' for Inactive)
REMARK    1  A    between atoms: C_11  and  C_3 
REMARK    2  A    between atoms: N_10  and  C_4 
REMARK    3  A    between atoms: C_15  and  N_10 
REMARK    4  A    between atoms: C_16  and  C_15 
ROOT
ATOM      1  C   UNL d   1      51.604  33.568  52.824  0.00  0.00     0.167 A 
ATOM      2  N   UNL d   1      52.412  33.453  53.060  0.00  0.00    -0.195 N 
ATOM      3  C   UNL d   1      51.359  34.292  52.556  0.00  0.00     0.057 A 
ATOM      4  C   UNL d   1      52.640  32.728  53.323  0.00  0.00     0.167 A 
ATOM      5  N   UNL d   1      52.683  34.811  52.744  0.00  0.00    -0.161 NA
ATOM      6  N   UNL d   1      51.078  32.949  52.866  0.00  0.00    -0.227 NA
ATOM      7  C   UNL d   1      52.115  32.095  53.370  0.00  0.00     0.058 A 
ATOM      8  C   UNL d   1      51.900  34.922  52.514  0.00  0.00     0.124 A 
ATOM      9  C   UNL d   1      51.320  32.208  53.137  0.00  0.00     0.086 A 
ATOM     10  C   UNL d   1      50.765  31.554  53.182  0.00  0.00     0.021 C 
ENDROOT
BRANCH   4  11
ATOM     11  N   UNL d   1      53.455  32.608  53.563  0.00  0.00    -0.224 NA
BRANCH  11  12
ATOM     12  C   UNL d   1      53.930  32.339  54.226  0.00  0.00     0.120 C 
BRANCH  12  13
ATOM     13  C   UNL d   1      54.479  32.876  54.605  0.00  0.00     0.101 A 
ATOM     14  N   UNL d   1      55.155  33.170  54.156  0.00  0.00    -0.242 NA
ATOM     15  C   UNL d   1      55.703  33.708  54.536  0.00  0.00     0.099 A 
ATOM     16  C   UNL d   1      55.579  33.948  55.351  0.00  0.00     0.021 A 
ATOM     17  C   UNL d   1      54.907  33.651  55.787  0.00  0.00     0.003 A 
ATOM     18  C   UNL d   1      54.357  33.114  55.409  0.00  0.00     0.021 A 
ENDBRANCH  12  13
ENDBRANCH  11  12
ENDBRANCH   4  11
BRANCH   3  19
ATOM     19  C   UNL d   1      50.576  34.403  52.327  0.00  0.00     0.005 A 
ATOM     20  C   UNL d   1      50.351  34.245  51.561  0.00  0.00     0.001 A 
ATOM     21  C   UNL d   1      49.569  34.355  51.332  0.00  0.00     0.011 A 
ATOM     22  C   UNL d   1      49.023  34.623  51.872  0.00  0.00     0.058 A 
ATOM     23  C   UNL d   1      49.259  34.780  52.642  0.00  0.00     0.011 A 
ATOM     24 CL   UNL d   1      48.203  34.739  51.632  0.00  0.00    -0.082 Cl
ATOM     25  C   UNL d   1      50.029  34.671  52.867  0.00  0.00     0.001 A 
ENDBRANCH   3  19
TORSDOF 4
ENDMDL
MODEL 8
REMARK VINA RESULT:      -5.0     10.251     11.203
REMARK  4 active torsions:
REMARK  status: ('A' for Active; 'I' for Inactive)
REMARK    1  A    between atoms: C_11  and  C_3 
REMARK    2  A    between atoms: N_10  and  C_4 
REMARK    3  A    between atoms: C_15  and  N_10 
REMARK    4  A    between atoms: C_16  and  C_15 
ROOT
ATOM      1  C   UNL d   1      44.847  27.899  57.713  0.00  0.00     0.167 A 
ATOM      2  N   UNL d   1      44.867  27.273  57.140  0.00  0.00    -0.195 N 
ATOM      3  C   UNL d   1      44.998  28.662  57.485  0.00  0.00     0.057 A 
ATOM      4  C   UNL d   1      44.715  26.521  57.382  0.00  0.00     0.167 A 
ATOM      5  N   UNL d   1      45.193  28.221  56.134  0.00  0.00    -0.161 NA
ATOM      6  N   UNL d   1      44.675  27.732  58.490  0.00  0.00    -0.227 NA
ATOM      7  C   UNL d   1      44.540  26.341  58.166  0.00  0.00     0.058 A 
ATOM      8  C   UNL d   1      45.173  28.828  56.690  0.00  0.00     0.124 A 
ATOM      9  C   UNL d   1      44.520  26.958  58.730  0.00  0.00     0.086 A 
ATOM     10  C   UNL d   1      44.339  26.780  59.550  0.00  0.00     0.021 C 
ENDROOT
BRANCH   4  11
ATOM     11  N   UNL d   1      44.735  25.884  56.806  0.00  0.00    -0.224 NA
BRANCH  11  12
ATOM     12  C   UNL d   1      44.801  25.031  56.747  0.00  0.00     0.120 C 
BRANCH  12  13
ATOM     13  C   UNL d   1      44.715  24.647  55.987  0.00  0.00     0.101 A 
ATOM     14  N   UNL d   1      44.421  25.104  55.317  0.00  0.00    -0.242 NA
ATOM     15  C   UNL d   1      44.336  24.719  54.556  0.00  0.00     0.099 A 
ATOM     16  C   UNL d   1      44.541  23.890  54.466  0.00  0.00     0.021 A 
ATOM     17  C   UNL d   1      44.832  23.445  55.135  0.00  0.00     0.003 A 
ATOM     18  C   UNL d   1      44.917  23.829  55.897  0.00  0.00     0.021 A 
ENDBRANCH  12  13
ENDBRANCH  11  12
ENDBRANCH   4  11
BRANCH   3  19
ATOM     19  C   UNL d   1      44.978  29.270  58.041  0.00  0.00     0.005 A 
ATOM     20  C   UNL d   1      44.334  29.764  58.077  0.00  0.00     0.001 A 
ATOM     21  C   UNL d   1      44.314  30.371  58.632  0.00  0.00     0.011 A 
ATOM     22  C   UNL d   1      44.939  30.474  59.142  0.00  0.00     0.058 A 
ATOM     23  C   UNL d   1      45.584  29.970  59.098  0.00  0.00     0.011 A 
ATOM     24 CL   UNL d   1      44.918  31.110  59.724  0.00  0.00    -0.082 Cl
ATOM     25  C   UNL d   1      45.604  29.372  58.551  0.00  0.00     0.001 A 
ENDBRANCH   3  19
TORSDOF 4
ENDMDL
MODEL 9
REMARK VINA RESULT:      -4.8      1.417      2.192
REMARK  4 active torsions:
REMARK  status: ('A' for Active; 'I' for Inactive)
REMARK    1  A    between atoms: C_11  and  C_3 
REMARK    2  A    between atoms: N_10  and  C_4 
REMARK    3  A    between atoms: C_15  and  N_10 
REMARK    4  A    between atoms: C_16  and  C_15 
ROOT
ATOM      1  C   UNL d   1      51.620  33.394  53.216  0.00  0.00     0.167 A 
ATOM      2  N   UNL d   1      50.838  33.711  53.116  0.00  0.00    -0.195 N 
ATOM      3  C   UNL d   1      51.726  32.594  53.290  0.00  0.00     0.057 A 
ATOM      4  C   UNL d   1      50.749  34.507  53.044  0.00  0.00     0.167 A 
ATOM      5  N   UNL d   1      50.311  32.393  53.172  0.00  0.00    -0.161 NA
ATOM      6  N   UNL d   1      52.260  33.894  53.236  0.00  0.00    -0.227 NA
ATOM      7  C   UNL d   1      51.391  35.022  53.063  0.00  0.00     0.058 A 
ATOM      8  C   UNL d   1      51.069  32.086  53.268  0.00  0.00     0.124 A 
ATOM      9  C   UNL d   1      52.160  34.710  53.161  0.00  0.00     0.086 A 
ATOM     10  C   UNL d   1      52.836  35.240  53.183  0.00  0.00     0.021 C 
ENDROOT
BRANCH   4  11
ATOM     11  N   UNL d   1      49.961  34.832  52.943  0.00  0.00    -0.224 NA
BRANCH  11  12
ATOM     12  C   UNL d   1      49.315  35.182  53.386  0.00  0.00     0.120 C 
BRANCH  12  13
ATOM     13  C   UNL d   1      48.666  35.557  52.972  0.00  0.00     0.101 A 
ATOM     14  N   UNL d   1      48.308  36.267  53.309  0.00  0.00    -0.242 NA
ATOM     15  C   UNL d   1      47.659  36.642  52.894  0.00  0.00     0.099 A 
ATOM     16  C   UNL d   1      47.371  36.313  52.154  0.00  0.00     0.021 A 
ATOM     17  C   UNL d   1      47.732  35.610  51.828  0.00  0.00     0.003 A 
ATOM     18  C   UNL d   1      48.381  35.234  52.243  0.00  0.00     0.021 A 
ENDBRANCH  12  13
ENDBRANCH  11  12
ENDBRANCH   4  11
BRANCH   3  19
ATOM     19  C   UNL d   1      52.484  32.286  53.386  0.00  0.00     0.005 A 
ATOM     20  C   UNL d   1      52.849  32.329  54.112  0.00  0.00     0.001 A 
ATOM     21  C   UNL d   1      53.607  32.022  54.208  0.00  0.00     0.011 A 
ATOM     22  C   UNL d   1      53.987  31.677  53.577  0.00  0.00     0.058 A 
ATOM     23  C   UNL d   1      53.610  31.639  52.850  0.00  0.00     0.011 A 
ATOM     24 CL   UNL d   1      54.781  31.355  53.678  0.00  0.00    -0.082 Cl
ATOM     25  C   UNL d   1      52.865  31.941  52.755  0.00  0.00     0.001 A 
ENDBRANCH   3  19
TORSDOF 4
ENDMDL
