MODEL 1
REMARK VINA RESULT:      -2.6      0.000      0.000
REMARK  4 active torsions:
REMARK  status: ('A' for Active; 'I' for Inactive)
REMARK    1  A    between atoms: C_6  and  C_1 
REMARK    2  A    between atoms: O_15  and  C_6 
REMARK    3  A    between atoms: C_7  and  C_8 
REMARK    4  A    between atoms: C_16  and  O_15 
ROOT
ATOM      1  C   UNL d   1      31.613  17.269 -23.950  0.00  0.00     0.145 A 
ATOM      2  N   UNL d   1      31.585  16.611 -23.463  0.00  0.00    -0.240 NA
ATOM      3  C   UNL d   1      30.872  17.370 -24.298  0.00  0.00     0.026 A 
ATOM      4  C   UNL d   1      30.381  16.768 -24.025  0.00  0.00     0.019 A 
ATOM      5  C   UNL d   1      30.821  16.291 -23.504  0.00  0.00     0.082 A 
ATOM      6  C   UNL d   1      29.236  15.928 -23.814  0.00  0.00     0.065 A 
ATOM      7  C   UNL d   1      29.585  16.585 -24.181  0.00  0.00     0.008 A 
ATOM      8  C   UNL d   1      30.474  15.642 -23.141  0.00  0.00     0.019 A 
ATOM      9  C   UNL d   1      29.675  15.456 -23.296  0.00  0.00     0.008 A 
ENDROOT
BRANCH   1  10
ATOM     10  C   UNL d   1      32.267  17.755 -24.075  0.00  0.00     0.318 C 
ATOM     11  O   UNL d   1      32.831  17.558 -24.639  0.00  0.00    -0.257 OA
BRANCH  10  12
ATOM     12  O   UNL d   1      32.358  18.449 -23.628  0.00  0.00    -0.270 OA
BRANCH  12  13
ATOM     13  C   UNL d   1      33.079  18.843 -23.629  0.00  0.00     0.126 C 
ATOM     14  C   UNL d   1      33.181  19.530 -23.186  0.00  0.00     0.029 C 
ENDBRANCH  12  13
ENDBRANCH  10  12
ENDBRANCH   1  10
BRANCH   6  15
ATOM     15  C   UNL d   1      28.449  15.746 -23.967  0.00  0.00     0.211 C 
ATOM     16  O   UNL d   1      28.206  15.582 -24.738  0.00  0.00    -0.644 OA
ATOM     17  O   UNL d   1      27.899  15.726 -23.350  0.00  0.00    -0.644 OA
ENDBRANCH   6  15
TORSDOF 4
ENDMDL
MODEL 2
REMARK VINA RESULT:      -2.6      0.951      4.000
REMARK  4 active torsions:
REMARK  status: ('A' for Active; 'I' for Inactive)
REMARK    1  A    between atoms: C_6  and  C_1 
REMARK    2  A    between atoms: O_15  and  C_6 
REMARK    3  A    between atoms: C_7  and  C_8 
REMARK    4  A    between atoms: C_16  and  O_15 
ROOT
ATOM      1  C   UNL d   1      30.557  16.358 -24.169  0.00  0.00     0.145 A 
ATOM      2  N   UNL d   1      31.199  16.108 -23.726  0.00  0.00    -0.240 NA
ATOM      3  C   UNL d   1      30.681  17.143 -24.390  0.00  0.00     0.026 A 
ATOM      4  C   UNL d   1      31.406  17.381 -24.080  0.00  0.00     0.019 A 
ATOM      5  C   UNL d   1      31.733  16.739 -23.665  0.00  0.00     0.082 A 
ATOM      6  C   UNL d   1      32.553  18.175 -23.743  0.00  0.00     0.065 A 
ATOM      7  C   UNL d   1      31.818  18.103 -24.120  0.00  0.00     0.008 A 
ATOM      8  C   UNL d   1      32.461  16.813 -23.292  0.00  0.00     0.019 A 
ATOM      9  C   UNL d   1      32.877  17.535 -23.330  0.00  0.00     0.008 A 
ENDROOT
BRANCH   1  10
ATOM     10  C   UNL d   1      29.896  15.906 -24.366  0.00  0.00     0.318 C 
ATOM     11  O   UNL d   1      29.877  15.479 -25.068  0.00  0.00    -0.257 OA
BRANCH  10  12
ATOM     12  O   UNL d   1      29.244  15.883 -23.853  0.00  0.00    -0.270 OA
BRANCH  12  13
ATOM     13  C   UNL d   1      28.576  15.453 -24.061  0.00  0.00     0.126 C 
ATOM     14  C   UNL d   1      27.910  15.453 -23.576  0.00  0.00     0.029 C 
ENDBRANCH  12  13
ENDBRANCH  10  12
ENDBRANCH   1  10
BRANCH   6  15
ATOM     15  C   UNL d   1      32.962  18.888 -23.781  0.00  0.00     0.211 C 
ATOM     16  O   UNL d   1      33.240  19.165 -24.506  0.00  0.00    -0.644 OA
ATOM     17  O   UNL d   1      33.095  19.327 -23.094  0.00  0.00    -0.644 OA
ENDBRANCH   6  15
TORSDOF 4
ENDMDL
MODEL 3
REMARK VINA RESULT:      -2.5      3.019      5.696
REMARK  4 active torsions:
REMARK  status: ('A' for Active; 'I' for Inactive)
REMARK    1  A    between atoms: C_6  and  C_1 
REMARK    2  A    between atoms: O_15  and  C_6 
REMARK    3  A    between atoms: C_7  and  C_8 
REMARK    4  A    between atoms: C_16  and  O_15 
ROOT
ATOM      1  C   UNL d   1      32.958  19.686 -22.423  0.00  0.00     0.145 A 
ATOM      2  N   UNL d   1      33.227  19.623 -21.652  0.00  0.00    -0.240 NA
ATOM      3  C   UNL d   1      32.651  20.443 -22.534  0.00  0.00     0.026 A 
ATOM      4  C   UNL d   1      32.730  20.854 -21.824  0.00  0.00     0.019 A 
ATOM      5  C   UNL d   1      33.089  20.346 -21.271  0.00  0.00     0.082 A 
ATOM      6  C   UNL d   1      32.677  21.888 -20.830  0.00  0.00     0.065 A 
ATOM      7  C   UNL d   1      32.523  21.628 -21.603  0.00  0.00     0.008 A 
ATOM      8  C   UNL d   1      33.240  20.606 -20.506  0.00  0.00     0.019 A 
ATOM      9  C   UNL d   1      33.034  21.382 -20.282  0.00  0.00     0.008 A 
ENDROOT
BRANCH   1  10
ATOM     10  C   UNL d   1      32.986  19.095 -22.998  0.00  0.00     0.318 C 
ATOM     11  O   UNL d   1      33.189  19.278 -23.774  0.00  0.00    -0.257 OA
BRANCH  10  12
ATOM     12  O   UNL d   1      32.810  18.311 -22.793  0.00  0.00    -0.270 OA
BRANCH  12  13
ATOM     13  C   UNL d   1      32.783  17.733 -23.377  0.00  0.00     0.126 C 
ATOM     14  C   UNL d   1      32.492  16.981 -23.209  0.00  0.00     0.029 C 
ENDBRANCH  12  13
ENDBRANCH  10  12
ENDBRANCH   1  10
BRANCH   6  15
ATOM     15  C   UNL d   1      32.473  22.654 -20.609  0.00  0.00     0.211 C 
ATOM     16  O   UNL d   1      31.679  22.876 -20.583  0.00  0.00    -0.644 OA
ATOM     17  O   UNL d   1      33.060  23.200 -20.414  0.00  0.00    -0.644 OA
ENDBRANCH   6  15
TORSDOF 4
ENDMDL
MODEL 4
REMARK VINA RESULT:      -2.3      4.274      6.107
REMARK  4 active torsions:
REMARK  status: ('A' for Active; 'I' for Inactive)
REMARK    1  A    between atoms: C_6  and  C_1 
REMARK    2  A    between atoms: O_15  and  C_6 
REMARK    3  A    between atoms: C_7  and  C_8 
REMARK    4  A    between atoms: C_16  and  O_15 
ROOT
ATOM      1  C   UNL d   1      32.595  22.291 -20.980  0.00  0.00     0.145 A 
ATOM      2  N   UNL d   1      32.811  22.353 -21.767  0.00  0.00    -0.240 NA
ATOM      3  C   UNL d   1      32.580  21.493 -20.774  0.00  0.00     0.026 A 
ATOM      4  C   UNL d   1      32.791  21.056 -21.440  0.00  0.00     0.019 A 
ATOM      5  C   UNL d   1      32.936  21.589 -22.063  0.00  0.00     0.082 A 
ATOM      6  C   UNL d   1      33.096  19.960 -22.315  0.00  0.00     0.065 A 
ATOM      7  C   UNL d   1      32.871  20.238 -21.567  0.00  0.00     0.008 A 
ATOM      8  C   UNL d   1      33.158  21.311 -22.803  0.00  0.00     0.019 A 
ATOM      9  C   UNL d   1      33.239  20.491 -22.933  0.00  0.00     0.008 A 
ENDROOT
BRANCH   1  10
ATOM     10  C   UNL d   1      32.418  22.917 -20.473  0.00  0.00     0.318 C 
ATOM     11  O   UNL d   1      31.893  23.506 -20.704  0.00  0.00    -0.257 OA
BRANCH  10  12
ATOM     12  O   UNL d   1      32.773  22.954 -19.724  0.00  0.00    -0.270 OA
BRANCH  12  13
ATOM     13  C   UNL d   1      32.718  23.642 -19.279  0.00  0.00     0.126 C 
ATOM     14  C   UNL d   1      33.038  23.679 -18.521  0.00  0.00     0.029 C 
ENDBRANCH  12  13
ENDBRANCH  10  12
ENDBRANCH   1  10
BRANCH   6  15
ATOM     15  C   UNL d   1      33.175  19.152 -22.442  0.00  0.00     0.211 C 
ATOM     16  O   UNL d   1      33.216  18.858 -23.212  0.00  0.00    -0.644 OA
ATOM     17  O   UNL d   1      33.215  18.632 -21.801  0.00  0.00    -0.644 OA
ENDBRANCH   6  15
TORSDOF 4
ENDMDL
MODEL 5
REMARK VINA RESULT:      -2.2      2.806      4.186
REMARK  4 active torsions:
REMARK  status: ('A' for Active; 'I' for Inactive)
REMARK    1  A    between atoms: C_6  and  C_1 
REMARK    2  A    between atoms: O_15  and  C_6 
REMARK    3  A    between atoms: C_7  and  C_8 
REMARK    4  A    between atoms: C_16  and  O_15 
ROOT
ATOM      1  C   UNL d   1      33.058  20.143 -22.172  0.00  0.00     0.145 A 
ATOM      2  N   UNL d   1      33.238  20.293 -22.957  0.00  0.00    -0.240 NA
ATOM      3  C   UNL d   1      32.826  19.354 -22.103  0.00  0.00     0.026 A 
ATOM      4  C   UNL d   1      32.863  19.013 -22.852  0.00  0.00     0.019 A 
ATOM      5  C   UNL d   1      33.120  19.595 -23.388  0.00  0.00     0.082 A 
ATOM      6  C   UNL d   1      32.788  18.065 -23.928  0.00  0.00     0.065 A 
ATOM      7  C   UNL d   1      32.697  18.245 -23.123  0.00  0.00     0.008 A 
ATOM      8  C   UNL d   1      33.210  19.415 -24.184  0.00  0.00     0.019 A 
ATOM      9  C   UNL d   1      33.044  18.645 -24.459  0.00  0.00     0.008 A 
ENDROOT
BRANCH   1  10
ATOM     10  C   UNL d   1      33.099  20.683 -21.551  0.00  0.00     0.318 C 
ATOM     11  O   UNL d   1      33.239  20.425 -20.783  0.00  0.00    -0.257 OA
BRANCH  10  12
ATOM     12  O   UNL d   1      32.998  21.493 -21.701  0.00  0.00    -0.270 OA
BRANCH  12  13
ATOM     13  C   UNL d   1      32.880  22.012 -21.075  0.00  0.00     0.126 C 
ATOM     14  C   UNL d   1      32.881  22.826 -21.200  0.00  0.00     0.029 C 
ENDBRANCH  12  13
ENDBRANCH  10  12
ENDBRANCH   1  10
BRANCH   6  15
ATOM     15  C   UNL d   1      32.624  17.306 -24.197  0.00  0.00     0.211 C 
ATOM     16  O   UNL d   1      31.842  17.064 -24.296  0.00  0.00    -0.644 OA
ATOM     17  O   UNL d   1      33.241  16.784 -24.369  0.00  0.00    -0.644 OA
ENDBRANCH   6  15
TORSDOF 4
ENDMDL
MODEL 6
REMARK VINA RESULT:      -2.1      1.647      4.236
REMARK  4 active torsions:
REMARK  status: ('A' for Active; 'I' for Inactive)
REMARK    1  A    between atoms: C_6  and  C_1 
REMARK    2  A    between atoms: O_15  and  C_6 
REMARK    3  A    between atoms: C_7  and  C_8 
REMARK    4  A    between atoms: C_16  and  O_15 
ROOT
ATOM      1  C   UNL d   1      31.844  16.897 -24.377  0.00  0.00     0.145 A 
ATOM      2  N   UNL d   1      32.212  17.456 -24.848  0.00  0.00    -0.240 NA
ATOM      3  C   UNL d   1      31.894  17.142 -23.591  0.00  0.00     0.026 A 
ATOM      4  C   UNL d   1      32.296  17.861 -23.576  0.00  0.00     0.019 A 
ATOM      5  C   UNL d   1      32.497  18.061 -24.358  0.00  0.00     0.082 A 
ATOM      6  C   UNL d   1      32.922  19.067 -23.114  0.00  0.00     0.065 A 
ATOM      7  C   UNL d   1      32.510  18.366 -22.951  0.00  0.00     0.008 A 
ATOM      8  C   UNL d   1      32.905  18.755 -24.517  0.00  0.00     0.019 A 
ATOM      9  C   UNL d   1      33.121  19.264 -23.892  0.00  0.00     0.008 A 
ENDROOT
BRANCH   1  10
ATOM     10  C   UNL d   1      31.483  16.202 -24.636  0.00  0.00     0.318 C 
ATOM     11  O   UNL d   1      31.924  15.516 -24.737  0.00  0.00    -0.257 OA
BRANCH  10  12
ATOM     12  O   UNL d   1      30.669  16.196 -24.797  0.00  0.00    -0.270 OA
BRANCH  12  13
ATOM     13  C   UNL d   1      30.265  15.481 -24.825  0.00  0.00     0.126 C 
ATOM     14  C   UNL d   1      29.446  15.466 -24.916  0.00  0.00     0.029 C 
ENDBRANCH  12  13
ENDBRANCH  10  12
ENDBRANCH   1  10
BRANCH   6  15
ATOM     15  C   UNL d   1      33.134  19.568 -22.497  0.00  0.00     0.211 C 
ATOM     16  O   UNL d   1      33.241  20.374 -22.639  0.00  0.00    -0.644 OA
ATOM     17  O   UNL d   1      33.241  19.267 -21.735  0.00  0.00    -0.644 OA
ENDBRANCH   6  15
TORSDOF 4
ENDMDL
MODEL 7
REMARK VINA RESULT:      -1.9      2.661      3.464
REMARK  4 active torsions:
REMARK  status: ('A' for Active; 'I' for Inactive)
REMARK    1  A    between atoms: C_6  and  C_1 
REMARK    2  A    between atoms: O_15  and  C_6 
REMARK    3  A    between atoms: C_7  and  C_8 
REMARK    4  A    between atoms: C_16  and  O_15 
ROOT
ATOM      1  C   UNL d   1      32.935  19.463 -22.974  0.00  0.00     0.145 A 
ATOM      2  N   UNL d   1      32.833  19.331 -23.776  0.00  0.00    -0.240 NA
ATOM      3  C   UNL d   1      32.935  18.736 -22.586  0.00  0.00     0.026 A 
ATOM      4  C   UNL d   1      32.832  18.147 -23.153  0.00  0.00     0.019 A 
ATOM      5  C   UNL d   1      32.768  18.514 -23.897  0.00  0.00     0.082 A 
ATOM      6  C   UNL d   1      32.679  16.864 -23.780  0.00  0.00     0.065 A 
ATOM      7  C   UNL d   1      32.787  17.319 -23.094  0.00  0.00     0.008 A 
ATOM      8  C   UNL d   1      32.661  18.062 -24.575  0.00  0.00     0.019 A 
ATOM      9  C   UNL d   1      32.615  17.231 -24.519  0.00  0.00     0.008 A 
ENDROOT
BRANCH   1  10
ATOM     10  C   UNL d   1      33.023  20.197 -22.609  0.00  0.00     0.318 C 
ATOM     11  O   UNL d   1      33.238  20.858 -23.048  0.00  0.00    -0.257 OA
BRANCH  10  12
ATOM     12  O   UNL d   1      32.894  20.270 -21.792  0.00  0.00    -0.270 OA
BRANCH  12  13
ATOM     13  C   UNL d   1      32.968  21.004 -21.432  0.00  0.00     0.126 C 
ATOM     14  C   UNL d   1      32.687  21.126 -20.667  0.00  0.00     0.029 C 
ENDBRANCH  12  13
ENDBRANCH  10  12
ENDBRANCH   1  10
BRANCH   6  15
ATOM     15  C   UNL d   1      32.634  16.045 -23.723  0.00  0.00     0.211 C 
ATOM     16  O   UNL d   1      33.223  15.628 -23.323  0.00  0.00    -0.644 OA
ATOM     17  O   UNL d   1      32.003  15.639 -24.066  0.00  0.00    -0.644 OA
ENDBRANCH   6  15
TORSDOF 4
ENDMDL
MODEL 8
REMARK VINA RESULT:      -1.8      1.004      4.094
REMARK  4 active torsions:
REMARK  status: ('A' for Active; 'I' for Inactive)
REMARK    1  A    between atoms: C_6  and  C_1 
REMARK    2  A    between atoms: O_15  and  C_6 
REMARK    3  A    between atoms: C_7  and  C_8 
REMARK    4  A    between atoms: C_16  and  O_15 
ROOT
ATOM      1  C   UNL d   1      29.951  16.431 -24.372  0.00  0.00     0.145 A 
ATOM      2  N   UNL d   1      30.219  16.948 -24.947  0.00  0.00    -0.240 NA
ATOM      3  C   UNL d   1      30.464  16.467 -23.727  0.00  0.00     0.026 A 
ATOM      4  C   UNL d   1      31.056  17.011 -23.906  0.00  0.00     0.019 A 
ATOM      5  C   UNL d   1      30.908  17.314 -24.666  0.00  0.00     0.082 A 
ATOM      6  C   UNL d   1      32.224  17.841 -23.811  0.00  0.00     0.065 A 
ATOM      7  C   UNL d   1      31.717  17.275 -23.476  0.00  0.00     0.008 A 
ATOM      8  C   UNL d   1      31.410  17.874 -24.996  0.00  0.00     0.019 A 
ATOM      9  C   UNL d   1      32.074  18.141 -24.567  0.00  0.00     0.008 A 
ENDROOT
BRANCH   1  10
ATOM     10  C   UNL d   1      29.281  15.953 -24.421  0.00  0.00     0.318 C 
ATOM     11  O   UNL d   1      29.156  15.477 -25.079  0.00  0.00    -0.257 OA
BRANCH  10  12
ATOM     12  O   UNL d   1      28.729  15.951 -23.801  0.00  0.00    -0.270 OA
BRANCH  12  13
ATOM     13  C   UNL d   1      28.010  15.564 -23.896  0.00  0.00     0.126 C 
ATOM     14  C   UNL d   1      27.379  15.723 -23.391  0.00  0.00     0.029 C 
ENDBRANCH  12  13
ENDBRANCH  10  12
ENDBRANCH   1  10
BRANCH   6  15
ATOM     15  C   UNL d   1      32.878  18.103 -23.387  0.00  0.00     0.211 C 
ATOM     16  O   UNL d   1      33.187  17.640 -22.778  0.00  0.00    -0.644 OA
ATOM     17  O   UNL d   1      33.228  18.829 -23.570  0.00  0.00    -0.644 OA
ENDBRANCH   6  15
TORSDOF 4
ENDMDL
MODEL 9
REMARK VINA RESULT:      -1.8      2.173      4.891
REMARK  4 active torsions:
REMARK  status: ('A' for Active; 'I' for Inactive)
REMARK    1  A    between atoms: C_6  and  C_1 
REMARK    2  A    between atoms: O_15  and  C_6 
REMARK    3  A    between atoms: C_7  and  C_8 
REMARK    4  A    between atoms: C_16  and  O_15 
ROOT
ATOM      1  C   UNL d   1      32.899  18.252 -23.518  0.00  0.00     0.145 A 
ATOM      2  N   UNL d   1      33.030  18.959 -23.910  0.00  0.00    -0.240 NA
ATOM      3  C   UNL d   1      32.869  18.403 -22.708  0.00  0.00     0.026 A 
ATOM      4  C   UNL d   1      32.983  19.211 -22.597  0.00  0.00     0.019 A 
ATOM      5  C   UNL d   1      33.084  19.563 -23.344  0.00  0.00     0.082 A 
ATOM      6  C   UNL d   1      33.136  20.498 -21.979  0.00  0.00     0.065 A 
ATOM      7  C   UNL d   1      33.009  19.681 -21.911  0.00  0.00     0.008 A 
ATOM      8  C   UNL d   1      33.209  20.372 -23.409  0.00  0.00     0.019 A 
ATOM      9  C   UNL d   1      33.236  20.845 -22.723  0.00  0.00     0.008 A 
ENDROOT
BRANCH   1  10
ATOM     10  C   UNL d   1      32.810  17.511 -23.868  0.00  0.00     0.318 C 
ATOM     11  O   UNL d   1      33.234  17.316 -24.545  0.00  0.00    -0.257 OA
BRANCH  10  12
ATOM     12  O   UNL d   1      32.290  16.957 -23.535  0.00  0.00    -0.270 OA
BRANCH  12  13
ATOM     13  C   UNL d   1      32.025  16.324 -23.986  0.00  0.00     0.126 C 
ATOM     14  C   UNL d   1      31.406  15.849 -23.720  0.00  0.00     0.029 C 
ENDBRANCH  12  13
ENDBRANCH  10  12
ENDBRANCH   1  10
BRANCH   6  15
ATOM     15  C   UNL d   1      33.163  20.963 -21.301  0.00  0.00     0.211 C 
ATOM     16  O   UNL d   1      33.209  20.607 -20.559  0.00  0.00    -0.644 OA
ATOM     17  O   UNL d   1      33.142  21.787 -21.362  0.00  0.00    -0.644 OA
ENDBRANCH   6  15
TORSDOF 4
ENDMDL
