MODEL 1
REMARK VINA RESULT:      -3.0      0.000      0.000
REMARK  5 active torsions:
REMARK  status: ('A' for Active; 'I' for Inactive)
REMARK    1  A    between atoms: C_5  and  N_1 
REMARK    2  A    between atoms: C_2  and  N_3 
REMARK    3  A    between atoms: C_7  and  C_2 
REMARK    4  A    between atoms: N_4  and  C_8 
REMARK    5  A    between atoms: N_16  and  C_11 
ROOT
ATOM      1  N   UNL d   1      32.683  18.409 -23.568  0.00  0.00    -0.293 N 
ATOM      2  N   UNL d   1      32.811  19.749 -22.625  0.00  0.00    -0.301 N 
ATOM      3  C   UNL d   1      32.424  19.145 -23.858  0.00  0.00     0.100 A 
ATOM      4  C   UNL d   1      33.000  18.345 -22.822  0.00  0.00     0.100 A 
ATOM      5  C   UNL d   1      33.067  19.018 -22.341  0.00  0.00     0.100 A 
ATOM      6  C   UNL d   1      32.488  19.807 -23.390  0.00  0.00     0.100 A 
ENDROOT
BRANCH   1   7
ATOM      7  C   UNL d   1      32.615  17.739 -24.048  0.00  0.00     0.120 C 
ATOM      8  S   UNL d   1      33.239  17.513 -24.540  0.00  0.00    -0.059 SA
BRANCH   7   9
ATOM      9  C   UNL d   1      31.921  17.296 -24.034  0.00  0.00     0.027 A 
ATOM     10  C   UNL d   1      31.253  17.561 -24.432  0.00  0.00     0.004 A 
ATOM     11  C   UNL d   1      30.557  17.119 -24.419  0.00  0.00     0.018 A 
ATOM     12  C   UNL d   1      30.539  16.401 -23.998  0.00  0.00     0.064 A 
ATOM     13  C   UNL d   1      31.212  16.141 -23.600  0.00  0.00     0.018 A 
ATOM     14  C   UNL d   1      31.902  16.585 -23.617  0.00  0.00     0.004 A 
BRANCH  12  15
ATOM     15  N   UNL d   1      29.842  15.959 -23.985  0.00  0.00    -0.301 N 
ATOM     16  C   UNL d   1      29.480  15.791 -23.260  0.00  0.00     0.100 C 
ATOM     17  C   UNL d   1      29.510  15.687 -24.691  0.00  0.00     0.100 C 
ENDBRANCH  12  15
ENDBRANCH   7   9
ENDBRANCH   1   7
BRANCH   2  18
ATOM     18  C   UNL d   1      32.877  20.422 -22.149  0.00  0.00     0.064 A 
ATOM     19  C   UNL d   1      33.170  21.115 -22.467  0.00  0.00     0.019 A 
ATOM     20  C   UNL d   1      33.235  21.787 -21.991  0.00  0.00     0.025 A 
ATOM     21  C   UNL d   1      33.006  21.754 -21.200  0.00  0.00     0.127 A 
ATOM     22  C   UNL d   1      32.710  21.052 -20.879  0.00  0.00     0.025 A 
ATOM     23  C   UNL d   1      32.647  20.389 -21.356  0.00  0.00     0.019 A 
BRANCH  21  24
ATOM     24  N   UNL d   1      33.071  22.423 -20.726  0.00  0.00    -0.114 N 
ATOM     25  O   UNL d   1      32.968  23.177 -21.054  0.00  0.00    -0.532 OA
ATOM     26  O   UNL d   1      33.239  22.350 -19.922  0.00  0.00    -0.532 OA
ENDBRANCH  21  24
ENDBRANCH   2  18
TORSDOF 5
ENDMDL
MODEL 2
REMARK VINA RESULT:      -1.1      2.902      6.147
REMARK  5 active torsions:
REMARK  status: ('A' for Active; 'I' for Inactive)
REMARK    1  A    between atoms: C_5  and  N_1 
REMARK    2  A    between atoms: C_2  and  N_3 
REMARK    3  A    between atoms: C_7  and  C_2 
REMARK    4  A    between atoms: N_4  and  C_8 
REMARK    5  A    between atoms: N_16  and  C_11 
ROOT
ATOM      1  N   UNL d   1      32.565  22.007 -21.333  0.00  0.00    -0.293 N 
ATOM      2  N   UNL d   1      32.677  20.489 -21.952  0.00  0.00    -0.301 N 
ATOM      3  C   UNL d   1      33.111  21.848 -21.939  0.00  0.00     0.100 A 
ATOM      4  C   UNL d   1      32.083  21.420 -21.042  0.00  0.00     0.100 A 
ATOM      5  C   UNL d   1      32.135  20.651 -21.350  0.00  0.00     0.100 A 
ATOM      6  C   UNL d   1      33.166  21.096 -22.244  0.00  0.00     0.100 A 
ENDROOT
BRANCH   1   7
ATOM      7  C   UNL d   1      32.514  22.775 -21.027  0.00  0.00     0.120 C 
ATOM      8  S   UNL d   1      32.442  23.423 -21.534  0.00  0.00    -0.059 SA
BRANCH   7   9
ATOM      9  C   UNL d   1      32.535  22.890 -20.212  0.00  0.00     0.027 A 
ATOM     10  C   UNL d   1      31.909  23.258 -19.829  0.00  0.00     0.004 A 
ATOM     11  C   UNL d   1      31.929  23.374 -19.013  0.00  0.00     0.018 A 
ATOM     12  C   UNL d   1      32.591  23.113 -18.581  0.00  0.00     0.064 A 
ATOM     13  C   UNL d   1      33.216  22.744 -18.971  0.00  0.00     0.018 A 
ATOM     14  C   UNL d   1      33.191  22.631 -19.783  0.00  0.00     0.004 A 
BRANCH  12  15
ATOM     15  N   UNL d   1      32.610  23.230 -17.764  0.00  0.00    -0.301 N 
ATOM     16  C   UNL d   1      33.241  22.924 -17.324  0.00  0.00     0.100 C 
ATOM     17  C   UNL d   1      32.004  23.648 -17.390  0.00  0.00     0.100 C 
ENDBRANCH  12  15
ENDBRANCH   7   9
ENDBRANCH   1   7
BRANCH   2  18
ATOM     18  C   UNL d   1      32.731  19.724 -22.261  0.00  0.00     0.064 A 
ATOM     19  C   UNL d   1      32.343  19.542 -22.956  0.00  0.00     0.019 A 
ATOM     20  C   UNL d   1      32.397  18.778 -23.265  0.00  0.00     0.025 A 
ATOM     21  C   UNL d   1      32.841  18.205 -22.871  0.00  0.00     0.127 A 
ATOM     22  C   UNL d   1      33.233  18.391 -22.167  0.00  0.00     0.025 A 
ATOM     23  C   UNL d   1      33.176  19.151 -21.866  0.00  0.00     0.019 A 
BRANCH  21  24
ATOM     24  N   UNL d   1      32.895  17.444 -23.179  0.00  0.00    -0.114 N 
ATOM     25  O   UNL d   1      33.101  16.810 -22.687  0.00  0.00    -0.532 OA
ATOM     26  O   UNL d   1      32.746  17.305 -23.977  0.00  0.00    -0.532 OA
ENDBRANCH  21  24
ENDBRANCH   2  18
TORSDOF 5
ENDMDL
