MODEL 1
REMARK VINA RESULT:      86.5      0.000      0.000
REMARK  7 active torsions:
REMARK  status: ('A' for Active; 'I' for Inactive)
REMARK    1  A    between atoms: N_15  and  C_4 
REMARK    2  A    between atoms: C_17  and  N_5 
REMARK    3  A    between atoms: C_19  and  N_10 
REMARK    4  A    between atoms: C_11  and  S_16 
REMARK    5  A    between atoms: S_16  and  C_28 
REMARK    6  A    between atoms: C_27  and  C_17 
REMARK    7  A    between atoms: C_28  and  C_27 
ROOT
ATOM      1  C   UNL d   1      14.703  15.921  -4.539  0.00  0.00     0.191 A 
ATOM      2  C   UNL d   1      14.428  15.755  -3.778  0.00  0.00     0.174 A 
ATOM      3  N   UNL d   1      14.532  15.280  -5.040  0.00  0.00    -0.042 NA
ATOM      4  C   UNL d   1      14.142  14.711  -4.566  0.00  0.00     0.722 A 
ATOM      5  N   UNL d   1      14.074  14.989  -3.802  0.00  0.00    -0.136 N 
ATOM      6  N   UNL d   1      15.092  16.658  -4.701  0.00  0.00    -0.239 N 
ATOM      7  C   UNL d   1      15.187  17.217  -4.057  0.00  0.00     0.358 A 
ATOM      8  N   UNL d   1      14.899  17.018  -3.308  0.00  0.00    -0.152 NA
ATOM      9  C   UNL d   1      14.515  16.275  -3.173  0.00  0.00     0.303 A 
ATOM     10  O   UNL d   1      15.566  17.957  -4.181  0.00  0.00    -0.244 OA
ATOM     11  O   UNL d   1      14.235  16.106  -2.400  0.00  0.00    -0.263 OA
ATOM     12  C   UNL d   1      15.372  16.836  -5.459  0.00  0.00     0.105 C 
ENDROOT
BRANCH   5  13
ATOM     13  C   UNL d   1      13.703  14.489  -3.277  0.00  0.00     0.072 C 
BRANCH  13  14
ATOM     14  C   UNL d   1      14.065  14.340  -2.539  0.00  0.00     0.052 C 
ATOM     15  C   UNL d   1      13.798  13.604  -2.798  0.00  0.00     0.007 C 
BRANCH  14  16
ATOM     16  C   UNL d   1      14.088  13.573  -2.238  0.00  0.00     0.071 C 
BRANCH  16  17
ATOM     17  S   UNL d   1      14.778  13.262  -1.938  0.00  0.00    -0.073 SA
BRANCH  17  18
ATOM     18  C   UNL d   1      14.771  12.792  -1.260  0.00  0.00     0.215 A 
ATOM     19  N   UNL d   1      15.119  12.978  -0.536  0.00  0.00    -0.186 N 
ATOM     20  N   UNL d   1      14.980  12.360  -0.016  0.00  0.00    -0.038 NA
ATOM     21  N   UNL d   1      14.544  11.785  -0.417  0.00  0.00    -0.022 NA
ATOM     22  N   UNL d   1      14.415  12.054  -1.186  0.00  0.00    -0.101 NA
BRANCH  19  23
ATOM     23  C   UNL d   1      15.536  13.669  -0.365  0.00  0.00     0.087 A 
ATOM     24  C   UNL d   1      15.127  14.378  -0.279  0.00  0.00     0.019 A 
ATOM     25  C   UNL d   1      15.543  15.069  -0.108  0.00  0.00     0.002 A 
ATOM     26  C   UNL d   1      16.365  15.049  -0.022  0.00  0.00     0.000 A 
ATOM     27  C   UNL d   1      16.768  14.329  -0.110  0.00  0.00     0.002 A 
ATOM     28  C   UNL d   1      16.351  13.639  -0.282  0.00  0.00     0.019 A 
ENDBRANCH  19  23
ENDBRANCH  17  18
ENDBRANCH  16  17
ENDBRANCH  14  16
ENDBRANCH  13  14
ENDBRANCH   5  13
BRANCH   4  29
ATOM     29  N   UNL d   1      13.865  13.977  -4.827  0.00  0.00    -0.136 N 
ATOM     30  C   UNL d   1      14.406  13.380  -5.024  0.00  0.00     0.117 A 
ATOM     31  C   UNL d   1      14.118  12.651  -5.284  0.00  0.00     0.100 A 
ATOM     32  N   UNL d   1      13.301  12.513  -5.349  0.00  0.00    -0.299 N 
ATOM     33  C   UNL d   1      12.776  13.117  -5.149  0.00  0.00     0.100 A 
ATOM     34  C   UNL d   1      13.025  11.779  -5.610  0.00  0.00     0.100 C 
ATOM     35  C   UNL d   1      13.050  13.848  -4.889  0.00  0.00     0.117 A 
ENDBRANCH   4  29
TORSDOF 7
ENDMDL
MODEL 2
REMARK VINA RESULT:      88.1      1.846      3.324
REMARK  7 active torsions:
REMARK  status: ('A' for Active; 'I' for Inactive)
REMARK    1  A    between atoms: N_15  and  C_4 
REMARK    2  A    between atoms: C_17  and  N_5 
REMARK    3  A    between atoms: C_19  and  N_10 
REMARK    4  A    between atoms: C_11  and  S_16 
REMARK    5  A    between atoms: S_16  and  C_28 
REMARK    6  A    between atoms: C_27  and  C_17 
REMARK    7  A    between atoms: C_28  and  C_27 
ROOT
ATOM      1  C   UNL d   1      15.527  16.813  -2.083  0.00  0.00     0.191 A 
ATOM      2  C   UNL d   1      14.939  16.236  -2.040  0.00  0.00     0.174 A 
ATOM      3  N   UNL d   1      15.517  17.162  -2.838  0.00  0.00    -0.042 NA
ATOM      4  C   UNL d   1      14.903  16.782  -3.262  0.00  0.00     0.722 A 
ATOM      5  N   UNL d   1      14.548  16.221  -2.788  0.00  0.00    -0.136 N 
ATOM      6  N   UNL d   1      16.025  16.966  -1.412  0.00  0.00    -0.239 N 
ATOM      7  C   UNL d   1      15.897  16.506  -0.699  0.00  0.00     0.358 A 
ATOM      8  N   UNL d   1      15.299  15.936  -0.692  0.00  0.00    -0.152 NA
ATOM      9  C   UNL d   1      14.815  15.803  -1.375  0.00  0.00     0.303 A 
ATOM     10  O   UNL d   1      16.371  16.630  -0.016  0.00  0.00    -0.244 OA
ATOM     11  O   UNL d   1      14.217  15.216  -1.332  0.00  0.00    -0.263 OA
ATOM     12  C   UNL d   1      16.618  17.541  -1.443  0.00  0.00     0.105 C 
ENDROOT
BRANCH   5  13
ATOM     13  C   UNL d   1      13.937  15.806  -3.132  0.00  0.00     0.072 C 
BRANCH  13  14
ATOM     14  C   UNL d   1      13.661  15.112  -2.758  0.00  0.00     0.052 C 
ATOM     15  C   UNL d   1      13.670  14.931  -3.563  0.00  0.00     0.007 C 
BRANCH  14  16
ATOM     16  C   UNL d   1      13.470  14.448  -3.208  0.00  0.00     0.071 C 
BRANCH  16  17
ATOM     17  S   UNL d   1      13.900  13.760  -3.143  0.00  0.00    -0.073 SA
BRANCH  17  18
ATOM     18  C   UNL d   1      13.640  13.063  -3.498  0.00  0.00     0.215 A 
ATOM     19  N   UNL d   1      13.623  12.317  -3.150  0.00  0.00    -0.186 N 
ATOM     20  N   UNL d   1      13.326  11.782  -3.697  0.00  0.00    -0.038 NA
ATOM     21  N   UNL d   1      13.157  12.198  -4.389  0.00  0.00    -0.022 NA
ATOM     22  N   UNL d   1      13.351  12.990  -4.265  0.00  0.00    -0.101 NA
BRANCH  19  23
ATOM     23  C   UNL d   1      13.864  12.137  -2.382  0.00  0.00     0.087 A 
ATOM     24  C   UNL d   1      13.298  11.971  -1.808  0.00  0.00     0.019 A 
ATOM     25  C   UNL d   1      13.539  11.791  -1.040  0.00  0.00     0.002 A 
ATOM     26  C   UNL d   1      14.342  11.779  -0.848  0.00  0.00     0.000 A 
ATOM     27  C   UNL d   1      14.905  11.948  -1.433  0.00  0.00     0.002 A 
ATOM     28  C   UNL d   1      14.664  12.128  -2.201  0.00  0.00     0.019 A 
ENDBRANCH  19  23
ENDBRANCH  17  18
ENDBRANCH  16  17
ENDBRANCH  14  16
ENDBRANCH  13  14
ENDBRANCH   5  13
BRANCH   4  29
ATOM     29  N   UNL d   1      14.686  16.948  -4.042  0.00  0.00    -0.136 N 
ATOM     30  C   UNL d   1      14.255  17.635  -4.212  0.00  0.00     0.117 A 
ATOM     31  C   UNL d   1      14.043  17.790  -4.995  0.00  0.00     0.100 A 
ATOM     32  N   UNL d   1      14.256  17.269  -5.605  0.00  0.00    -0.299 N 
ATOM     33  C   UNL d   1      14.685  16.589  -5.420  0.00  0.00     0.100 A 
ATOM     34  C   UNL d   1      14.039  17.434  -6.386  0.00  0.00     0.100 C 
ATOM     35  C   UNL d   1      14.901  16.424  -4.645  0.00  0.00     0.117 A 
ENDBRANCH   4  29
TORSDOF 7
ENDMDL
