MODEL 1
REMARK VINA RESULT:      -3.3      0.000      0.000
REMARK  5 active torsions:
REMARK  status: ('A' for Active; 'I' for Inactive)
REMARK    1  A    between atoms: N_6  and  S_1 
REMARK    2  A    between atoms: C_11  and  S_1 
REMARK    3  A    between atoms: N_2  and  C_16 
REMARK       I    between atoms: C_9  and  N_8 
REMARK    4  A    between atoms: C_10  and  C_9 
REMARK    5  A    between atoms: C_16  and  C_10 
ROOT
ATOM      1  N   UNL d   1      33.103  21.093 -21.626  0.00  0.00    -0.226 N 
ATOM      2  N   UNL d   1      33.120  20.055 -22.903  0.00  0.00    -0.269 N 
ATOM      3  C   UNL d   1      33.128  19.527 -23.537  0.00  0.00     0.267 C 
ATOM      4  C   UNL d   1      32.999  20.285 -21.502  0.00  0.00     0.111 A 
ATOM      5  C   UNL d   1      33.217  21.393 -22.399  0.00  0.00     0.111 A 
ATOM      6  C   UNL d   1      33.008  19.765 -22.142  0.00  0.00     0.103 A 
ATOM      7  C   UNL d   1      33.226  20.873 -23.039  0.00  0.00     0.103 A 
ATOM      8  O   UNL d   1      33.240  19.813 -24.304  0.00  0.00    -0.267 OA
ENDROOT
BRANCH   3   9
ATOM      9  C   UNL d   1      33.024  18.723 -23.405  0.00  0.00     0.082 C 
BRANCH   9  10
ATOM     10  C   UNL d   1      32.742  18.245 -24.016  0.00  0.00     0.105 C 
BRANCH  10  11
ATOM     11  N   UNL d   1      32.645  17.432 -23.886  0.00  0.00    -0.228 N 
ATOM     12  N   UNL d   1      33.194  16.919 -23.547  0.00  0.00    -0.165 NA
ATOM     13  C   UNL d   1      32.868  16.161 -23.525  0.00  0.00     0.103 A 
ATOM     14  C   UNL d   1      33.231  15.476 -23.229  0.00  0.00     0.022 C 
ATOM     15  C   UNL d   1      32.112  16.201 -23.852  0.00  0.00     0.037 A 
ATOM     16  C   UNL d   1      31.971  16.987 -24.077  0.00  0.00     0.084 A 
ATOM     17  C   UNL d   1      31.588  15.573 -23.941  0.00  0.00     0.003 C 
ATOM     18  C   UNL d   1      31.278  17.268 -24.428  0.00  0.00     0.021 C 
ENDBRANCH  10  11
ENDBRANCH   9  10
ENDBRANCH   3   9
BRANCH   1  19
ATOM     19  S   UNL d   1      33.094  21.616 -20.983  0.00  0.00     0.271 S 
ATOM     20  O   UNL d   1      33.113  20.970 -20.457  0.00  0.00    -0.200 OA
ATOM     21  O   UNL d   1      33.075  22.256 -21.503  0.00  0.00    -0.200 OA
BRANCH  19  22
ATOM     22  C   UNL d   1      33.085  22.142 -20.336  0.00  0.00     0.104 A 
ATOM     23  C   UNL d   1      33.241  21.859 -19.583  0.00  0.00     0.014 A 
ATOM     24  C   UNL d   1      33.233  22.376 -18.940  0.00  0.00     0.012 A 
ATOM     25  C   UNL d   1      33.067  23.182 -19.056  0.00  0.00     0.058 A 
ATOM     26  C   UNL d   1      32.909  23.469 -19.823  0.00  0.00     0.012 A 
ATOM     27 CL   UNL d   1      33.058  23.702 -18.416  0.00  0.00    -0.082 Cl
ATOM     28  C   UNL d   1      32.918  22.944 -20.469  0.00  0.00     0.014 A 
ENDBRANCH  19  22
ENDBRANCH   1  19
TORSDOF 5
ENDMDL
MODEL 2
REMARK VINA RESULT:      -0.8      2.303      5.976
REMARK  5 active torsions:
REMARK  status: ('A' for Active; 'I' for Inactive)
REMARK    1  A    between atoms: N_6  and  S_1 
REMARK    2  A    between atoms: C_11  and  S_1 
REMARK    3  A    between atoms: N_2  and  C_16 
REMARK       I    between atoms: C_9  and  N_8 
REMARK    4  A    between atoms: C_10  and  C_9 
REMARK    5  A    between atoms: C_16  and  C_10 
ROOT
ATOM      1  N   UNL d   1      32.870  19.463 -22.956  0.00  0.00    -0.226 N 
ATOM      2  N   UNL d   1      33.017  21.058 -22.577  0.00  0.00    -0.269 N 
ATOM      3  C   UNL d   1      33.092  21.855 -22.378  0.00  0.00     0.267 C 
ATOM      4  C   UNL d   1      33.019  19.690 -22.178  0.00  0.00     0.111 A 
ATOM      5  C   UNL d   1      32.791  20.039 -23.559  0.00  0.00     0.111 A 
ATOM      6  C   UNL d   1      33.093  20.489 -21.988  0.00  0.00     0.103 A 
ATOM      7  C   UNL d   1      32.865  20.838 -23.369  0.00  0.00     0.103 A 
ATOM      8  O   UNL d   1      33.016  22.431 -22.964  0.00  0.00    -0.267 OA
ENDROOT
BRANCH   3   9
ATOM      9  C   UNL d   1      33.241  22.073 -21.599  0.00  0.00     0.082 C 
BRANCH   9  10
ATOM     10  C   UNL d   1      32.976  22.805 -21.325  0.00  0.00     0.105 C 
BRANCH  10  11
ATOM     11  N   UNL d   1      32.796  22.899 -20.522  0.00  0.00    -0.228 N 
ATOM     12  N   UNL d   1      33.228  22.608 -19.883  0.00  0.00    -0.165 NA
ATOM     13  C   UNL d   1      32.850  22.831 -19.184  0.00  0.00     0.103 A 
ATOM     14  C   UNL d   1      33.097  22.655 -18.412  0.00  0.00     0.022 C 
ATOM     15  C   UNL d   1      32.177  23.263 -19.388  0.00  0.00     0.037 A 
ATOM     16  C   UNL d   1      32.141  23.307 -20.215  0.00  0.00     0.084 A 
ATOM     17  C   UNL d   1      31.636  23.593 -18.863  0.00  0.00     0.003 C 
ATOM     18  C   UNL d   1      31.552  23.691 -20.649  0.00  0.00     0.021 C 
ENDBRANCH  10  11
ENDBRANCH   9  10
ENDBRANCH   3   9
BRANCH   1  19
ATOM     19  S   UNL d   1      32.796  18.660 -23.147  0.00  0.00     0.271 S 
ATOM     20  O   UNL d   1      33.004  18.828 -23.936  0.00  0.00    -0.200 OA
ATOM     21  O   UNL d   1      32.590  18.493 -22.366  0.00  0.00    -0.200 OA
BRANCH  19  22
ATOM     22  C   UNL d   1      32.721  17.852 -23.339  0.00  0.00     0.104 A 
ATOM     23  C   UNL d   1      32.212  17.624 -23.939  0.00  0.00     0.014 A 
ATOM     24  C   UNL d   1      32.135  16.826 -24.133  0.00  0.00     0.012 A 
ATOM     25  C   UNL d   1      32.574  16.254 -23.719  0.00  0.00     0.058 A 
ATOM     26  C   UNL d   1      33.092  16.486 -23.108  0.00  0.00     0.012 A 
ATOM     27 CL   UNL d   1      32.500  15.455 -23.909  0.00  0.00    -0.082 Cl
ATOM     28  C   UNL d   1      33.166  17.293 -22.916  0.00  0.00     0.014 A 
ENDBRANCH  19  22
ENDBRANCH   1  19
TORSDOF 5
ENDMDL
