MODEL 1
REMARK VINA RESULT:      67.6      0.000      0.000
REMARK  5 active torsions:
REMARK  status: ('A' for Active; 'I' for Inactive)
REMARK    1  A    between atoms: C_16  and  N_5 
REMARK    2  A    between atoms: C_15  and  C_6 
REMARK    3  A    between atoms: C_19  and  C_16 
REMARK    4  A    between atoms: O_20  and  C_17 
REMARK    5  A    between atoms: C_22  and  C_19 
ROOT
ATOM      1  O   UNL d   1      14.915  12.701  -1.075  0.00  0.00    -0.326 OA
ATOM      2  C   UNL d   1      15.070  13.371  -1.541  0.00  0.00     0.118 C 
ATOM      3  C   UNL d   1      14.765  12.034  -0.610  0.00  0.00     0.181 C 
ENDROOT
BRANCH   2   4
ATOM      4  C   UNL d   1      14.622  13.820  -2.078  0.00  0.00     0.045 C 
BRANCH   4   5
ATOM      5  C   UNL d   1      14.172  13.647  -2.759  0.00  0.00     0.086 C 
BRANCH   5   6
ATOM      6  N   UNL d   1      14.101  14.225  -3.360  0.00  0.00    -0.258 N 
ATOM      7  C   UNL d   1      14.412  14.979  -3.248  0.00  0.00     0.272 A 
ATOM      8  C   UNL d   1      14.339  15.545  -3.843  0.00  0.00     0.137 A 
ATOM      9  O   UNL d   1      14.796  15.168  -2.545  0.00  0.00    -0.266 OA
ATOM     10  C   UNL d   1      13.954  15.358  -4.551  0.00  0.00     0.192 A 
ATOM     11  C   UNL d   1      14.651  16.302  -3.732  0.00  0.00     0.205 A 
ATOM     12  N   UNL d   1      13.644  14.609  -4.664  0.00  0.00    -0.204 NA
ATOM     13  O   UNL d   1      13.885  15.926  -5.139  0.00  0.00    -0.289 OA
ATOM     14  C   UNL d   1      13.716  14.035  -4.066  0.00  0.00     0.152 A 
ATOM     15  C   UNL d   1      14.198  16.680  -5.023  0.00  0.00     0.107 A 
ATOM     16  C   UNL d   1      14.580  16.862  -4.318  0.00  0.00     0.062 A 
ATOM     17  C   UNL d   1      14.126  17.253  -5.622  0.00  0.00     0.049 A 
ATOM     18  C   UNL d   1      14.894  17.619  -4.203  0.00  0.00     0.007 A 
ATOM     19  C   UNL d   1      14.821  18.186  -4.800  0.00  0.00     0.024 A 
ATOM     20  C   UNL d   1      14.439  18.004  -5.504  0.00  0.00     0.096 A 
ATOM     21  O   UNL d   1      15.033  16.483  -3.027  0.00  0.00    -0.286 OA
BRANCH  14  22
ATOM     22  C   UNL d   1      13.402  13.281  -4.181  0.00  0.00     0.035 A 
ATOM     23  C   UNL d   1      13.415  12.949  -4.939  0.00  0.00     0.003 A 
ATOM     24  C   UNL d   1      13.103  12.199  -5.051  0.00  0.00     0.000 A 
ATOM     25  C   UNL d   1      12.781  11.779  -4.420  0.00  0.00     0.000 A 
ATOM     26  C   UNL d   1      12.770  12.114  -3.666  0.00  0.00     0.000 A 
ATOM     27  C   UNL d   1      13.081  12.862  -3.551  0.00  0.00     0.003 A 
ENDBRANCH  14  22
BRANCH  20  28
ATOM     28  O   UNL d   1      14.373  18.573  -6.086  0.00  0.00    -0.328 OA
ATOM     29  C   UNL d   1      14.249  19.359  -5.873  0.00  0.00     0.181 C 
ENDBRANCH  20  28
ENDBRANCH   5   6
ENDBRANCH   4   5
ENDBRANCH   2   4
TORSDOF 5
ENDMDL
