MODEL 1
REMARK VINA RESULT:      89.5      0.000      0.000
REMARK  8 active torsions:
REMARK  status: ('A' for Active; 'I' for Inactive)
REMARK    1  A    between atoms: C_7  and  C_1 
REMARK    2  A    between atoms: C_10  and  N_2 
REMARK    3  A    between atoms: C_13  and  C_5 
REMARK    4  A    between atoms: C_6  and  C_7 
REMARK    5  A    between atoms: C_18  and  C_10 
REMARK    6  A    between atoms: N_19  and  C_18 
REMARK    7  A    between atoms: C_25  and  N_19 
REMARK    8  A    between atoms: C_26  and  N_19 
ROOT
ATOM      1  C   UNL d   1      60.366  48.872  50.285  0.00  0.00     0.101 A 
ATOM      2  N   UNL d   1      59.131  49.374  50.362  0.00  0.00    -0.269 N 
ATOM      3  C   UNL d   1      60.038  48.864  49.525  0.00  0.00     0.256 A 
ATOM      4  C   UNL d   1      59.277  49.173  49.573  0.00  0.00     0.304 A 
ATOM      5  C   UNL d   1      59.802  49.188  50.796  0.00  0.00     0.075 A 
ATOM      6  O   UNL d   1      58.751  49.266  48.937  0.00  0.00    -0.263 OA
ATOM      7  O   UNL d   1      60.409  48.592  48.834  0.00  0.00    -0.281 OA
ENDROOT
BRANCH   1   8
ATOM      8  C   UNL d   1      61.122  48.610  50.487  0.00  0.00     0.223 C 
ATOM      9  O   UNL d   1      61.642  49.117  50.884  0.00  0.00    -0.284 OA
BRANCH   8  10
ATOM     10  C   UNL d   1      61.366  47.846  50.297  0.00  0.00     0.139 A 
ATOM     11  O   UNL d   1      61.412  47.204  50.817  0.00  0.00    -0.304 OA
ATOM     12  C   UNL d   1      61.682  46.555  50.389  0.00  0.00     0.100 A 
ATOM     13  C   UNL d   1      61.832  45.776  50.616  0.00  0.00     0.025 A 
ATOM     14  C   UNL d   1      61.804  46.788  49.614  0.00  0.00     0.025 A 
ATOM     15  C   UNL d   1      62.104  45.236  50.063  0.00  0.00     0.002 A 
ATOM     16  C   UNL d   1      62.224  45.476  49.284  0.00  0.00     0.000 A 
ATOM     17  C   UNL d   1      62.076  46.246  49.058  0.00  0.00     0.002 A 
ATOM     18  C   UNL d   1      61.607  47.589  49.559  0.00  0.00     0.030 A 
ENDBRANCH   8  10
ENDBRANCH   1   8
BRANCH   5  19
ATOM     19  C   UNL d   1      59.906  49.295  51.619  0.00  0.00     0.036 A 
ATOM     20  C   UNL d   1      59.293  49.099  52.140  0.00  0.00     0.100 A 
ATOM     21  N   UNL d   1      59.393  49.203  52.950  0.00  0.00    -0.242 NA
ATOM     22  C   UNL d   1      60.114  49.509  53.251  0.00  0.00     0.099 A 
ATOM     23  C   UNL d   1      60.726  49.705  52.721  0.00  0.00     0.021 A 
ATOM     24  C   UNL d   1      60.618  49.597  51.908  0.00  0.00     0.005 A 
ENDBRANCH   5  19
BRANCH   2  25
ATOM     25  C   UNL d   1      58.429  49.704  50.655  0.00  0.00     0.102 C 
BRANCH  25  26
ATOM     26  C   UNL d   1      57.747  49.707  50.193  0.00  0.00     0.100 C 
BRANCH  26  27
ATOM     27  N   UNL d   1      57.127  49.181  50.365  0.00  0.00    -0.301 N 
BRANCH  27  28
ATOM     28  C   UNL d   1      56.827  49.142  51.133  0.00  0.00     0.080 C 
ATOM     29  C   UNL d   1      56.094  49.471  51.313  0.00  0.00     0.021 C 
ENDBRANCH  27  28
BRANCH  27  30
ATOM     30  C   UNL d   1      56.819  48.706  49.770  0.00  0.00     0.080 C 
ATOM     31  C   UNL d   1      56.033  48.451  49.802  0.00  0.00     0.021 C 
ENDBRANCH  27  30
ENDBRANCH  26  27
ENDBRANCH  25  26
ENDBRANCH   2  25
TORSDOF 8
ENDMDL
