MODEL 1
REMARK VINA RESULT:       0.8      0.000      0.000
REMARK  2 active torsions:
REMARK  status: ('A' for Active; 'I' for Inactive)
REMARK    1  A    between atoms: C_13  and  C_2 
REMARK    2  A    between atoms: N_12  and  C_8 
ROOT
ATOM      1  N   UNL d   1      58.449  -0.257  31.105  0.00  0.00    -0.301 N 
ATOM      2  C   UNL d   1      58.465  -1.194  30.025  0.00  0.00     0.121 A 
ATOM      3  C   UNL d   1      57.737  -0.566  31.360  0.00  0.00     0.092 A 
ATOM      4  C   UNL d   1      57.361  -0.252  32.037  0.00  0.00     0.134 A 
ATOM      5  C   UNL d   1      57.385  -1.190  30.951  0.00  0.00     0.060 A 
ATOM      6  C   UNL d   1      58.818  -0.570  30.434  0.00  0.00     0.090 A 
ATOM      7  C   UNL d   1      57.748  -1.498  30.292  0.00  0.00     0.204 A 
ATOM      8  C   UNL d   1      56.641  -0.562  32.299  0.00  0.00     0.116 A 
ATOM      9  O   UNL d   1      57.718   0.378  32.450  0.00  0.00    -0.301 OA
ATOM     10  C   UNL d   1      56.288  -1.186  31.891  0.00  0.00     0.158 A 
ATOM     11  C   UNL d   1      56.675  -1.494  31.212  0.00  0.00     0.036 A 
ATOM     12  C   UNL d   1      58.800   0.365  31.512  0.00  0.00     0.089 A 
ATOM     13  O   UNL d   1      57.392  -2.128  29.880  0.00  0.00    -0.286 OA
ATOM     14  C   UNL d   1      58.442   0.682  32.177  0.00  0.00     0.140 A 
ATOM     15  F   UNL d   1      55.560  -1.509  32.144  0.00  0.00    -0.203 F 
ATOM     16  C   UNL d   1      59.523   0.678  31.251  0.00  0.00     0.021 C 
ENDROOT
BRANCH   8  17
ATOM     17  N   UNL d   1      56.271  -0.251  32.968  0.00  0.00    -0.298 N 
ATOM     18  C   UNL d   1      55.670   0.322  32.878  0.00  0.00     0.100 A 
ATOM     19  C   UNL d   1      55.305   0.628  33.563  0.00  0.00     0.100 A 
ATOM     20  N   UNL d   1      55.533   0.371  34.313  0.00  0.00    -0.299 N 
ATOM     21  C   UNL d   1      56.137  -0.203  34.370  0.00  0.00     0.100 A 
ATOM     22  C   UNL d   1      55.165   0.680  34.989  0.00  0.00     0.100 C 
ATOM     23  C   UNL d   1      56.499  -0.508  33.718  0.00  0.00     0.100 A 
ENDBRANCH   8  17
BRANCH   2  24
ATOM     24  C   UNL d   1      58.826  -1.522  29.346  0.00  0.00     0.215 C 
ATOM     25  O   UNL d   1      58.666  -1.217  28.586  0.00  0.00    -0.644 OA
ATOM     26  O   UNL d   1      59.346  -2.153  29.422  0.00  0.00    -0.644 OA
ENDBRANCH   2  24
TORSDOF 2
ENDMDL
MODEL 2
REMARK VINA RESULT:       1.0      1.718      4.071
REMARK  2 active torsions:
REMARK  status: ('A' for Active; 'I' for Inactive)
REMARK    1  A    between atoms: C_13  and  C_2 
REMARK    2  A    between atoms: N_12  and  C_8 
ROOT
ATOM      1  N   UNL d   1      57.504  -0.150  32.555  0.00  0.00    -0.301 N 
ATOM      2  C   UNL d   1      56.358  -0.978  32.775  0.00  0.00     0.121 A 
ATOM      3  C   UNL d   1      57.555  -0.429  31.789  0.00  0.00     0.092 A 
ATOM      4  C   UNL d   1      58.160  -0.154  31.282  0.00  0.00     0.134 A 
ATOM      5  C   UNL d   1      57.010  -0.982  31.510  0.00  0.00     0.060 A 
ATOM      6  C   UNL d   1      56.903  -0.425  33.054  0.00  0.00     0.090 A 
ATOM      7  C   UNL d   1      56.420  -1.251  32.000  0.00  0.00     0.204 A 
ATOM      8  C   UNL d   1      58.217  -0.433  30.505  0.00  0.00     0.116 A 
ATOM      9  O   UNL d   1      58.711   0.405  31.564  0.00  0.00    -0.301 OA
ATOM     10  C   UNL d   1      57.672  -0.986  30.226  0.00  0.00     0.158 A 
ATOM     11  C   UNL d   1      57.068  -1.255  30.744  0.00  0.00     0.036 A 
ATOM     12  C   UNL d   1      58.047   0.401  32.833  0.00  0.00     0.089 A 
ATOM     13  O   UNL d   1      55.871  -1.809  31.718  0.00  0.00    -0.286 OA
ATOM     14  C   UNL d   1      58.644   0.678  32.347  0.00  0.00     0.140 A 
ATOM     15  F   UNL d   1      57.717  -1.276  29.444  0.00  0.00    -0.203 F 
ATOM     16  C   UNL d   1      57.992   0.682  33.612  0.00  0.00     0.021 C 
ENDROOT
BRANCH   8  17
ATOM     17  N   UNL d   1      58.815  -0.161  30.007  0.00  0.00    -0.298 N 
ATOM     18  C   UNL d   1      59.587  -0.473  30.080  0.00  0.00     0.100 A 
ATOM     19  C   UNL d   1      60.182  -0.188  29.569  0.00  0.00     0.100 A 
ATOM     20  N   UNL d   1      60.012   0.389  29.004  0.00  0.00    -0.299 N 
ATOM     21  C   UNL d   1      59.231   0.681  28.955  0.00  0.00     0.100 A 
ATOM     22  C   UNL d   1      60.609   0.666  28.500  0.00  0.00     0.100 C 
ATOM     23  C   UNL d   1      58.646   0.416  29.441  0.00  0.00     0.100 A 
ENDBRANCH   8  17
BRANCH   2  24
ATOM     24  C   UNL d   1      55.746  -1.264  33.266  0.00  0.00     0.215 C 
ATOM     25  O   UNL d   1      55.784  -2.028  33.599  0.00  0.00    -0.644 OA
ATOM     26  O   UNL d   1      55.095  -0.790  33.427  0.00  0.00    -0.644 OA
ENDBRANCH   2  24
TORSDOF 2
ENDMDL
MODEL 3
REMARK VINA RESULT:       1.3      8.864      9.302
REMARK  2 active torsions:
REMARK  status: ('A' for Active; 'I' for Inactive)
REMARK    1  A    between atoms: C_13  and  C_2 
REMARK    2  A    between atoms: N_12  and  C_8 
ROOT
ATOM      1  N   UNL d   1      58.433  -9.522  31.189  0.00  0.00    -0.301 N 
ATOM      2  C   UNL d   1      59.255  -9.569  30.020  0.00  0.00     0.121 A 
ATOM      3  C   UNL d   1      59.098  -9.414  31.650  0.00  0.00     0.092 A 
ATOM      4  C   UNL d   1      59.027  -9.334  32.479  0.00  0.00     0.134 A 
ATOM      5  C   UNL d   1      59.845  -9.382  31.301  0.00  0.00     0.060 A 
ATOM      6  C   UNL d   1      58.508  -9.600  30.369  0.00  0.00     0.090 A 
ATOM      7  C   UNL d   1      59.919  -9.460  30.496  0.00  0.00     0.204 A 
ATOM      8  C   UNL d   1      59.697  -9.224  32.950  0.00  0.00     0.116 A 
ATOM      9  O   UNL d   1      58.271  -9.365  32.831  0.00  0.00    -0.301 OA
ATOM     10  C   UNL d   1      60.444  -9.193  32.602  0.00  0.00     0.158 A 
ATOM     11  C   UNL d   1      60.505  -9.274  31.768  0.00  0.00     0.036 A 
ATOM     12  C   UNL d   1      57.688  -9.553  31.537  0.00  0.00     0.089 A 
ATOM     13  O   UNL d   1      60.673  -9.428  30.144  0.00  0.00    -0.286 OA
ATOM     14  C   UNL d   1      57.604  -9.476  32.347  0.00  0.00     0.140 A 
ATOM     15  F   UNL d   1      61.131  -9.082  33.066  0.00  0.00    -0.203 F 
ATOM     16  C   UNL d   1      57.014  -9.663  31.066  0.00  0.00     0.021 C 
ENDROOT
BRANCH   8  17
ATOM     17  N   UNL d   1      59.624  -9.145  33.769  0.00  0.00    -0.298 N 
ATOM     18  C   UNL d   1      59.542  -8.384  34.104  0.00  0.00     0.100 A 
ATOM     19  C   UNL d   1      59.469  -8.320  34.933  0.00  0.00     0.100 A 
ATOM     20  N   UNL d   1      59.478  -8.993  35.410  0.00  0.00    -0.299 N 
ATOM     21  C   UNL d   1      59.561  -9.740  35.045  0.00  0.00     0.100 A 
ATOM     22  C   UNL d   1      59.405  -8.920  36.233  0.00  0.00     0.100 C 
ATOM     23  C   UNL d   1      59.632  -9.818  34.246  0.00  0.00     0.100 A 
ENDBRANCH   8  17
BRANCH   2  24
ATOM     24  C   UNL d   1      59.347  -9.647  29.193  0.00  0.00     0.215 C 
ATOM     25  O   UNL d   1      60.093  -9.814  28.858  0.00  0.00    -0.644 OA
ATOM     26  O   UNL d   1      58.697  -9.559  28.699  0.00  0.00    -0.644 OA
ENDBRANCH   2  24
TORSDOF 2
ENDMDL
MODEL 4
REMARK VINA RESULT:       2.5      2.047      4.367
REMARK  2 active torsions:
REMARK  status: ('A' for Active; 'I' for Inactive)
REMARK    1  A    between atoms: C_13  and  C_2 
REMARK    2  A    between atoms: N_12  and  C_8 
ROOT
ATOM      1  N   UNL d   1      57.208   0.644  33.774  0.00  0.00    -0.301 N 
ATOM      2  C   UNL d   1      55.788   0.611  33.946  0.00  0.00     0.121 A 
ATOM      3  C   UNL d   1      57.107   0.632  32.963  0.00  0.00     0.092 A 
ATOM      4  C   UNL d   1      57.772   0.642  32.458  0.00  0.00     0.134 A 
ATOM      5  C   UNL d   1      56.349   0.609  32.638  0.00  0.00     0.060 A 
ATOM      6  C   UNL d   1      56.546   0.634  34.271  0.00  0.00     0.090 A 
ATOM      7  C   UNL d   1      55.700   0.599  33.127  0.00  0.00     0.204 A 
ATOM      8  C   UNL d   1      57.677   0.630  31.637  0.00  0.00     0.116 A 
ATOM      9  O   UNL d   1      58.538   0.665  32.787  0.00  0.00    -0.301 OA
ATOM     10  C   UNL d   1      56.919   0.608  31.311  0.00  0.00     0.158 A 
ATOM     11  C   UNL d   1      56.257   0.597  31.828  0.00  0.00     0.036 A 
ATOM     12  C   UNL d   1      57.963   0.667  34.098  0.00  0.00     0.089 A 
ATOM     13  O   UNL d   1      54.935   0.576  32.798  0.00  0.00    -0.286 OA
ATOM     14  C   UNL d   1      58.623   0.677  33.614  0.00  0.00     0.140 A 
ATOM     15  F   UNL d   1      56.807   0.595  30.483  0.00  0.00    -0.203 F 
ATOM     16  C   UNL d   1      58.062   0.679  34.922  0.00  0.00     0.021 C 
ENDROOT
BRANCH   8  17
ATOM     17  N   UNL d   1      58.335   0.641  31.139  0.00  0.00    -0.298 N 
ATOM     18  C   UNL d   1      59.101   0.672  31.470  0.00  0.00     0.100 A 
ATOM     19  C   UNL d   1      59.758   0.682  30.955  0.00  0.00     0.100 A 
ATOM     20  N   UNL d   1      59.652   0.662  30.137  0.00  0.00    -0.299 N 
ATOM     21  C   UNL d   1      58.873   0.631  29.836  0.00  0.00     0.100 A 
ATOM     22  C   UNL d   1      60.310   0.672  29.632  0.00  0.00     0.100 C 
ATOM     23  C   UNL d   1      58.230   0.621  30.321  0.00  0.00     0.100 A 
ENDBRANCH   8  17
BRANCH   2  24
ATOM     24  C   UNL d   1      55.110   0.600  34.435  0.00  0.00     0.215 C 
ATOM     25  O   UNL d   1      55.179   0.658  35.264  0.00  0.00    -0.644 OA
ATOM     26  O   UNL d   1      54.364   0.530  34.099  0.00  0.00    -0.644 OA
ENDBRANCH   2  24
TORSDOF 2
ENDMDL
