MODEL 1
REMARK VINA RESULT:      -9.4      0.000      0.000
REMARK  4 active torsions:
REMARK  status: ('A' for Active; 'I' for Inactive)
REMARK    1  A    between atoms: C_2  and  S_1 
REMARK    2  A    between atoms: N_4  and  S_1 
REMARK    3  A    between atoms: C_16  and  N_4 
REMARK    4  A    between atoms: C_17  and  C_16 
ROOT
ATOM      1  S   UNL d   1      51.976  33.642  53.287  0.00  0.00     0.287 S 
ATOM      2  O   UNL d   1      51.527  33.166  53.790  0.00  0.00    -0.198 OA
ATOM      3  O   UNL d   1      52.420  34.123  52.782  0.00  0.00    -0.198 OA
ENDROOT
BRANCH   1   4
ATOM      4  C   UNL d   1      52.631  33.155  53.412  0.00  0.00     0.123 A 
ATOM      5  C   UNL d   1      53.202  33.355  53.978  0.00  0.00     0.094 A 
ATOM      6  N   UNL d   1      53.113  34.046  54.420  0.00  0.00    -0.243 NA
ATOM      7  C   UNL d   1      53.849  32.882  54.106  0.00  0.00     0.018 A 
ATOM      8  C   UNL d   1      53.665  34.248  54.974  0.00  0.00     0.099 A 
ATOM      9  C   UNL d   1      54.319  33.763  55.099  0.00  0.00     0.021 A 
ATOM     10  C   UNL d   1      54.425  33.077  54.673  0.00  0.00     0.003 A 
ATOM     11  C   UNL d   1      53.943  32.185  53.664  0.00  0.00     0.002 A 
ATOM     12  C   UNL d   1      53.387  31.989  53.111  0.00  0.00     0.001 A 
ATOM     13  C   UNL d   1      52.731  32.475  52.985  0.00  0.00     0.015 A 
ENDBRANCH   1   4
BRANCH   1  14
ATOM     14  N   UNL d   1      51.316  34.125  53.167  0.00  0.00    -0.157 NA
BRANCH  14  15
ATOM     15  C   UNL d   1      50.790  33.957  52.547  0.00  0.00     0.112 C 
BRANCH  15  16
ATOM     16  C   UNL d   1      50.101  34.380  52.463  0.00  0.00     0.022 A 
ATOM     17  C   UNL d   1      49.823  34.882  53.069  0.00  0.00     0.028 A 
ATOM     18  C   UNL d   1      49.136  35.296  52.970  0.00  0.00     0.119 A 
ATOM     19  O   UNL d   1      48.742  35.812  53.451  0.00  0.00    -0.300 OA
ATOM     20  C   UNL d   1      48.699  35.222  52.258  0.00  0.00     0.119 A 
ATOM     21  C   UNL d   1      48.057  36.069  53.052  0.00  0.00     0.304 A 
ATOM     22  O   UNL d   1      48.047  35.698  52.324  0.00  0.00    -0.300 OA
ATOM     23  C   UNL d   1      48.968  34.740  51.679  0.00  0.00     0.026 A 
ATOM     24  C   UNL d   1      49.681  34.309  51.778  0.00  0.00     0.004 A 
ENDBRANCH  15  16
ENDBRANCH  14  15
ENDBRANCH   1  14
TORSDOF 4
ENDMDL
MODEL 2
REMARK VINA RESULT:      -8.4      2.421      4.889
REMARK  4 active torsions:
REMARK  status: ('A' for Active; 'I' for Inactive)
REMARK    1  A    between atoms: C_2  and  S_1 
REMARK    2  A    between atoms: N_4  and  S_1 
REMARK    3  A    between atoms: C_16  and  N_4 
REMARK    4  A    between atoms: C_17  and  C_16 
ROOT
ATOM      1  S   UNL d   1      52.936  32.670  53.331  0.00  0.00     0.287 S 
ATOM      2  O   UNL d   1      53.650  32.842  52.955  0.00  0.00    -0.198 OA
ATOM      3  O   UNL d   1      52.224  32.490  53.709  0.00  0.00    -0.198 OA
ENDROOT
BRANCH   1   4
ATOM      4  C   UNL d   1      52.679  33.442  53.196  0.00  0.00     0.123 A 
ATOM      5  C   UNL d   1      52.878  34.050  53.723  0.00  0.00     0.094 A 
ATOM      6  N   UNL d   1      53.337  33.880  54.387  0.00  0.00    -0.243 NA
ATOM      7  C   UNL d   1      52.628  34.812  53.597  0.00  0.00     0.018 A 
ATOM      8  C   UNL d   1      53.535  34.466  54.905  0.00  0.00     0.099 A 
ATOM      9  C   UNL d   1      53.278  35.238  54.771  0.00  0.00     0.021 A 
ATOM     10  C   UNL d   1      52.824  35.426  54.121  0.00  0.00     0.003 A 
ATOM     11  C   UNL d   1      52.166  34.989  52.930  0.00  0.00     0.002 A 
ATOM     12  C   UNL d   1      51.971  34.396  52.414  0.00  0.00     0.001 A 
ATOM     13  C   UNL d   1      52.228  33.624  52.549  0.00  0.00     0.015 A 
ENDBRANCH   1   4
BRANCH   1  14
ATOM     14  N   UNL d   1      53.201  31.897  53.463  0.00  0.00    -0.157 NA
BRANCH  14  15
ATOM     15  C   UNL d   1      52.712  31.256  53.268  0.00  0.00     0.112 C 
BRANCH  15  16
ATOM     16  C   UNL d   1      52.904  30.503  53.505  0.00  0.00     0.022 A 
ATOM     17  C   UNL d   1      52.990  30.310  54.312  0.00  0.00     0.028 A 
ATOM     18  C   UNL d   1      53.182  29.556  54.531  0.00  0.00     0.119 A 
ATOM     19  O   UNL d   1      53.298  29.217  55.256  0.00  0.00    -0.300 OA
ATOM     20  C   UNL d   1      53.296  28.963  53.948  0.00  0.00     0.119 A 
ATOM     21  C   UNL d   1      53.486  28.413  55.140  0.00  0.00     0.304 A 
ATOM     22  O   UNL d   1      53.480  28.276  54.334  0.00  0.00    -0.300 OA
ATOM     23  C   UNL d   1      53.213  29.151  53.175  0.00  0.00     0.026 A 
ATOM     24  C   UNL d   1      53.014  29.933  52.943  0.00  0.00     0.004 A 
ENDBRANCH  15  16
ENDBRANCH  14  15
ENDBRANCH   1  14
TORSDOF 4
ENDMDL
MODEL 3
REMARK VINA RESULT:      -7.8      1.197      4.812
REMARK  4 active torsions:
REMARK  status: ('A' for Active; 'I' for Inactive)
REMARK    1  A    between atoms: C_2  and  S_1 
REMARK    2  A    between atoms: N_4  and  S_1 
REMARK    3  A    between atoms: C_16  and  N_4 
REMARK    4  A    between atoms: C_17  and  C_16 
ROOT
ATOM      1  S   UNL d   1      50.778  34.186  52.857  0.00  0.00     0.287 S 
ATOM      2  O   UNL d   1      50.353  33.550  53.167  0.00  0.00    -0.198 OA
ATOM      3  O   UNL d   1      51.209  34.821  52.551  0.00  0.00    -0.198 OA
ENDROOT
BRANCH   1   4
ATOM      4  C   UNL d   1      50.142  34.371  52.364  0.00  0.00     0.123 A 
ATOM      5  C   UNL d   1      49.529  34.859  52.634  0.00  0.00     0.094 A 
ATOM      6  N   UNL d   1      49.556  35.162  53.401  0.00  0.00    -0.243 NA
ATOM      7  C   UNL d   1      48.900  35.045  52.155  0.00  0.00     0.018 A 
ATOM      8  C   UNL d   1      48.963  35.638  53.671  0.00  0.00     0.099 A 
ATOM      9  C   UNL d   1      48.327  35.823  53.180  0.00  0.00     0.021 A 
ATOM     10  C   UNL d   1      48.282  35.534  52.419  0.00  0.00     0.003 A 
ATOM     11  C   UNL d   1      48.868  34.743  51.383  0.00  0.00     0.002 A 
ATOM     12  C   UNL d   1      49.466  34.266  51.118  0.00  0.00     0.001 A 
ATOM     13  C   UNL d   1      50.102  34.081  51.610  0.00  0.00     0.015 A 
ENDBRANCH   1   4
BRANCH   1  14
ATOM     14  N   UNL d   1      51.411  33.995  53.354  0.00  0.00    -0.157 NA
BRANCH  14  15
ATOM     15  C   UNL d   1      52.139  33.770  53.024  0.00  0.00     0.112 C 
BRANCH  15  16
ATOM     16  C   UNL d   1      52.750  33.526  53.501  0.00  0.00     0.022 A 
ATOM     17  C   UNL d   1      53.134  34.055  54.020  0.00  0.00     0.028 A 
ATOM     18  C   UNL d   1      53.741  33.796  54.488  0.00  0.00     0.119 A 
ATOM     19  O   UNL d   1      54.204  34.176  55.030  0.00  0.00    -0.300 OA
ATOM     20  C   UNL d   1      53.986  32.995  54.454  0.00  0.00     0.119 A 
ATOM     21  C   UNL d   1      54.744  33.623  55.344  0.00  0.00     0.304 A 
ATOM     22  O   UNL d   1      54.596  32.906  54.980  0.00  0.00    -0.300 OA
ATOM     23  C   UNL d   1      53.616  32.490  53.956  0.00  0.00     0.026 A 
ATOM     24  C   UNL d   1      52.986  32.755  53.469  0.00  0.00     0.004 A 
ENDBRANCH  15  16
ENDBRANCH  14  15
ENDBRANCH   1  14
TORSDOF 4
ENDMDL
MODEL 4
REMARK VINA RESULT:      -7.3      2.721      3.741
REMARK  4 active torsions:
REMARK  status: ('A' for Active; 'I' for Inactive)
REMARK    1  A    between atoms: C_2  and  S_1 
REMARK    2  A    between atoms: N_4  and  S_1 
REMARK    3  A    between atoms: C_16  and  N_4 
REMARK    4  A    between atoms: C_17  and  C_16 
ROOT
ATOM      1  S   UNL d   1      53.188  31.619  53.657  0.00  0.00     0.287 S 
ATOM      2  O   UNL d   1      52.364  31.656  53.688  0.00  0.00    -0.198 OA
ATOM      3  O   UNL d   1      54.013  31.589  53.628  0.00  0.00    -0.198 OA
ENDROOT
BRANCH   1   4
ATOM      4  C   UNL d   1      53.143  30.839  53.391  0.00  0.00     0.123 A 
ATOM      5  C   UNL d   1      53.198  30.208  53.926  0.00  0.00     0.094 A 
ATOM      6  N   UNL d   1      53.299  30.364  54.730  0.00  0.00    -0.243 NA
ATOM      7  C   UNL d   1      53.154  29.439  53.672  0.00  0.00     0.018 A 
ATOM      8  C   UNL d   1      53.353  29.755  55.257  0.00  0.00     0.099 A 
ATOM      9  C   UNL d   1      53.308  28.975  54.993  0.00  0.00     0.021 A 
ATOM     10  C   UNL d   1      53.208  28.802  54.203  0.00  0.00     0.003 A 
ATOM     11  C   UNL d   1      53.052  29.277  52.864  0.00  0.00     0.002 A 
ATOM     12  C   UNL d   1      52.998  29.892  52.340  0.00  0.00     0.001 A 
ATOM     13  C   UNL d   1      53.044  30.672  52.605  0.00  0.00     0.015 A 
ENDBRANCH   1   4
BRANCH   1  14
ATOM     14  N   UNL d   1      53.226  32.401  53.923  0.00  0.00    -0.157 NA
BRANCH  14  15
ATOM     15  C   UNL d   1      53.214  33.024  53.375  0.00  0.00     0.112 C 
BRANCH  15  16
ATOM     16  C   UNL d   1      53.105  33.790  53.623  0.00  0.00     0.022 A 
ATOM     17  C   UNL d   1      53.373  34.048  54.370  0.00  0.00     0.028 A 
ATOM     18  C   UNL d   1      53.257  34.814  54.601  0.00  0.00     0.119 A 
ATOM     19  O   UNL d   1      53.453  35.209  55.278  0.00  0.00    -0.300 OA
ATOM     20  C   UNL d   1      52.867  35.353  54.091  0.00  0.00     0.119 A 
ATOM     21  C   UNL d   1      53.191  35.997  55.205  0.00  0.00     0.304 A 
ATOM     22  O   UNL d   1      52.834  36.067  54.472  0.00  0.00    -0.300 OA
ATOM     23  C   UNL d   1      52.611  35.103  53.375  0.00  0.00     0.026 A 
ATOM     24  C   UNL d   1      52.730  34.309  53.132  0.00  0.00     0.004 A 
ENDBRANCH  15  16
ENDBRANCH  14  15
ENDBRANCH   1  14
TORSDOF 4
ENDMDL
