MODEL 1
REMARK VINA RESULT:      -8.9      0.000      0.000
REMARK  3 active torsions:
REMARK  status: ('A' for Active; 'I' for Inactive)
REMARK    1  A    between atoms: S_11  and  C_7 
REMARK    2  A    between atoms: C_12  and  S_11 
REMARK    3  A    between atoms: C_14  and  C_12 
ROOT
ATOM      1  N   UNL d   1      53.047  33.985  53.949  0.00  0.00    -0.167 N 
ATOM      2  C   UNL d   1      52.453  34.084  53.392  0.00  0.00     0.220 A 
ATOM      3  C   UNL d   1      53.296  34.619  54.422  0.00  0.00     0.301 A 
ATOM      4  S   UNL d   1      52.337  33.356  53.018  0.00  0.00    -0.019 SA
ATOM      5  N   UNL d   1      53.302  33.208  53.926  0.00  0.00    -0.147 NA
ATOM      6  N   UNL d   1      52.094  34.819  53.297  0.00  0.00    -0.121 NA
ATOM      7  C   UNL d   1      52.861  32.818  53.350  0.00  0.00     0.163 A 
ATOM      8  N   UNL d   1      52.331  35.456  53.759  0.00  0.00    -0.141 NA
ATOM      9  C   UNL d   1      52.929  35.356  54.318  0.00  0.00     0.161 A 
ATOM     10  O   UNL d   1      53.888  34.520  54.976  0.00  0.00    -0.263 OA
ATOM     11  C   UNL d   1      53.169  35.992  54.783  0.00  0.00     0.028 C 
ENDROOT
BRANCH   7  12
ATOM     12  S   UNL d   1      52.933  32.024  53.139  0.00  0.00    -0.059 SA
BRANCH  12  13
ATOM     13  C   UNL d   1      53.373  31.509  53.603  0.00  0.00     0.037 C 
BRANCH  13  14
ATOM     14  C   UNL d   1      53.234  30.694  53.555  0.00  0.00     0.006 A 
ATOM     15  C   UNL d   1      53.395  30.211  54.204  0.00  0.00     0.001 A 
ATOM     16  C   UNL d   1      53.261  29.404  54.166  0.00  0.00     0.000 A 
ATOM     17  C   UNL d   1      53.421  28.926  54.809  0.00  0.00     0.000 C 
ATOM     18  C   UNL d   1      52.962  29.068  53.472  0.00  0.00     0.000 A 
ATOM     19  C   UNL d   1      52.799  29.547  52.820  0.00  0.00     0.000 A 
ATOM     20  C   UNL d   1      52.934  30.359  52.861  0.00  0.00     0.001 A 
ENDBRANCH  13  14
ENDBRANCH  12  13
ENDBRANCH   7  12
TORSDOF 3
ENDMDL
MODEL 2
REMARK VINA RESULT:      -8.5      2.300      4.356
REMARK  3 active torsions:
REMARK  status: ('A' for Active; 'I' for Inactive)
REMARK    1  A    between atoms: S_11  and  C_7 
REMARK    2  A    between atoms: C_12  and  S_11 
REMARK    3  A    between atoms: C_14  and  C_12 
ROOT
ATOM      1  N   UNL d   1      53.110  33.780  53.974  0.00  0.00    -0.167 N 
ATOM      2  C   UNL d   1      53.087  33.087  53.536  0.00  0.00     0.220 A 
ATOM      3  C   UNL d   1      53.694  33.898  54.551  0.00  0.00     0.301 A 
ATOM      4  S   UNL d   1      52.447  33.143  53.015  0.00  0.00    -0.019 SA
ATOM      5  N   UNL d   1      52.495  34.264  53.735  0.00  0.00    -0.147 NA
ATOM      6  N   UNL d   1      53.647  32.498  53.664  0.00  0.00    -0.121 NA
ATOM      7  C   UNL d   1      52.084  33.869  53.141  0.00  0.00     0.163 A 
ATOM      8  N   UNL d   1      54.231  32.601  54.232  0.00  0.00    -0.141 NA
ATOM      9  C   UNL d   1      54.255  33.298  54.673  0.00  0.00     0.161 A 
ATOM     10  O   UNL d   1      53.718  34.588  54.988  0.00  0.00    -0.263 OA
ATOM     11  C   UNL d   1      54.839  33.406  55.243  0.00  0.00     0.028 C 
ENDROOT
BRANCH   7  12
ATOM     12  S   UNL d   1      51.422  34.152  52.739  0.00  0.00    -0.059 SA
BRANCH  12  13
ATOM     13  C   UNL d   1      50.672  34.063  53.059  0.00  0.00     0.037 C 
BRANCH  13  14
ATOM     14  C   UNL d   1      50.023  34.419  52.688  0.00  0.00     0.006 A 
ATOM     15  C   UNL d   1      49.536  34.931  53.114  0.00  0.00     0.001 A 
ATOM     16  C   UNL d   1      48.892  35.288  52.754  0.00  0.00     0.000 A 
ATOM     17  C   UNL d   1      48.411  35.795  53.176  0.00  0.00     0.000 C 
ATOM     18  C   UNL d   1      48.726  35.134  51.959  0.00  0.00     0.000 A 
ATOM     19  C   UNL d   1      49.210  34.622  51.530  0.00  0.00     0.000 A 
ATOM     20  C   UNL d   1      49.857  34.264  51.892  0.00  0.00     0.001 A 
ENDBRANCH  13  14
ENDBRANCH  12  13
ENDBRANCH   7  12
TORSDOF 3
ENDMDL
MODEL 3
REMARK VINA RESULT:      -8.0      2.744      4.842
REMARK  3 active torsions:
REMARK  status: ('A' for Active; 'I' for Inactive)
REMARK    1  A    between atoms: S_11  and  C_7 
REMARK    2  A    between atoms: C_12  and  S_11 
REMARK    3  A    between atoms: C_14  and  C_12 
ROOT
ATOM      1  N   UNL d   1      52.491  33.014  53.068  0.00  0.00    -0.167 N 
ATOM      2  C   UNL d   1      52.688  33.664  53.529  0.00  0.00     0.220 A 
ATOM      3  C   UNL d   1      52.948  32.323  53.091  0.00  0.00     0.301 A 
ATOM      4  S   UNL d   1      52.129  34.255  53.379  0.00  0.00    -0.019 SA
ATOM      5  N   UNL d   1      51.820  33.193  52.635  0.00  0.00    -0.147 NA
ATOM      6  N   UNL d   1      53.345  33.636  54.022  0.00  0.00    -0.121 NA
ATOM      7  C   UNL d   1      51.595  33.961  52.828  0.00  0.00     0.163 A 
ATOM      8  N   UNL d   1      53.807  32.957  54.055  0.00  0.00    -0.141 NA
ATOM      9  C   UNL d   1      53.610  32.304  53.592  0.00  0.00     0.161 A 
ATOM     10  O   UNL d   1      52.752  31.676  52.632  0.00  0.00    -0.263 OA
ATOM     11  C   UNL d   1      54.069  31.622  53.622  0.00  0.00     0.028 C 
ENDROOT
BRANCH   7  12
ATOM     12  S   UNL d   1      50.947  34.368  52.522  0.00  0.00    -0.059 SA
BRANCH  12  13
ATOM     13  C   UNL d   1      50.198  34.256  52.839  0.00  0.00     0.037 C 
BRANCH  13  14
ATOM     14  C   UNL d   1      49.547  34.636  52.497  0.00  0.00     0.006 A 
ATOM     15  C   UNL d   1      49.091  35.155  52.947  0.00  0.00     0.001 A 
ATOM     16  C   UNL d   1      48.445  35.536  52.617  0.00  0.00     0.000 A 
ATOM     17  C   UNL d   1      47.993  36.050  53.063  0.00  0.00     0.000 C 
ATOM     18  C   UNL d   1      48.247  35.400  51.825  0.00  0.00     0.000 A 
ATOM     19  C   UNL d   1      48.700  34.881  51.371  0.00  0.00     0.000 A 
ATOM     20  C   UNL d   1      49.349  34.500  51.705  0.00  0.00     0.001 A 
ENDBRANCH  13  14
ENDBRANCH  12  13
ENDBRANCH   7  12
TORSDOF 3
ENDMDL
MODEL 4
REMARK VINA RESULT:      -7.9      2.542      3.574
REMARK  3 active torsions:
REMARK  status: ('A' for Active; 'I' for Inactive)
REMARK    1  A    between atoms: S_11  and  C_7 
REMARK    2  A    between atoms: C_12  and  S_11 
REMARK    3  A    between atoms: C_14  and  C_12 
ROOT
ATOM      1  N   UNL d   1      50.037  34.734  52.705  0.00  0.00    -0.167 N 
ATOM      2  C   UNL d   1      50.131  34.336  51.994  0.00  0.00     0.220 A 
ATOM      3  C   UNL d   1      49.336  35.144  52.872  0.00  0.00     0.301 A 
ATOM      4  S   UNL d   1      50.881  33.989  52.000  0.00  0.00    -0.019 SA
ATOM      5  N   UNL d   1      50.715  34.639  53.152  0.00  0.00    -0.147 NA
ATOM      6  N   UNL d   1      49.527  34.341  51.434  0.00  0.00    -0.121 NA
ATOM      7  C   UNL d   1      51.239  34.177  52.715  0.00  0.00     0.163 A 
ATOM      8  N   UNL d   1      48.828  34.743  51.587  0.00  0.00    -0.141 NA
ATOM      9  C   UNL d   1      48.732  35.143  52.302  0.00  0.00     0.161 A 
ATOM     10  O   UNL d   1      49.241  35.540  53.580  0.00  0.00    -0.263 OA
ATOM     11  C   UNL d   1      48.033  35.548  52.459  0.00  0.00     0.028 C 
ENDROOT
BRANCH   7  12
ATOM     12  S   UNL d   1      51.993  33.943  52.952  0.00  0.00    -0.059 SA
BRANCH  12  13
ATOM     13  C   UNL d   1      52.089  33.426  53.582  0.00  0.00     0.037 C 
BRANCH  13  14
ATOM     14  C   UNL d   1      52.845  33.149  53.774  0.00  0.00     0.006 A 
ATOM     15  C   UNL d   1      53.275  33.513  54.378  0.00  0.00     0.001 A 
ATOM     16  C   UNL d   1      54.023  33.246  54.574  0.00  0.00     0.000 A 
ATOM     17  C   UNL d   1      54.448  33.606  55.172  0.00  0.00     0.000 C 
ATOM     18  C   UNL d   1      54.354  32.607  54.167  0.00  0.00     0.000 A 
ATOM     19  C   UNL d   1      53.928  32.240  53.563  0.00  0.00     0.000 A 
ATOM     20  C   UNL d   1      53.175  32.510  53.366  0.00  0.00     0.001 A 
ENDBRANCH  13  14
ENDBRANCH  12  13
ENDBRANCH   7  12
TORSDOF 3
ENDMDL
MODEL 5
REMARK VINA RESULT:      -7.7      1.973      4.680
REMARK  3 active torsions:
REMARK  status: ('A' for Active; 'I' for Inactive)
REMARK    1  A    between atoms: S_11  and  C_7 
REMARK    2  A    between atoms: C_12  and  S_11 
REMARK    3  A    between atoms: C_14  and  C_12 
ROOT
ATOM      1  N   UNL d   1      53.159  30.325  54.035  0.00  0.00    -0.167 N 
ATOM      2  C   UNL d   1      52.910  30.098  53.288  0.00  0.00     0.220 A 
ATOM      3  C   UNL d   1      53.337  29.760  54.615  0.00  0.00     0.301 A 
ATOM      4  S   UNL d   1      52.780  30.785  52.847  0.00  0.00    -0.019 SA
ATOM      5  N   UNL d   1      53.187  31.143  54.065  0.00  0.00    -0.147 NA
ATOM      6  N   UNL d   1      52.832  29.299  53.104  0.00  0.00    -0.121 NA
ATOM      7  C   UNL d   1      52.952  31.427  53.329  0.00  0.00     0.163 A 
ATOM      8  N   UNL d   1      53.005  28.728  53.669  0.00  0.00    -0.141 NA
ATOM      9  C   UNL d   1      53.256  28.957  54.420  0.00  0.00     0.161 A 
ATOM     10  O   UNL d   1      53.585  29.987  55.359  0.00  0.00    -0.263 OA
ATOM     11  C   UNL d   1      53.430  28.388  54.989  0.00  0.00     0.028 C 
ENDROOT
BRANCH   7  12
ATOM     12  S   UNL d   1      52.897  32.221  53.111  0.00  0.00    -0.059 SA
BRANCH  12  13
ATOM     13  C   UNL d   1      52.333  32.708  53.453  0.00  0.00     0.037 C 
BRANCH  13  14
ATOM     14  C   UNL d   1      52.354  33.523  53.310  0.00  0.00     0.006 A 
ATOM     15  C   UNL d   1      52.703  34.029  53.860  0.00  0.00     0.001 A 
ATOM     16  C   UNL d   1      52.728  34.837  53.726  0.00  0.00     0.000 A 
ATOM     17  C   UNL d   1      53.075  35.337  54.271  0.00  0.00     0.000 C 
ATOM     18  C   UNL d   1      52.402  35.150  53.034  0.00  0.00     0.000 A 
ATOM     19  C   UNL d   1      52.051  34.649  52.481  0.00  0.00     0.000 A 
ATOM     20  C   UNL d   1      52.026  33.836  52.617  0.00  0.00     0.001 A 
ENDBRANCH  13  14
ENDBRANCH  12  13
ENDBRANCH   7  12
TORSDOF 3
ENDMDL
MODEL 6
REMARK VINA RESULT:      -7.5      3.477      4.646
REMARK  3 active torsions:
REMARK  status: ('A' for Active; 'I' for Inactive)
REMARK    1  A    between atoms: S_11  and  C_7 
REMARK    2  A    between atoms: C_12  and  S_11 
REMARK    3  A    between atoms: C_14  and  C_12 
ROOT
ATOM      1  N   UNL d   1      48.708  35.161  52.329  0.00  0.00    -0.167 N 
ATOM      2  C   UNL d   1      48.872  34.676  51.688  0.00  0.00     0.220 A 
ATOM      3  C   UNL d   1      48.018  35.620  52.349  0.00  0.00     0.301 A 
ATOM      4  S   UNL d   1      49.592  34.298  51.838  0.00  0.00    -0.019 SA
ATOM      5  N   UNL d   1      49.314  35.090  52.874  0.00  0.00    -0.147 NA
ATOM      6  N   UNL d   1      48.349  34.639  51.053  0.00  0.00    -0.121 NA
ATOM      7  C   UNL d   1      49.862  34.556  52.569  0.00  0.00     0.163 A 
ATOM      8  N   UNL d   1      47.661  35.089  51.060  0.00  0.00    -0.141 NA
ATOM      9  C   UNL d   1      47.496  35.576  51.704  0.00  0.00     0.161 A 
ATOM     10  O   UNL d   1      47.854  36.102  52.987  0.00  0.00    -0.263 OA
ATOM     11  C   UNL d   1      46.808  36.028  51.715  0.00  0.00     0.028 C 
ENDROOT
BRANCH   7  12
ATOM     12  S   UNL d   1      50.562  34.318  52.935  0.00  0.00    -0.059 SA
BRANCH  12  13
ATOM     13  C   UNL d   1      51.250  34.227  52.496  0.00  0.00     0.037 C 
BRANCH  13  14
ATOM     14  C   UNL d   1      51.951  34.004  52.875  0.00  0.00     0.006 A 
ATOM     15  C   UNL d   1      52.213  33.223  52.829  0.00  0.00     0.001 A 
ATOM     16  C   UNL d   1      52.906  32.994  53.201  0.00  0.00     0.000 A 
ATOM     17  C   UNL d   1      53.164  32.220  53.155  0.00  0.00     0.000 C 
ATOM     18  C   UNL d   1      53.348  33.548  53.626  0.00  0.00     0.000 A 
ATOM     19  C   UNL d   1      53.091  34.330  53.675  0.00  0.00     0.000 A 
ATOM     20  C   UNL d   1      52.393  34.559  53.300  0.00  0.00     0.001 A 
ENDBRANCH  13  14
ENDBRANCH  12  13
ENDBRANCH   7  12
TORSDOF 3
ENDMDL
MODEL 7
REMARK VINA RESULT:      -6.6      1.457      1.664
REMARK  3 active torsions:
REMARK  status: ('A' for Active; 'I' for Inactive)
REMARK    1  A    between atoms: S_11  and  C_7 
REMARK    2  A    between atoms: C_12  and  S_11 
REMARK    3  A    between atoms: C_14  and  C_12 
ROOT
ATOM      1  N   UNL d   1      51.675  33.309  53.098  0.00  0.00    -0.167 N 
ATOM      2  C   UNL d   1      52.385  33.704  53.203  0.00  0.00     0.220 A 
ATOM      3  C   UNL d   1      50.958  33.725  53.062  0.00  0.00     0.301 A 
ATOM      4  S   UNL d   1      52.987  33.138  53.214  0.00  0.00    -0.019 SA
ATOM      5  N   UNL d   1      51.826  32.506  53.043  0.00  0.00    -0.147 NA
ATOM      6  N   UNL d   1      52.395  34.524  53.275  0.00  0.00    -0.121 NA
ATOM      7  C   UNL d   1      52.639  32.401  53.115  0.00  0.00     0.163 A 
ATOM      8  N   UNL d   1      51.692  34.949  53.242  0.00  0.00    -0.141 NA
ATOM      9  C   UNL d   1      50.978  34.551  53.136  0.00  0.00     0.161 A 
ATOM     10  O   UNL d   1      50.250  33.331  52.957  0.00  0.00    -0.263 OA
ATOM     11  C   UNL d   1      50.271  34.973  53.102  0.00  0.00     0.028 C 
ENDROOT
BRANCH   7  12
ATOM     12  S   UNL d   1      53.038  31.679  53.092  0.00  0.00    -0.059 SA
BRANCH  12  13
ATOM     13  C   UNL d   1      53.225  31.285  53.788  0.00  0.00     0.037 C 
BRANCH  13  14
ATOM     14  C   UNL d   1      53.254  30.458  53.795  0.00  0.00     0.006 A 
ATOM     15  C   UNL d   1      53.306  30.054  54.512  0.00  0.00     0.001 A 
ATOM     16  C   UNL d   1      53.335  29.236  54.529  0.00  0.00     0.000 A 
ATOM     17  C   UNL d   1      53.387  28.837  55.240  0.00  0.00     0.000 C 
ATOM     18  C   UNL d   1      53.313  28.808  53.821  0.00  0.00     0.000 A 
ATOM     19  C   UNL d   1      53.261  29.207  53.101  0.00  0.00     0.000 A 
ATOM     20  C   UNL d   1      53.231  30.031  53.086  0.00  0.00     0.001 A 
ENDBRANCH  13  14
ENDBRANCH  12  13
ENDBRANCH   7  12
TORSDOF 3
ENDMDL
MODEL 8
REMARK VINA RESULT:      -6.5     10.645     11.380
REMARK  3 active torsions:
REMARK  status: ('A' for Active; 'I' for Inactive)
REMARK    1  A    between atoms: S_11  and  C_7 
REMARK    2  A    between atoms: C_12  and  S_11 
REMARK    3  A    between atoms: C_14  and  C_12 
ROOT
ATOM      1  N   UNL d   1      44.960  28.366  58.452  0.00  0.00    -0.167 N 
ATOM      2  C   UNL d   1      44.902  29.055  58.010  0.00  0.00     0.220 A 
ATOM      3  C   UNL d   1      45.168  27.648  58.094  0.00  0.00     0.301 A 
ATOM      4  S   UNL d   1      44.688  29.665  58.526  0.00  0.00    -0.019 SA
ATOM      5  N   UNL d   1      44.786  28.539  59.233  0.00  0.00    -0.147 NA
ATOM      6  N   UNL d   1      45.050  29.040  57.201  0.00  0.00    -0.121 NA
ATOM      7  C   UNL d   1      44.618  29.343  59.278  0.00  0.00     0.163 A 
ATOM      8  N   UNL d   1      45.256  28.335  56.832  0.00  0.00    -0.141 NA
ATOM      9  C   UNL d   1      45.315  27.642  57.277  0.00  0.00     0.161 A 
ATOM     10  O   UNL d   1      45.226  26.962  58.534  0.00  0.00    -0.263 OA
ATOM     11  C   UNL d   1      45.521  26.934  56.912  0.00  0.00     0.028 C 
ENDROOT
BRANCH   7  12
ATOM     12  S   UNL d   1      44.413  29.758  59.961  0.00  0.00    -0.059 SA
BRANCH  12  13
ATOM     13  C   UNL d   1      44.973  29.903  60.543  0.00  0.00     0.037 C 
BRANCH  13  14
ATOM     14  C   UNL d   1      44.753  30.305  61.233  0.00  0.00     0.006 A 
ATOM     15  C   UNL d   1      44.692  29.895  61.946  0.00  0.00     0.001 A 
ATOM     16  C   UNL d   1      44.475  30.285  62.633  0.00  0.00     0.000 A 
ATOM     17  C   UNL d   1      44.415  29.878  63.339  0.00  0.00     0.000 C 
ATOM     18  C   UNL d   1      44.315  31.096  62.614  0.00  0.00     0.000 A 
ATOM     19  C   UNL d   1      44.375  31.510  61.903  0.00  0.00     0.000 A 
ATOM     20  C   UNL d   1      44.593  31.117  61.213  0.00  0.00     0.001 A 
ENDBRANCH  13  14
ENDBRANCH  12  13
ENDBRANCH   7  12
TORSDOF 3
ENDMDL
MODEL 9
REMARK VINA RESULT:      -6.4     10.571     10.840
REMARK  3 active torsions:
REMARK  status: ('A' for Active; 'I' for Inactive)
REMARK    1  A    between atoms: S_11  and  C_7 
REMARK    2  A    between atoms: C_12  and  S_11 
REMARK    3  A    between atoms: C_14  and  C_12 
ROOT
ATOM      1  N   UNL d   1      44.397  30.362  61.144  0.00  0.00    -0.167 N 
ATOM      2  C   UNL d   1      44.370  31.101  60.791  0.00  0.00     0.220 A 
ATOM      3  C   UNL d   1      44.387  30.285  61.970  0.00  0.00     0.301 A 
ATOM      4  S   UNL d   1      44.387  30.988  59.972  0.00  0.00    -0.019 SA
ATOM      5  N   UNL d   1      44.431  29.792  60.558  0.00  0.00    -0.147 NA
ATOM      6  N   UNL d   1      44.332  31.780  61.255  0.00  0.00    -0.121 NA
ATOM      7  C   UNL d   1      44.425  30.180  59.832  0.00  0.00     0.163 A 
ATOM      8  N   UNL d   1      44.322  31.718  62.075  0.00  0.00    -0.141 NA
ATOM      9  C   UNL d   1      44.350  30.974  62.430  0.00  0.00     0.161 A 
ATOM     10  O   UNL d   1      44.414  29.548  62.322  0.00  0.00    -0.263 OA
ATOM     11  C   UNL d   1      44.340  30.908  63.250  0.00  0.00     0.028 C 
ENDROOT
BRANCH   7  12
ATOM     12  S   UNL d   1      44.453  29.821  59.090  0.00  0.00    -0.059 SA
BRANCH  12  13
ATOM     13  C   UNL d   1      45.137  29.446  58.834  0.00  0.00     0.037 C 
BRANCH  13  14
ATOM     14  C   UNL d   1      45.128  29.014  58.129  0.00  0.00     0.006 A 
ATOM     15  C   UNL d   1      45.318  28.211  58.135  0.00  0.00     0.001 A 
ATOM     16  C   UNL d   1      45.312  27.776  57.441  0.00  0.00     0.000 A 
ATOM     17  C   UNL d   1      45.501  26.981  57.449  0.00  0.00     0.000 C 
ATOM     18  C   UNL d   1      45.114  28.142  56.727  0.00  0.00     0.000 A 
ATOM     19  C   UNL d   1      44.923  28.945  56.715  0.00  0.00     0.000 A 
ATOM     20  C   UNL d   1      44.929  29.381  57.414  0.00  0.00     0.001 A 
ENDBRANCH  13  14
ENDBRANCH  12  13
ENDBRANCH   7  12
TORSDOF 3
ENDMDL
