MODEL 1
REMARK VINA RESULT:      -9.2      0.000      0.000
REMARK  2 active torsions:
REMARK  status: ('A' for Active; 'I' for Inactive)
REMARK    1  A    between atoms: C_6  and  C_1 
REMARK    2  A    between atoms: C_7  and  C_5 
ROOT
ATOM      1  C   UNL d   1      52.959  30.479  53.174  0.00  0.00     0.169 A 
ATOM      2  C   UNL d   1      53.480  30.471  53.721  0.00  0.00     0.048 A 
ATOM      3  N   UNL d   1      53.038  31.789  53.117  0.00  0.00    -0.148 NA
ATOM      4  N   UNL d   1      52.734  31.136  52.868  0.00  0.00    -0.142 NA
ATOM      5  C   UNL d   1      53.559  31.782  53.664  0.00  0.00     0.105 A 
ENDROOT
BRANCH   5   6
ATOM      6  C   UNL d   1      53.996  32.354  54.062  0.00  0.00     0.019 A 
ATOM      7  C   UNL d   1      53.850  32.513  54.863  0.00  0.00     0.002 A 
ATOM      8  C   UNL d   1      54.291  33.090  55.263  0.00  0.00     0.000 A 
ATOM      9  C   UNL d   1      54.881  33.511  54.863  0.00  0.00     0.000 A 
ATOM     10  C   UNL d   1      55.029  33.350  54.054  0.00  0.00     0.000 A 
ATOM     11  C   UNL d   1      55.319  34.080  55.253  0.00  0.00     0.000 C 
ATOM     12  C   UNL d   1      54.584  32.773  53.662  0.00  0.00     0.002 A 
ENDBRANCH   5   6
BRANCH   1  13
ATOM     13  C   UNL d   1      52.655  29.825  52.925  0.00  0.00     0.231 C 
ATOM     14  O   UNL d   1      52.208  29.417  53.377  0.00  0.00    -0.643 OA
ATOM     15  O   UNL d   1      52.805  29.589  52.219  0.00  0.00    -0.643 OA
ENDBRANCH   1  13
TORSDOF 2
ENDMDL
MODEL 2
REMARK VINA RESULT:      -8.9      2.349      3.859
REMARK  2 active torsions:
REMARK  status: ('A' for Active; 'I' for Inactive)
REMARK    1  A    between atoms: C_6  and  C_1 
REMARK    2  A    between atoms: C_7  and  C_5 
ROOT
ATOM      1  C   UNL d   1      54.512  33.380  54.711  0.00  0.00     0.169 A 
ATOM      2  C   UNL d   1      53.982  32.925  54.998  0.00  0.00     0.048 A 
ATOM      3  N   UNL d   1      54.550  32.646  53.621  0.00  0.00    -0.148 NA
ATOM      4  N   UNL d   1      54.800  33.245  54.022  0.00  0.00    -0.142 NA
ATOM      5  C   UNL d   1      54.020  32.192  53.908  0.00  0.00     0.105 A 
ENDROOT
BRANCH   5   6
ATOM      6  C   UNL d   1      53.627  31.517  53.650  0.00  0.00     0.019 A 
ATOM      7  C   UNL d   1      52.986  31.579  53.126  0.00  0.00     0.002 A 
ATOM      8  C   UNL d   1      52.590  30.899  52.866  0.00  0.00     0.000 A 
ATOM      9  C   UNL d   1      52.835  30.152  53.128  0.00  0.00     0.000 A 
ATOM     10  C   UNL d   1      53.482  30.090  53.657  0.00  0.00     0.000 A 
ATOM     11  C   UNL d   1      52.448  29.478  52.874  0.00  0.00     0.000 C 
ATOM     12  C   UNL d   1      53.871  30.774  53.912  0.00  0.00     0.002 A 
ENDBRANCH   5   6
BRANCH   1  13
ATOM     13  C   UNL d   1      54.762  33.979  55.112  0.00  0.00     0.231 C 
ATOM     14  O   UNL d   1      55.470  33.990  55.378  0.00  0.00    -0.643 OA
ATOM     15  O   UNL d   1      54.294  34.563  55.242  0.00  0.00    -0.643 OA
ENDBRANCH   1  13
TORSDOF 2
ENDMDL
MODEL 3
REMARK VINA RESULT:      -8.6      2.906      3.997
REMARK  2 active torsions:
REMARK  status: ('A' for Active; 'I' for Inactive)
REMARK    1  A    between atoms: C_6  and  C_1 
REMARK    2  A    between atoms: C_7  and  C_5 
ROOT
ATOM      1  C   UNL d   1      53.002  34.848  54.128  0.00  0.00     0.169 A 
ATOM      2  C   UNL d   1      53.278  34.285  54.548  0.00  0.00     0.048 A 
ATOM      3  N   UNL d   1      52.706  33.992  53.176  0.00  0.00    -0.148 NA
ATOM      4  N   UNL d   1      52.714  34.708  53.439  0.00  0.00    -0.142 NA
ATOM      5  C   UNL d   1      52.982  33.429  53.596  0.00  0.00     0.105 A 
ENDROOT
BRANCH   5   6
ATOM      6  C   UNL d   1      53.066  32.616  53.500  0.00  0.00     0.019 A 
ATOM      7  C   UNL d   1      53.675  32.208  53.889  0.00  0.00     0.002 A 
ATOM      8  C   UNL d   1      53.759  31.389  53.793  0.00  0.00     0.000 A 
ATOM      9  C   UNL d   1      53.232  30.974  53.306  0.00  0.00     0.000 A 
ATOM     10  C   UNL d   1      52.617  31.386  52.914  0.00  0.00     0.000 A 
ATOM     11  C   UNL d   1      53.310  30.166  53.208  0.00  0.00     0.000 C 
ATOM     12  C   UNL d   1      52.541  32.203  53.016  0.00  0.00     0.002 A 
ENDBRANCH   5   6
BRANCH   1  13
ATOM     13  C   UNL d   1      53.009  35.564  54.392  0.00  0.00     0.231 C 
ATOM     14  O   UNL d   1      52.372  35.884  54.643  0.00  0.00    -0.643 OA
ATOM     15  O   UNL d   1      53.663  35.951  54.402  0.00  0.00    -0.643 OA
ENDBRANCH   1  13
TORSDOF 2
ENDMDL
MODEL 4
REMARK VINA RESULT:      -8.3      3.149      4.045
REMARK  2 active torsions:
REMARK  status: ('A' for Active; 'I' for Inactive)
REMARK    1  A    between atoms: C_6  and  C_1 
REMARK    2  A    between atoms: C_7  and  C_5 
ROOT
ATOM      1  C   UNL d   1      54.118  33.555  54.700  0.00  0.00     0.169 A 
ATOM      2  C   UNL d   1      53.567  34.062  54.795  0.00  0.00     0.048 A 
ATOM      3  N   UNL d   1      53.481  33.058  53.663  0.00  0.00    -0.148 NA
ATOM      4  N   UNL d   1      54.081  33.050  54.134  0.00  0.00    -0.142 NA
ATOM      5  C   UNL d   1      52.930  33.565  53.758  0.00  0.00     0.105 A 
ENDROOT
BRANCH   5   6
ATOM      6  C   UNL d   1      52.223  33.738  53.375  0.00  0.00     0.019 A 
ATOM      7  C   UNL d   1      52.206  34.286  52.752  0.00  0.00     0.002 A 
ATOM      8  C   UNL d   1      51.494  34.460  52.366  0.00  0.00     0.000 A 
ATOM      9  C   UNL d   1      50.793  34.085  52.602  0.00  0.00     0.000 A 
ATOM     10  C   UNL d   1      50.811  33.532  53.231  0.00  0.00     0.000 A 
ATOM     11  C   UNL d   1      50.088  34.253  52.224  0.00  0.00     0.000 C 
ATOM     12  C   UNL d   1      51.526  33.365  53.611  0.00  0.00     0.002 A 
ENDBRANCH   5   6
BRANCH   1  13
ATOM     13  C   UNL d   1      54.718  33.547  55.172  0.00  0.00     0.231 C 
ATOM     14  O   UNL d   1      55.212  34.120  55.169  0.00  0.00    -0.643 OA
ATOM     15  O   UNL d   1      54.814  32.960  55.643  0.00  0.00    -0.643 OA
ENDBRANCH   1  13
TORSDOF 2
ENDMDL
MODEL 5
REMARK VINA RESULT:      -8.3      3.326      4.124
REMARK  2 active torsions:
REMARK  status: ('A' for Active; 'I' for Inactive)
REMARK    1  A    between atoms: C_6  and  C_1 
REMARK    2  A    between atoms: C_7  and  C_5 
ROOT
ATOM      1  C   UNL d   1      54.096  33.773  54.841  0.00  0.00     0.169 A 
ATOM      2  C   UNL d   1      53.818  33.278  54.344  0.00  0.00     0.048 A 
ATOM      3  N   UNL d   1      53.136  34.617  54.538  0.00  0.00    -0.148 NA
ATOM      4  N   UNL d   1      53.759  34.446  54.943  0.00  0.00    -0.142 NA
ATOM      5  C   UNL d   1      52.857  34.122  54.041  0.00  0.00     0.105 A 
ENDROOT
BRANCH   5   6
ATOM      6  C   UNL d   1      52.218  34.112  53.522  0.00  0.00     0.019 A 
ATOM      7  C   UNL d   1      51.516  33.721  53.729  0.00  0.00     0.002 A 
ATOM      8  C   UNL d   1      50.873  33.711  53.207  0.00  0.00     0.000 A 
ATOM      9  C   UNL d   1      50.929  34.092  52.474  0.00  0.00     0.000 A 
ATOM     10  C   UNL d   1      51.638  34.486  52.266  0.00  0.00     0.000 A 
ATOM     11  C   UNL d   1      50.297  34.084  51.955  0.00  0.00     0.000 C 
ATOM     12  C   UNL d   1      52.275  34.492  52.792  0.00  0.00     0.002 A 
ENDBRANCH   5   6
BRANCH   1  13
ATOM     13  C   UNL d   1      54.720  33.601  55.247  0.00  0.00     0.231 C 
ATOM     14  O   UNL d   1      55.314  34.069  55.247  0.00  0.00    -0.643 OA
ATOM     15  O   UNL d   1      54.738  32.957  55.648  0.00  0.00    -0.643 OA
ENDBRANCH   1  13
TORSDOF 2
ENDMDL
MODEL 6
REMARK VINA RESULT:      -8.2      2.835      3.142
REMARK  2 active torsions:
REMARK  status: ('A' for Active; 'I' for Inactive)
REMARK    1  A    between atoms: C_6  and  C_1 
REMARK    2  A    between atoms: C_7  and  C_5 
ROOT
ATOM      1  C   UNL d   1      51.158  34.062  52.825  0.00  0.00     0.169 A 
ATOM      2  C   UNL d   1      51.765  34.510  52.852  0.00  0.00     0.048 A 
ATOM      3  N   UNL d   1      51.735  33.228  53.660  0.00  0.00    -0.148 NA
ATOM      4  N   UNL d   1      51.137  33.419  53.228  0.00  0.00    -0.142 NA
ATOM      5  C   UNL d   1      52.343  33.675  53.687  0.00  0.00     0.105 A 
ENDROOT
BRANCH   5   6
ATOM      6  C   UNL d   1      53.068  33.653  54.076  0.00  0.00     0.019 A 
ATOM      7  C   UNL d   1      53.611  33.047  53.917  0.00  0.00     0.002 A 
ATOM      8  C   UNL d   1      54.341  33.025  54.309  0.00  0.00     0.000 A 
ATOM      9  C   UNL d   1      54.531  33.611  54.863  0.00  0.00     0.000 A 
ATOM     10  C   UNL d   1      53.981  34.222  55.023  0.00  0.00     0.000 A 
ATOM     11  C   UNL d   1      55.249  33.594  55.253  0.00  0.00     0.000 C 
ATOM     12  C   UNL d   1      53.255  34.237  54.628  0.00  0.00     0.002 A 
ENDBRANCH   5   6
BRANCH   1  13
ATOM     13  C   UNL d   1      50.559  34.254  52.392  0.00  0.00     0.231 C 
ATOM     14  O   UNL d   1      49.918  34.493  52.714  0.00  0.00    -0.643 OA
ATOM     15  O   UNL d   1      50.613  34.202  51.637  0.00  0.00    -0.643 OA
ENDBRANCH   1  13
TORSDOF 2
ENDMDL
MODEL 7
REMARK VINA RESULT:      -8.0      2.589      3.711
REMARK  2 active torsions:
REMARK  status: ('A' for Active; 'I' for Inactive)
REMARK    1  A    between atoms: C_6  and  C_1 
REMARK    2  A    between atoms: C_7  and  C_5 
ROOT
ATOM      1  C   UNL d   1      52.523  34.080  53.343  0.00  0.00     0.169 A 
ATOM      2  C   UNL d   1      52.833  33.672  53.897  0.00  0.00     0.048 A 
ATOM      3  N   UNL d   1      52.415  32.998  52.605  0.00  0.00    -0.148 NA
ATOM      4  N   UNL d   1      52.311  33.749  52.693  0.00  0.00    -0.142 NA
ATOM      5  C   UNL d   1      52.725  32.590  53.159  0.00  0.00     0.105 A 
ENDROOT
BRANCH   5   6
ATOM      6  C   UNL d   1      52.917  31.796  53.262  0.00  0.00     0.019 A 
ATOM      7  C   UNL d   1      52.452  31.203  52.916  0.00  0.00     0.002 A 
ATOM      8  C   UNL d   1      52.645  30.404  53.019  0.00  0.00     0.000 A 
ATOM      9  C   UNL d   1      53.308  30.194  53.471  0.00  0.00     0.000 A 
ATOM     10  C   UNL d   1      53.778  30.794  53.820  0.00  0.00     0.000 A 
ATOM     11  C   UNL d   1      53.504  29.408  53.576  0.00  0.00     0.000 C 
ATOM     12  C   UNL d   1      53.577  31.589  53.711  0.00  0.00     0.002 A 
ENDBRANCH   5   6
BRANCH   1  13
ATOM     13  C   UNL d   1      52.419  34.832  53.431  0.00  0.00     0.231 C 
ATOM     14  O   UNL d   1      53.006  35.280  53.593  0.00  0.00    -0.643 OA
ATOM     15  O   UNL d   1      51.722  35.123  53.356  0.00  0.00    -0.643 OA
ENDBRANCH   1  13
TORSDOF 2
ENDMDL
MODEL 8
REMARK VINA RESULT:      -7.4      2.307      2.916
REMARK  2 active torsions:
REMARK  status: ('A' for Active; 'I' for Inactive)
REMARK    1  A    between atoms: C_6  and  C_1 
REMARK    2  A    between atoms: C_7  and  C_5 
ROOT
ATOM      1  C   UNL d   1      53.251  30.972  53.401  0.00  0.00     0.169 A 
ATOM      2  C   UNL d   1      52.555  31.001  53.110  0.00  0.00     0.048 A 
ATOM      3  N   UNL d   1      53.247  32.278  53.540  0.00  0.00    -0.148 NA
ATOM      4  N   UNL d   1      53.603  31.608  53.619  0.00  0.00    -0.142 NA
ATOM      5  C   UNL d   1      52.551  32.308  53.249  0.00  0.00     0.105 A 
ENDROOT
BRANCH   5   6
ATOM      6  C   UNL d   1      52.012  32.907  53.085  0.00  0.00     0.019 A 
ATOM      7  C   UNL d   1      52.236  33.559  52.623  0.00  0.00     0.002 A 
ATOM      8  C   UNL d   1      51.692  34.162  52.458  0.00  0.00     0.000 A 
ATOM      9  C   UNL d   1      50.920  34.116  52.755  0.00  0.00     0.000 A 
ATOM     10  C   UNL d   1      50.695  33.458  53.222  0.00  0.00     0.000 A 
ATOM     11  C   UNL d   1      50.380  34.708  52.595  0.00  0.00     0.000 C 
ATOM     12  C   UNL d   1      51.243  32.860  53.381  0.00  0.00     0.002 A 
ENDBRANCH   5   6
BRANCH   1  13
ATOM     13  C   UNL d   1      53.606  30.301  53.479  0.00  0.00     0.231 C 
ATOM     14  O   UNL d   1      54.276  30.185  53.149  0.00  0.00    -0.643 OA
ATOM     15  O   UNL d   1      53.281  29.752  53.891  0.00  0.00    -0.643 OA
ENDBRANCH   1  13
TORSDOF 2
ENDMDL
MODEL 9
REMARK VINA RESULT:      -6.9      3.740      4.553
REMARK  2 active torsions:
REMARK  status: ('A' for Active; 'I' for Inactive)
REMARK    1  A    between atoms: C_6  and  C_1 
REMARK    2  A    between atoms: C_7  and  C_5 
ROOT
ATOM      1  C   UNL d   1      53.270  34.171  54.388  0.00  0.00     0.169 A 
ATOM      2  C   UNL d   1      52.986  34.761  54.012  0.00  0.00     0.048 A 
ATOM      3  N   UNL d   1      52.341  33.396  53.874  0.00  0.00    -0.148 NA
ATOM      4  N   UNL d   1      52.952  33.485  54.323  0.00  0.00    -0.142 NA
ATOM      5  C   UNL d   1      52.057  33.986  53.498  0.00  0.00     0.105 A 
ENDROOT
BRANCH   5   6
ATOM      6  C   UNL d   1      51.428  34.100  52.981  0.00  0.00     0.019 A 
ATOM      7  C   UNL d   1      50.656  34.193  53.272  0.00  0.00     0.002 A 
ATOM      8  C   UNL d   1      50.022  34.308  52.751  0.00  0.00     0.000 A 
ATOM      9  C   UNL d   1      50.158  34.331  51.933  0.00  0.00     0.000 A 
ATOM     10  C   UNL d   1      50.937  34.237  51.640  0.00  0.00     0.000 A 
ATOM     11  C   UNL d   1      49.537  34.444  51.415  0.00  0.00     0.000 C 
ATOM     12  C   UNL d   1      51.564  34.123  52.167  0.00  0.00     0.002 A 
ENDBRANCH   5   6
BRANCH   1  13
ATOM     13  C   UNL d   1      53.881  34.260  54.837  0.00  0.00     0.231 C 
ATOM     14  O   UNL d   1      54.533  33.920  54.664  0.00  0.00    -0.643 OA
ATOM     15  O   UNL d   1      53.827  34.694  55.458  0.00  0.00    -0.643 OA
ENDBRANCH   1  13
TORSDOF 2
ENDMDL
