MODEL 1
REMARK VINA RESULT:       8.1      0.000      0.000
REMARK  5 active torsions:
REMARK  status: ('A' for Active; 'I' for Inactive)
REMARK    1  A    between atoms: C_2  and  C_1 
REMARK    2  A    between atoms: O_6  and  C_1 
REMARK    3  A    between atoms: C_11  and  O_6 
REMARK    4  A    between atoms: C_12  and  C_11 
REMARK    5  A    between atoms: C_13  and  C_12 
ROOT
ATOM      1  C   UNL d   1      14.133  12.398  -1.601  0.00  0.00     0.064 A 
ATOM      2  C   UNL d   1      14.812  12.006  -1.338  0.00  0.00     0.009 A 
ATOM      3  C   UNL d   1      14.003  13.181  -1.372  0.00  0.00     0.009 A 
ATOM      4  C   UNL d   1      15.230  13.167  -0.623  0.00  0.00     0.196 A 
ATOM      5  C   UNL d   1      15.360  12.384  -0.852  0.00  0.00     0.042 A 
ATOM      6  C   UNL d   1      14.553  13.556  -0.885  0.00  0.00     0.042 A 
ATOM      7  O   UNL d   1      15.769  13.573  -0.130  0.00  0.00    -0.287 OA
ENDROOT
BRANCH   1   8
ATOM      8  C   UNL d   1      13.589  12.008  -2.090  0.00  0.00     0.300 C 
ATOM      9  O   UNL d   1      12.852  11.780  -1.797  0.00  0.00    -0.259 OA
BRANCH   8  10
ATOM     10  O   UNL d   1      13.797  11.851  -2.872  0.00  0.00    -0.271 OA
BRANCH  10  11
ATOM     11  C   UNL d   1      13.198  11.779  -3.437  0.00  0.00     0.126 C 
BRANCH  11  12
ATOM     12  C   UNL d   1      13.255  12.213  -4.138  0.00  0.00     0.027 C 
BRANCH  12  13
ATOM     13  C   UNL d   1      13.002  11.882  -4.843  0.00  0.00     0.002 C 
ATOM     14  C   UNL d   1      13.500  11.880  -5.501  0.00  0.00     0.000 C 
ENDBRANCH  12  13
ENDBRANCH  11  12
ENDBRANCH  10  11
ENDBRANCH   8  10
ENDBRANCH   1   8
TORSDOF 5
ENDMDL
MODEL 2
REMARK VINA RESULT:       9.1      1.095      3.682
REMARK  5 active torsions:
REMARK  status: ('A' for Active; 'I' for Inactive)
REMARK    1  A    between atoms: C_2  and  C_1 
REMARK    2  A    between atoms: O_6  and  C_1 
REMARK    3  A    between atoms: C_11  and  O_6 
REMARK    4  A    between atoms: C_12  and  C_11 
REMARK    5  A    between atoms: C_13  and  C_12 
ROOT
ATOM      1  C   UNL d   1      13.465  12.238  -3.330  0.00  0.00     0.064 A 
ATOM      2  C   UNL d   1      13.764  12.989  -3.501  0.00  0.00     0.009 A 
ATOM      3  C   UNL d   1      13.140  11.783  -3.938  0.00  0.00     0.009 A 
ATOM      4  C   UNL d   1      13.418  12.836  -4.876  0.00  0.00     0.196 A 
ATOM      5  C   UNL d   1      13.743  13.292  -4.268  0.00  0.00     0.042 A 
ATOM      6  C   UNL d   1      13.121  12.088  -4.704  0.00  0.00     0.042 A 
ATOM      7  O   UNL d   1      13.384  13.117  -5.662  0.00  0.00    -0.287 OA
ENDROOT
BRANCH   1   8
ATOM      8  C   UNL d   1      13.492  11.945  -2.555  0.00  0.00     0.300 C 
ATOM      9  O   UNL d   1      12.794  11.779  -2.146  0.00  0.00    -0.259 OA
BRANCH   8  10
ATOM     10  O   UNL d   1      14.226  11.824  -2.200  0.00  0.00    -0.271 OA
BRANCH  10  11
ATOM     11  C   UNL d   1      14.268  11.784  -1.375  0.00  0.00     0.126 C 
BRANCH  11  12
ATOM     12  C   UNL d   1      14.913  12.130  -0.991  0.00  0.00     0.027 C 
BRANCH  12  13
ATOM     13  C   UNL d   1      14.817  12.447  -0.241  0.00  0.00     0.002 C 
ATOM     14  C   UNL d   1      15.242  13.117  -0.019  0.00  0.00     0.000 C 
ENDBRANCH  12  13
ENDBRANCH  11  12
ENDBRANCH  10  11
ENDBRANCH   8  10
ENDBRANCH   1   8
TORSDOF 5
ENDMDL
