MODEL 1
REMARK VINA RESULT:      23.0      0.000      0.000
REMARK  6 active torsions:
REMARK  status: ('A' for Active; 'I' for Inactive)
REMARK    1  A    between atoms: C_11  and  S_1 
REMARK    2  A    between atoms: C_2  and  C_5 
REMARK       I    between atoms: N_3  and  C_2 
REMARK    3  A    between atoms: C_12  and  N_3 
REMARK    4  A    between atoms: N_4  and  C_5 
REMARK       I    between atoms: C_6  and  N_4 
REMARK    5  A    between atoms: C_5  and  C_7 
REMARK    6  A    between atoms: C_7  and  C_11 
ROOT
ATOM      1  C   UNL d   1      13.384  12.943  -3.754  0.00  0.00     0.143 C 
ENDROOT
BRANCH   1   2
ATOM      2  C   UNL d   1      13.576  12.563  -3.043  0.00  0.00     0.297 C 
ATOM      3  N   UNL d   1      14.061  12.937  -2.493  0.00  0.00    -0.207 NA
ATOM      4  O   UNL d   1      13.281  11.806  -2.884  0.00  0.00    -0.264 OA
BRANCH   3   5
ATOM      5  C   UNL d   1      14.251  12.545  -1.777  0.00  0.00     0.085 A 
ATOM      6  C   UNL d   1      13.623  12.366  -1.266  0.00  0.00     0.019 A 
ATOM      7  C   UNL d   1      13.808  11.974  -0.546  0.00  0.00     0.002 A 
ATOM      8  C   UNL d   1      13.182  11.785  -0.015  0.00  0.00     0.000 C 
ATOM      9  C   UNL d   1      14.573  11.780  -0.363  0.00  0.00     0.000 A 
ATOM     10  C   UNL d   1      15.178  11.973  -0.893  0.00  0.00     0.002 A 
ATOM     11  C   UNL d   1      15.008  12.358  -1.603  0.00  0.00     0.019 A 
ENDBRANCH   3   5
ENDBRANCH   1   2
BRANCH   1  12
ATOM     12  N   UNL d   1      12.907  12.561  -4.307  0.00  0.00    -0.203 NA
ATOM     13  C   UNL d   1      13.250  12.161  -4.938  0.00  0.00     0.280 C 
ATOM     14  O   UNL d   1      14.067  12.142  -5.017  0.00  0.00    -0.265 OA
ATOM     15  C   UNL d   1      12.773  11.779  -5.491  0.00  0.00     0.068 C 
ENDBRANCH   1  12
BRANCH   1  16
ATOM     16  C   UNL d   1      13.668  13.700  -3.908  0.00  0.00     0.036 C 
BRANCH  16  17
ATOM     17  C   UNL d   1      13.141  14.319  -4.026  0.00  0.00     0.096 C 
BRANCH  17  18
ATOM     18  S   UNL d   1      13.417  15.046  -4.292  0.00  0.00     0.192 S 
ATOM     19  O   UNL d   1      13.590  15.724  -4.744  0.00  0.00    -0.222 OA
ATOM     20  O   UNL d   1      12.991  14.738  -4.934  0.00  0.00    -0.222 OA
ATOM     21  C   UNL d   1      13.871  15.518  -3.795  0.00  0.00     0.145 C 
ENDBRANCH  17  18
ENDBRANCH  16  17
ENDBRANCH   1  16
TORSDOF 6
ENDMDL
