MODEL 1
REMARK VINA RESULT:      31.0      0.000      0.000
REMARK  5 active torsions:
REMARK  status: ('A' for Active; 'I' for Inactive)
REMARK    1  A    between atoms: C_11  and  N_1 
REMARK    2  A    between atoms: C_5  and  C_3 
REMARK       I    between atoms: N_14  and  C_5 
REMARK    3  A    between atoms: N_7  and  C_18 
REMARK    4  A    between atoms: C_17  and  N_14 
REMARK    5  A    between atoms: C_18  and  C_17 
ROOT
ATOM      1  C   UNL d   1      45.115 -17.260  39.115  0.00  0.00     0.281 C 
ATOM      2  O   UNL d   1      44.426 -17.446  39.525  0.00  0.00    -0.265 OA
ATOM      3  N   UNL d   1      45.835 -17.550  39.378  0.00  0.00    -0.205 NA
ENDROOT
BRANCH   1   4
ATOM      4  C   UNL d   1      45.078 -16.782  38.438  0.00  0.00     0.080 A 
ATOM      5  C   UNL d   1      45.606 -16.181  38.239  0.00  0.00     0.088 A 
ATOM      6  N   UNL d   1      45.356 -15.856  37.524  0.00  0.00    -0.273 N 
ATOM      7  C   UNL d   1      44.679 -16.251  37.281  0.00  0.00     0.265 A 
ATOM      8  C   UNL d   1      44.504 -16.828  37.847  0.00  0.00     0.067 A 
ATOM      9  O   UNL d   1      44.275 -16.069  36.580  0.00  0.00    -0.267 OA
BRANCH   6  10
ATOM     10  C   UNL d   1      45.724 -15.237  37.120  0.00  0.00     0.067 A 
ATOM     11  C   UNL d   1      45.453 -14.457  37.086  0.00  0.00     0.018 A 
ATOM     12  C   UNL d   1      45.984 -14.026  36.627  0.00  0.00     0.002 A 
ATOM     13  C   UNL d   1      46.578 -14.543  36.381  0.00  0.00     0.002 A 
ATOM     14  C   UNL d   1      46.423 -15.286  36.681  0.00  0.00     0.018 A 
ENDBRANCH   6  10
ENDBRANCH   1   4
BRANCH   3  15
ATOM     15  C   UNL d   1      45.871 -18.022  40.048  0.00  0.00     0.121 C 
BRANCH  15  16
ATOM     16  C   UNL d   1      46.593 -18.282  40.339  0.00  0.00     0.101 C 
BRANCH  16  17
ATOM     17  N   UNL d   1      46.606 -18.777  41.005  0.00  0.00    -0.301 N 
ATOM     18  C   UNL d   1      46.592 -18.445  41.759  0.00  0.00     0.080 A 
ATOM     19  C   UNL d   1      46.606 -18.943  42.419  0.00  0.00     0.018 A 
ATOM     20  C   UNL d   1      46.592 -18.625  43.172  0.00  0.00     0.002 A 
ATOM     21  C   UNL d   1      46.633 -19.760  42.325  0.00  0.00     0.003 A 
ATOM     22  C   UNL d   1      46.605 -19.111  43.829  0.00  0.00     0.000 A 
ATOM     23  C   UNL d   1      46.633 -19.933  43.738  0.00  0.00     0.000 A 
ATOM     24  C   UNL d   1      46.647 -20.260  42.982  0.00  0.00     0.000 A 
ATOM     25  C   UNL d   1      46.647 -20.084  41.564  0.00  0.00     0.019 A 
ATOM     26  C   UNL d   1      46.634 -19.591  40.899  0.00  0.00     0.080 A 
ENDBRANCH  16  17
ENDBRANCH  15  16
ENDBRANCH   3  15
TORSDOF 5
ENDMDL
