MODEL 1
REMARK VINA RESULT:       3.6      0.000      0.000
REMARK  6 active torsions:
REMARK  status: ('A' for Active; 'I' for Inactive)
REMARK    1  A    between atoms: S_12  and  C_5 
REMARK    2  A    between atoms: C_14  and  C_6 
REMARK    3  A    between atoms: C_10  and  C_13 
REMARK    4  A    between atoms: C_21  and  S_12 
REMARK    5  A    between atoms: C_15  and  C_21 
REMARK       I    between atoms: N_16  and  C_15 
REMARK    6  A    between atoms: C_18  and  N_16 
ROOT
ATOM      1  C   UNL d   1      59.305  -1.956  28.954  0.00  0.00     0.186 A 
ATOM      2  C   UNL d   1      58.832  -1.486  29.449  0.00  0.00     0.065 A 
ATOM      3  N   UNL d   1      59.088  -2.733  28.788  0.00  0.00    -0.203 NA
ATOM      4  N   UNL d   1      57.926  -2.568  29.613  0.00  0.00    -0.220 NA
ATOM      5  C   UNL d   1      58.149  -1.799  29.771  0.00  0.00     0.116 A 
ATOM      6  C   UNL d   1      58.393  -3.046  29.118  0.00  0.00     0.165 A 
ATOM      7  O   UNL d   1      59.994  -1.650  28.625  0.00  0.00    -0.289 OA
ATOM      8  C   UNL d   1      59.053  -0.708  29.613  0.00  0.00     0.007 A 
ATOM      9  C   UNL d   1      60.220  -0.866  28.787  0.00  0.00     0.102 A 
ATOM     10  C   UNL d   1      59.750  -0.398  29.280  0.00  0.00     0.023 A 
ATOM     11  C   UNL d   1      60.902  -0.563  28.461  0.00  0.00     0.025 A 
ATOM     12  C   UNL d   1      59.971   0.374  29.441  0.00  0.00     0.002 A 
ATOM     13  C   UNL d   1      61.133   0.210  28.616  0.00  0.00     0.002 A 
ATOM     14  C   UNL d   1      60.665   0.682  29.109  0.00  0.00     0.000 A 
ENDROOT
BRANCH   5  15
ATOM     15  S   UNL d   1      57.676  -1.328  30.267  0.00  0.00    -0.062 SA
BRANCH  15  16
ATOM     16  C   UNL d   1      57.412  -1.624  30.986  0.00  0.00     0.099 C 
BRANCH  16  17
ATOM     17  C   UNL d   1      56.962  -1.150  31.483  0.00  0.00     0.286 C 
ATOM     18  N   UNL d   1      56.749  -1.421  32.236  0.00  0.00    -0.208 NA
ATOM     19  O   UNL d   1      56.719  -0.401  31.242  0.00  0.00    -0.265 OA
BRANCH  18  20
ATOM     20  C   UNL d   1      56.299  -0.947  32.733  0.00  0.00     0.085 A 
ATOM     21  C   UNL d   1      56.672  -0.508  33.312  0.00  0.00     0.025 A 
ATOM     22  C   UNL d   1      56.230  -0.035  33.810  0.00  0.00     0.066 A 
ATOM     23  C   UNL d   1      55.404   0.002  33.728  0.00  0.00     0.006 A 
ATOM     24  C   UNL d   1      55.037  -0.441  33.143  0.00  0.00     0.002 A 
ATOM     25  C   UNL d   1      55.482  -0.921  32.639  0.00  0.00     0.019 A 
BRANCH  22  26
ATOM     26  C   UNL d   1      56.598   0.414  34.401  0.00  0.00     0.211 C 
ATOM     27  O   UNL d   1      57.367   0.681  34.283  0.00  0.00    -0.644 OA
ATOM     28  O   UNL d   1      56.200   0.592  35.099  0.00  0.00    -0.644 OA
ENDBRANCH  22  26
ENDBRANCH  18  20
ENDBRANCH  16  17
ENDBRANCH  15  16
ENDBRANCH   5  15
BRANCH   6  29
ATOM     29  C   UNL d   1      58.175  -3.825  28.953  0.00  0.00     0.036 A 
ATOM     30  C   UNL d   1      57.409  -3.986  28.696  0.00  0.00     0.005 A 
ATOM     31  C   UNL d   1      57.184  -4.765  28.529  0.00  0.00     0.030 A 
ATOM     32  C   UNL d   1      57.728  -5.381  28.620  0.00  0.00     0.140 A 
ATOM     33  C   UNL d   1      58.505  -5.216  28.881  0.00  0.00     0.030 A 
ATOM     34  F   UNL d   1      57.509  -6.155  28.455  0.00  0.00    -0.204 F 
ATOM     35  C   UNL d   1      58.719  -4.435  29.045  0.00  0.00     0.005 A 
ENDBRANCH   6  29
TORSDOF 6
ENDMDL
