MODEL 1
REMARK VINA RESULT:      -6.0      0.000      0.000
REMARK  3 active torsions:
REMARK  status: ('A' for Active; 'I' for Inactive)
REMARK    1  A    between atoms: N_2  and  S_1 
REMARK    2  A    between atoms: C_5  and  S_1 
REMARK    3  A    between atoms: C_4  and  C_3 
REMARK       I    between atoms: N_8  and  C_4 
ROOT
ATOM      1  N   UNL d   1     -39.490  14.612  19.021  0.00  0.00    -0.226 N 
ATOM      2  C   UNL d   1     -38.784  14.237  18.849  0.00  0.00     0.131 A 
ATOM      3  C   UNL d   1     -39.706  14.723  19.813  0.00  0.00     0.092 A 
ATOM      4  C   UNL d   1     -38.294  13.973  19.454  0.00  0.00     0.023 A 
ATOM      5  C   UNL d   1     -39.222  14.462  20.411  0.00  0.00     0.018 A 
ATOM      6  C   UNL d   1     -38.509  14.084  20.232  0.00  0.00     0.003 A 
ATOM      7  C   UNL d   1     -39.430  14.569  21.200  0.00  0.00     0.002 A 
ATOM      8  C   UNL d   1     -38.009  13.815  20.824  0.00  0.00     0.000 A 
ATOM      9  C   UNL d   1     -38.221  13.923  21.616  0.00  0.00     0.000 A 
ATOM     10  C   UNL d   1     -38.936  14.303  21.804  0.00  0.00     0.000 A 
ENDROOT
BRANCH   2  11
ATOM     11  C   UNL d   1     -38.568  14.126  18.057  0.00  0.00     0.282 C 
ATOM     12  N   UNL d   1     -38.394  13.367  17.780  0.00  0.00    -0.271 N 
ATOM     13  C   UNL d   1     -38.452  12.766  18.334  0.00  0.00     0.083 A 
ATOM     14  C   UNL d   1     -38.185  13.319  16.979  0.00  0.00     0.083 A 
ATOM     15  C   UNL d   1     -38.317  11.956  18.236  0.00  0.00     0.019 A 
ATOM     16  C   UNL d   1     -38.091  11.555  17.560  0.00  0.00     0.002 A 
ATOM     17  C   UNL d   1     -37.940  11.856  16.804  0.00  0.00     0.002 A 
ATOM     18  C   UNL d   1     -37.983  12.646  16.547  0.00  0.00     0.019 A 
ATOM     19  O   UNL d   1     -38.525  14.764  17.542  0.00  0.00    -0.265 OA
ENDBRANCH   2  11
BRANCH   1  20
ATOM     20  S   UNL d   1     -39.985  14.878  18.417  0.00  0.00     0.277 S 
ATOM     21  O   UNL d   1     -39.512  15.550  18.373  0.00  0.00    -0.199 OA
ATOM     22  O   UNL d   1     -40.455  14.201  18.467  0.00  0.00    -0.199 OA
BRANCH  20  23
ATOM     23  C   UNL d   1     -40.471  15.158  17.810  0.00  0.00     0.133 A 
ATOM     24  S   UNL d   1     -40.358  15.851  17.384  0.00  0.00    -0.074 SA
ATOM     25  C   UNL d   1     -40.967  15.920  16.835  0.00  0.00     0.036 A 
ATOM     26  C   UNL d   1     -41.465  15.262  16.922  0.00  0.00     0.008 A 
ATOM     27  C   UNL d   1     -41.154  14.792  17.527  0.00  0.00     0.020 A 
ENDBRANCH  20  23
ENDBRANCH   1  20
TORSDOF 3
ENDMDL
MODEL 2
REMARK VINA RESULT:      -5.8      1.272      3.034
REMARK  3 active torsions:
REMARK  status: ('A' for Active; 'I' for Inactive)
REMARK    1  A    between atoms: N_2  and  S_1 
REMARK    2  A    between atoms: C_5  and  S_1 
REMARK    3  A    between atoms: C_4  and  C_3 
REMARK       I    between atoms: N_8  and  C_4 
ROOT
ATOM      1  N   UNL d   1     -39.598  14.212  19.081  0.00  0.00    -0.226 N 
ATOM      2  C   UNL d   1     -39.744  14.964  18.793  0.00  0.00     0.131 A 
ATOM      3  C   UNL d   1     -39.821  14.027  19.857  0.00  0.00     0.092 A 
ATOM      4  C   UNL d   1     -40.108  15.528  19.268  0.00  0.00     0.023 A 
ATOM      5  C   UNL d   1     -40.181  14.585  20.325  0.00  0.00     0.018 A 
ATOM      6  C   UNL d   1     -40.326  15.343  20.030  0.00  0.00     0.003 A 
ATOM      7  C   UNL d   1     -40.405  14.407  21.098  0.00  0.00     0.002 A 
ATOM      8  C   UNL d   1     -40.689  15.917  20.491  0.00  0.00     0.000 A 
ATOM      9  C   UNL d   1     -40.913  15.736  21.265  0.00  0.00     0.000 A 
ATOM     10  C   UNL d   1     -40.770  14.976  21.570  0.00  0.00     0.000 A 
ENDROOT
BRANCH   2  11
ATOM     11  C   UNL d   1     -39.521  15.149  18.017  0.00  0.00     0.282 C 
ATOM     12  N   UNL d   1     -40.095  15.379  17.468  0.00  0.00    -0.271 N 
ATOM     13  C   UNL d   1     -40.864  15.404  17.749  0.00  0.00     0.083 A 
ATOM     14  C   UNL d   1     -39.811  15.551  16.708  0.00  0.00     0.083 A 
ATOM     15  C   UNL d   1     -41.557  15.609  17.345  0.00  0.00     0.019 A 
ATOM     16  C   UNL d   1     -41.643  15.837  16.565  0.00  0.00     0.002 A 
ATOM     17  C   UNL d   1     -41.063  15.921  15.981  0.00  0.00     0.002 A 
ATOM     18  C   UNL d   1     -40.244  15.793  16.048  0.00  0.00     0.019 A 
ATOM     19  O   UNL d   1     -38.735  15.108  17.787  0.00  0.00    -0.265 OA
ENDBRANCH   2  11
BRANCH   1  20
ATOM     20  S   UNL d   1     -39.233  13.643  18.609  0.00  0.00     0.277 S 
ATOM     21  O   UNL d   1     -38.512  13.971  18.831  0.00  0.00    -0.199 OA
ATOM     22  O   UNL d   1     -39.961  13.319  18.390  0.00  0.00    -0.199 OA
BRANCH  20  23
ATOM     23  C   UNL d   1     -38.854  13.079  18.139  0.00  0.00     0.133 A 
ATOM     24  S   UNL d   1     -38.106  12.767  18.273  0.00  0.00    -0.074 SA
ATOM     25  C   UNL d   1     -37.941  12.225  17.677  0.00  0.00     0.036 A 
ATOM     26  C   UNL d   1     -38.595  12.200  17.166  0.00  0.00     0.008 A 
ATOM     27  C   UNL d   1     -39.158  12.730  17.457  0.00  0.00     0.020 A 
ENDBRANCH  20  23
ENDBRANCH   1  20
TORSDOF 3
ENDMDL
MODEL 3
REMARK VINA RESULT:      -5.4      1.477      3.379
REMARK  3 active torsions:
REMARK  status: ('A' for Active; 'I' for Inactive)
REMARK    1  A    between atoms: N_2  and  S_1 
REMARK    2  A    between atoms: C_5  and  S_1 
REMARK    3  A    between atoms: C_4  and  C_3 
REMARK       I    between atoms: N_8  and  C_4 
ROOT
ATOM      1  N   UNL d   1     -39.793  14.597  19.243  0.00  0.00    -0.226 N 
ATOM      2  C   UNL d   1     -39.024  14.591  19.519  0.00  0.00     0.131 A 
ATOM      3  C   UNL d   1     -39.949  14.323  18.476  0.00  0.00     0.092 A 
ATOM      4  C   UNL d   1     -38.412  14.317  19.044  0.00  0.00     0.023 A 
ATOM      5  C   UNL d   1     -39.344  14.052  18.007  0.00  0.00     0.018 A 
ATOM      6  C   UNL d   1     -38.567  14.049  18.291  0.00  0.00     0.003 A 
ATOM      7  C   UNL d   1     -39.490  13.779  17.244  0.00  0.00     0.002 A 
ATOM      8  C   UNL d   1     -37.945  13.778  17.828  0.00  0.00     0.000 A 
ATOM      9  C   UNL d   1     -38.097  13.505  17.063  0.00  0.00     0.000 A 
ATOM     10  C   UNL d   1     -38.874  13.505  16.770  0.00  0.00     0.000 A 
ENDROOT
BRANCH   2  11
ATOM     11  C   UNL d   1     -38.868  14.865  20.286  0.00  0.00     0.282 C 
ATOM     12  N   UNL d   1     -38.579  14.343  20.858  0.00  0.00    -0.271 N 
ATOM     13  C   UNL d   1     -38.467  13.571  20.609  0.00  0.00     0.083 A 
ATOM     14  C   UNL d   1     -38.443  14.675  21.606  0.00  0.00     0.083 A 
ATOM     15  C   UNL d   1     -38.188  12.922  21.041  0.00  0.00     0.019 A 
ATOM     16  C   UNL d   1     -37.955  12.894  21.824  0.00  0.00     0.002 A 
ATOM     17  C   UNL d   1     -37.940  13.503  22.384  0.00  0.00     0.002 A 
ATOM     18  C   UNL d   1     -38.159  14.299  22.283  0.00  0.00     0.019 A 
ATOM     19  O   UNL d   1     -38.999  15.650  20.483  0.00  0.00    -0.265 OA
ENDBRANCH   2  11
BRANCH   1  20
ATOM     20  S   UNL d   1     -40.410  14.870  19.716  0.00  0.00     0.277 S 
ATOM     21  O   UNL d   1     -40.604  14.084  19.857  0.00  0.00    -0.199 OA
ATOM     22  O   UNL d   1     -40.209  15.658  19.570  0.00  0.00    -0.199 OA
BRANCH  20  23
ATOM     23  C   UNL d   1     -41.032  15.130  20.194  0.00  0.00     0.133 A 
ATOM     24  S   UNL d   1     -41.287  15.907  20.272  0.00  0.00    -0.074 SA
ATOM     25  C   UNL d   1     -41.917  15.921  20.800  0.00  0.00     0.036 A 
ATOM     26  C   UNL d   1     -42.056  15.143  21.054  0.00  0.00     0.008 A 
ATOM     27  C   UNL d   1     -41.506  14.656  20.676  0.00  0.00     0.020 A 
ENDBRANCH  20  23
ENDBRANCH   1  20
TORSDOF 3
ENDMDL
MODEL 4
REMARK VINA RESULT:      -5.3      1.347      3.301
REMARK  3 active torsions:
REMARK  status: ('A' for Active; 'I' for Inactive)
REMARK    1  A    between atoms: N_2  and  S_1 
REMARK    2  A    between atoms: C_5  and  S_1 
REMARK    3  A    between atoms: C_4  and  C_3 
REMARK       I    between atoms: N_8  and  C_4 
ROOT
ATOM      1  N   UNL d   1     -40.701  14.950  18.547  0.00  0.00    -0.226 N 
ATOM      2  C   UNL d   1     -39.949  14.833  18.245  0.00  0.00     0.131 A 
ATOM      3  C   UNL d   1     -41.291  15.256  18.053  0.00  0.00     0.092 A 
ATOM      4  C   UNL d   1     -39.782  15.016  17.461  0.00  0.00     0.023 A 
ATOM      5  C   UNL d   1     -41.125  15.436  17.278  0.00  0.00     0.018 A 
ATOM      6  C   UNL d   1     -40.364  15.316  16.978  0.00  0.00     0.003 A 
ATOM      7  C   UNL d   1     -41.707  15.740  16.781  0.00  0.00     0.002 A 
ATOM      8  C   UNL d   1     -40.181  15.493  16.198  0.00  0.00     0.000 A 
ATOM      9  C   UNL d   1     -40.768  15.798  15.702  0.00  0.00     0.000 A 
ATOM     10  C   UNL d   1     -41.535  15.922  15.995  0.00  0.00     0.000 A 
ENDROOT
BRANCH   2  11
ATOM     11  C   UNL d   1     -39.359  14.528  18.740  0.00  0.00     0.282 C 
ATOM     12  N   UNL d   1     -38.987  13.816  18.545  0.00  0.00    -0.271 N 
ATOM     13  C   UNL d   1     -39.243  13.460  17.853  0.00  0.00     0.083 A 
ATOM     14  C   UNL d   1     -38.405  13.561  19.077  0.00  0.00     0.083 A 
ATOM     15  C   UNL d   1     -38.987  12.753  17.508  0.00  0.00     0.019 A 
ATOM     16  C   UNL d   1     -38.412  12.235  17.774  0.00  0.00     0.002 A 
ATOM     17  C   UNL d   1     -37.943  12.285  18.453  0.00  0.00     0.002 A 
ATOM     18  C   UNL d   1     -37.941  12.880  19.035  0.00  0.00     0.019 A 
ATOM     19  O   UNL d   1     -39.139  14.925  19.423  0.00  0.00    -0.265 OA
ENDBRANCH   2  11
BRANCH   1  20
ATOM     20  S   UNL d   1     -40.873  14.768  19.333  0.00  0.00     0.277 S 
ATOM     21  O   UNL d   1     -41.233  14.082  19.058  0.00  0.00    -0.199 OA
ATOM     22  O   UNL d   1     -40.509  15.461  19.601  0.00  0.00    -0.199 OA
BRANCH  20  23
ATOM     23  C   UNL d   1     -41.052  14.573  20.115  0.00  0.00     0.133 A 
ATOM     24  S   UNL d   1     -40.924  15.050  20.771  0.00  0.00    -0.074 SA
ATOM     25  C   UNL d   1     -41.181  14.646  21.440  0.00  0.00     0.036 A 
ATOM     26  C   UNL d   1     -41.472  13.908  21.196  0.00  0.00     0.008 A 
ATOM     27  C   UNL d   1     -41.390  13.867  20.375  0.00  0.00     0.020 A 
ENDBRANCH  20  23
ENDBRANCH   1  20
TORSDOF 3
ENDMDL
MODEL 5
REMARK VINA RESULT:      -4.4      1.974      4.398
REMARK  3 active torsions:
REMARK  status: ('A' for Active; 'I' for Inactive)
REMARK    1  A    between atoms: N_2  and  S_1 
REMARK    2  A    between atoms: C_5  and  S_1 
REMARK    3  A    between atoms: C_4  and  C_3 
REMARK       I    between atoms: N_8  and  C_4 
ROOT
ATOM      1  N   UNL d   1     -38.611  13.915  20.268  0.00  0.00    -0.226 N 
ATOM      2  C   UNL d   1     -39.067  14.492  19.912  0.00  0.00     0.131 A 
ATOM      3  C   UNL d   1     -38.277  13.319  19.800  0.00  0.00     0.092 A 
ATOM      4  C   UNL d   1     -39.194  14.482  19.099  0.00  0.00     0.023 A 
ATOM      5  C   UNL d   1     -38.402  13.309  18.997  0.00  0.00     0.018 A 
ATOM      6  C   UNL d   1     -38.864  13.895  18.642  0.00  0.00     0.003 A 
ATOM      7  C   UNL d   1     -38.073  12.719  18.525  0.00  0.00     0.002 A 
ATOM      8  C   UNL d   1     -38.999  13.898  17.832  0.00  0.00     0.000 A 
ATOM      9  C   UNL d   1     -38.667  13.305  17.362  0.00  0.00     0.000 A 
ATOM     10  C   UNL d   1     -38.202  12.712  17.711  0.00  0.00     0.000 A 
ENDROOT
BRANCH   2  11
ATOM     11  C   UNL d   1     -39.401  15.089  20.380  0.00  0.00     0.282 C 
ATOM     12  N   UNL d   1     -40.221  15.121  20.482  0.00  0.00    -0.271 N 
ATOM     13  C   UNL d   1     -40.649  14.539  20.096  0.00  0.00     0.083 A 
ATOM     14  C   UNL d   1     -40.496  15.739  20.960  0.00  0.00     0.083 A 
ATOM     15  C   UNL d   1     -41.468  14.419  20.085  0.00  0.00     0.019 A 
ATOM     16  C   UNL d   1     -42.052  14.853  20.458  0.00  0.00     0.002 A 
ATOM     17  C   UNL d   1     -41.974  15.520  20.940  0.00  0.00     0.002 A 
ATOM     18  C   UNL d   1     -41.277  15.915  21.163  0.00  0.00     0.019 A 
ATOM     19  O   UNL d   1     -38.926  15.649  20.745  0.00  0.00    -0.265 OA
ENDBRANCH   2  11
BRANCH   1  20
ATOM     20  S   UNL d   1     -38.482  13.921  21.082  0.00  0.00     0.277 S 
ATOM     21  O   UNL d   1     -39.021  13.303  21.137  0.00  0.00    -0.199 OA
ATOM     22  O   UNL d   1     -37.941  14.543  21.019  0.00  0.00    -0.199 OA
BRANCH  20  23
ATOM     23  C   UNL d   1     -38.363  13.916  21.900  0.00  0.00     0.133 A 
ATOM     24  S   UNL d   1     -38.646  13.350  22.423  0.00  0.00    -0.074 SA
ATOM     25  C   UNL d   1     -38.402  13.554  23.182  0.00  0.00     0.036 A 
ATOM     26  C   UNL d   1     -37.962  14.256  23.130  0.00  0.00     0.008 A 
ATOM     27  C   UNL d   1     -37.940  14.477  22.333  0.00  0.00     0.020 A 
ENDBRANCH  20  23
ENDBRANCH   1  20
TORSDOF 3
ENDMDL
MODEL 6
REMARK VINA RESULT:      -4.2      9.356     10.627
REMARK  3 active torsions:
REMARK  status: ('A' for Active; 'I' for Inactive)
REMARK    1  A    between atoms: N_2  and  S_1 
REMARK    2  A    between atoms: C_5  and  S_1 
REMARK    3  A    between atoms: C_4  and  C_3 
REMARK       I    between atoms: N_8  and  C_4 
ROOT
ATOM      1  N   UNL d   1     -48.284  14.170  22.606  0.00  0.00    -0.226 N 
ATOM      2  C   UNL d   1     -48.817  13.585  22.396  0.00  0.00     0.131 A 
ATOM      3  C   UNL d   1     -48.570  14.909  22.848  0.00  0.00     0.092 A 
ATOM      4  C   UNL d   1     -49.626  13.729  22.425  0.00  0.00     0.023 A 
ATOM      5  C   UNL d   1     -49.370  15.050  22.875  0.00  0.00     0.018 A 
ATOM      6  C   UNL d   1     -49.904  14.456  22.662  0.00  0.00     0.003 A 
ATOM      7  C   UNL d   1     -49.661  15.782  23.115  0.00  0.00     0.002 A 
ATOM      8  C   UNL d   1     -50.714  14.584  22.685  0.00  0.00     0.000 A 
ATOM      9  C   UNL d   1     -51.003  15.320  22.926  0.00  0.00     0.000 A 
ATOM     10  C   UNL d   1     -50.474  15.922  23.141  0.00  0.00     0.000 A 
ENDROOT
BRANCH   2  11
ATOM     11  C   UNL d   1     -48.530  12.846  22.155  0.00  0.00     0.282 C 
ATOM     12  N   UNL d   1     -48.762  12.163  22.558  0.00  0.00    -0.271 N 
ATOM     13  C   UNL d   1     -49.275  12.280  23.186  0.00  0.00     0.083 A 
ATOM     14  C   UNL d   1     -48.443  11.454  22.271  0.00  0.00     0.083 A 
ATOM     15  C   UNL d   1     -49.607  11.719  23.696  0.00  0.00     0.019 A 
ATOM     16  C   UNL d   1     -49.503  10.908  23.698  0.00  0.00     0.002 A 
ATOM     17  C   UNL d   1     -49.043  10.442  23.192  0.00  0.00     0.002 A 
ATOM     18  C   UNL d   1     -48.570  10.689  22.554  0.00  0.00     0.019 A 
ATOM     19  O   UNL d   1     -48.017  12.785  21.518  0.00  0.00    -0.265 OA
ENDBRANCH   2  11
BRANCH   1  20
ATOM     20  S   UNL d   1     -47.472  14.030  22.579  0.00  0.00     0.277 S 
ATOM     21  O   UNL d   1     -47.529  13.754  23.352  0.00  0.00    -0.199 OA
ATOM     22  O   UNL d   1     -47.422  14.308  21.803  0.00  0.00    -0.199 OA
BRANCH  20  23
ATOM     23  C   UNL d   1     -46.658  13.884  22.567  0.00  0.00     0.133 A 
ATOM     24  S   UNL d   1     -46.201  13.662  23.212  0.00  0.00    -0.074 SA
ATOM     25  C   UNL d   1     -45.423  13.574  22.959  0.00  0.00     0.036 A 
ATOM     26  C   UNL d   1     -45.397  13.745  22.147  0.00  0.00     0.008 A 
ATOM     27  C   UNL d   1     -46.165  13.936  21.909  0.00  0.00     0.020 A 
ENDBRANCH  20  23
ENDBRANCH   1  20
TORSDOF 3
ENDMDL
MODEL 7
REMARK VINA RESULT:      -4.1      1.289      3.017
REMARK  3 active torsions:
REMARK  status: ('A' for Active; 'I' for Inactive)
REMARK    1  A    between atoms: N_2  and  S_1 
REMARK    2  A    between atoms: C_5  and  S_1 
REMARK    3  A    between atoms: C_4  and  C_3 
REMARK       I    between atoms: N_8  and  C_4 
ROOT
ATOM      1  N   UNL d   1     -39.373  14.752  18.079  0.00  0.00    -0.226 N 
ATOM      2  C   UNL d   1     -38.698  14.297  17.996  0.00  0.00     0.131 A 
ATOM      3  C   UNL d   1     -39.582  15.278  17.474  0.00  0.00     0.092 A 
ATOM      4  C   UNL d   1     -38.233  14.361  17.321  0.00  0.00     0.023 A 
ATOM      5  C   UNL d   1     -39.122  15.340  16.808  0.00  0.00     0.018 A 
ATOM      6  C   UNL d   1     -38.441  14.878  16.728  0.00  0.00     0.003 A 
ATOM      7  C   UNL d   1     -39.324  15.861  16.202  0.00  0.00     0.002 A 
ATOM      8  C   UNL d   1     -37.967  14.930  16.061  0.00  0.00     0.000 A 
ATOM      9  C   UNL d   1     -38.173  15.454  15.456  0.00  0.00     0.000 A 
ATOM     10  C   UNL d   1     -38.855  15.922  15.527  0.00  0.00     0.000 A 
ENDROOT
BRANCH   2  11
ATOM     11  C   UNL d   1     -38.489  13.771  18.601  0.00  0.00     0.282 C 
ATOM     12  N   UNL d   1     -38.341  12.977  18.423  0.00  0.00    -0.271 N 
ATOM     13  C   UNL d   1     -38.417  12.771  17.634  0.00  0.00     0.083 A 
ATOM     14  C   UNL d   1     -38.136  12.500  19.069  0.00  0.00     0.083 A 
ATOM     15  C   UNL d   1     -38.308  12.032  17.278  0.00  0.00     0.019 A 
ATOM     16  C   UNL d   1     -38.097  11.324  17.629  0.00  0.00     0.002 A 
ATOM     17  C   UNL d   1     -37.940  11.166  18.425  0.00  0.00     0.002 A 
ATOM     18  C   UNL d   1     -37.958  11.694  19.068  0.00  0.00     0.019 A 
ATOM     19  O   UNL d   1     -38.427  14.029  19.377  0.00  0.00    -0.265 OA
ENDBRANCH   2  11
BRANCH   1  20
ATOM     20  S   UNL d   1     -39.842  14.691  18.755  0.00  0.00     0.277 S 
ATOM     21  O   UNL d   1     -40.352  14.218  18.315  0.00  0.00    -0.199 OA
ATOM     22  O   UNL d   1     -39.325  15.167  19.189  0.00  0.00    -0.199 OA
BRANCH  20  23
ATOM     23  C   UNL d   1     -40.322  14.621  19.424  0.00  0.00     0.133 A 
ATOM     24  S   UNL d   1     -41.130  14.471  19.422  0.00  0.00    -0.074 SA
ATOM     25  C   UNL d   1     -41.390  14.445  20.202  0.00  0.00     0.036 A 
ATOM     26  C   UNL d   1     -40.736  14.581  20.694  0.00  0.00     0.008 A 
ATOM     27  C   UNL d   1     -40.077  14.689  20.208  0.00  0.00     0.020 A 
ENDBRANCH  20  23
ENDBRANCH   1  20
TORSDOF 3
ENDMDL
MODEL 8
REMARK VINA RESULT:      -3.8      1.172      3.367
REMARK  3 active torsions:
REMARK  status: ('A' for Active; 'I' for Inactive)
REMARK    1  A    between atoms: N_2  and  S_1 
REMARK    2  A    between atoms: C_5  and  S_1 
REMARK    3  A    between atoms: C_4  and  C_3 
REMARK       I    between atoms: N_8  and  C_4 
ROOT
ATOM      1  N   UNL d   1     -38.510  13.672  18.912  0.00  0.00    -0.226 N 
ATOM      2  C   UNL d   1     -38.651  13.872  18.132  0.00  0.00     0.131 A 
ATOM      3  C   UNL d   1     -38.294  12.894  19.097  0.00  0.00     0.092 A 
ATOM      4  C   UNL d   1     -38.580  13.308  17.538  0.00  0.00     0.023 A 
ATOM      5  C   UNL d   1     -38.224  12.337  18.510  0.00  0.00     0.018 A 
ATOM      6  C   UNL d   1     -38.368  12.544  17.723  0.00  0.00     0.003 A 
ATOM      7  C   UNL d   1     -38.009  11.562  18.687  0.00  0.00     0.002 A 
ATOM      8  C   UNL d   1     -38.302  11.992  17.119  0.00  0.00     0.000 A 
ATOM      9  C   UNL d   1     -38.086  11.215  17.300  0.00  0.00     0.000 A 
ATOM     10  C   UNL d   1     -37.940  10.999  18.088  0.00  0.00     0.000 A 
ENDROOT
BRANCH   2  11
ATOM     11  C   UNL d   1     -38.867  14.650  17.947  0.00  0.00     0.282 C 
ATOM     12  N   UNL d   1     -39.604  14.802  17.604  0.00  0.00    -0.271 N 
ATOM     13  C   UNL d   1     -40.075  14.145  17.471  0.00  0.00     0.083 A 
ATOM     14  C   UNL d   1     -39.763  15.599  17.442  0.00  0.00     0.083 A 
ATOM     15  C   UNL d   1     -40.833  14.109  17.140  0.00  0.00     0.019 A 
ATOM     16  C   UNL d   1     -41.298  14.722  16.864  0.00  0.00     0.002 A 
ATOM     17  C   UNL d   1     -41.131  15.532  16.844  0.00  0.00     0.002 A 
ATOM     18  C   UNL d   1     -40.444  15.922  17.104  0.00  0.00     0.019 A 
ATOM     19  O   UNL d   1     -38.357  15.273  18.101  0.00  0.00    -0.265 OA
ENDBRANCH   2  11
BRANCH   1  20
ATOM     20  S   UNL d   1     -38.580  14.235  19.511  0.00  0.00     0.277 S 
ATOM     21  O   UNL d   1     -39.204  13.790  19.808  0.00  0.00    -0.199 OA
ATOM     22  O   UNL d   1     -37.951  14.677  19.206  0.00  0.00    -0.199 OA
BRANCH  20  23
ATOM     23  C   UNL d   1     -38.662  14.791  20.117  0.00  0.00     0.133 A 
ATOM     24  S   UNL d   1     -38.144  15.409  20.275  0.00  0.00    -0.074 SA
ATOM     25  C   UNL d   1     -38.432  15.828  20.922  0.00  0.00     0.036 A 
ATOM     26  C   UNL d   1     -39.136  15.465  21.170  0.00  0.00     0.008 A 
ATOM     27  C   UNL d   1     -39.275  14.823  20.668  0.00  0.00     0.020 A 
ENDBRANCH  20  23
ENDBRANCH   1  20
TORSDOF 3
ENDMDL
MODEL 9
REMARK VINA RESULT:      -3.8      9.359     10.632
REMARK  3 active torsions:
REMARK  status: ('A' for Active; 'I' for Inactive)
REMARK    1  A    between atoms: N_2  and  S_1 
REMARK    2  A    between atoms: C_5  and  S_1 
REMARK    3  A    between atoms: C_4  and  C_3 
REMARK       I    between atoms: N_8  and  C_4 
ROOT
ATOM      1  N   UNL d   1     -49.088  13.287  22.924  0.00  0.00    -0.226 N 
ATOM      2  C   UNL d   1     -48.676  13.805  22.444  0.00  0.00     0.131 A 
ATOM      3  C   UNL d   1     -49.748  13.563  23.342  0.00  0.00     0.092 A 
ATOM      4  C   UNL d   1     -48.912  14.590  22.377  0.00  0.00     0.023 A 
ATOM      5  C   UNL d   1     -49.981  14.338  23.276  0.00  0.00     0.018 A 
ATOM      6  C   UNL d   1     -49.560  14.858  22.790  0.00  0.00     0.003 A 
ATOM      7  C   UNL d   1     -50.635  14.619  23.690  0.00  0.00     0.002 A 
ATOM      8  C   UNL d   1     -49.784  15.644  22.713  0.00  0.00     0.000 A 
ATOM      9  C   UNL d   1     -50.441  15.922  23.129  0.00  0.00     0.000 A 
ATOM     10  C   UNL d   1     -50.869  15.407  23.620  0.00  0.00     0.000 A 
ENDROOT
BRANCH   2  11
ATOM     11  C   UNL d   1     -48.016  13.529  22.025  0.00  0.00     0.282 C 
ATOM     12  N   UNL d   1     -47.261  13.802  22.221  0.00  0.00    -0.271 N 
ATOM     13  C   UNL d   1     -47.228  14.342  22.836  0.00  0.00     0.083 A 
ATOM     14  C   UNL d   1     -46.641  13.491  21.767  0.00  0.00     0.083 A 
ATOM     15  C   UNL d   1     -46.566  14.716  23.163  0.00  0.00     0.019 A 
ATOM     16  C   UNL d   1     -45.780  14.637  22.951  0.00  0.00     0.002 A 
ATOM     17  C   UNL d   1     -45.447  14.166  22.359  0.00  0.00     0.002 A 
ATOM     18  C   UNL d   1     -45.834  13.654  21.830  0.00  0.00     0.019 A 
ATOM     19  O   UNL d   1     -48.104  12.987  21.416  0.00  0.00    -0.265 OA
ENDBRANCH   2  11
BRANCH   1  20
ATOM     20  S   UNL d   1     -48.854  12.499  22.993  0.00  0.00     0.277 S 
ATOM     21  O   UNL d   1     -49.279  12.349  22.305  0.00  0.00    -0.199 OA
ATOM     22  O   UNL d   1     -48.429  12.658  23.684  0.00  0.00    -0.199 OA
BRANCH  20  23
ATOM     23  C   UNL d   1     -48.628  11.706  23.049  0.00  0.00     0.133 A 
ATOM     24  S   UNL d   1     -48.266  11.355  23.697  0.00  0.00    -0.074 SA
ATOM     25  C   UNL d   1     -48.136  10.562  23.523  0.00  0.00     0.036 A 
ATOM     26  C   UNL d   1     -48.421  10.418  22.757  0.00  0.00     0.008 A 
ATOM     27  C   UNL d   1     -48.725  11.130  22.467  0.00  0.00     0.020 A 
ENDBRANCH  20  23
ENDBRANCH   1  20
TORSDOF 3
ENDMDL
