MODEL 1
REMARK VINA RESULT:      36.7      0.000      0.000
REMARK  4 active torsions:
REMARK  status: ('A' for Active; 'I' for Inactive)
REMARK    1  A    between atoms: N_7  and  C_1 
REMARK    2  A    between atoms: C_8  and  C_4 
REMARK    3  A    between atoms: C_10  and  N_7 
REMARK    4  A    between atoms: C_12  and  C_8 
ROOT
ATOM      1  C   UNL d   1      13.462  13.934  -3.739  0.00  0.00     0.184 A 
ATOM      2  N   UNL d   1      13.786  13.936  -2.977  0.00  0.00    -0.129 NA
ATOM      3  N   UNL d   1      13.923  13.222  -2.585  0.00  0.00    -0.147 NA
ATOM      4  C   UNL d   1      13.738  12.501  -2.948  0.00  0.00     0.103 A 
ATOM      5  C   UNL d   1      13.279  13.214  -4.099  0.00  0.00     0.039 A 
ATOM      6  C   UNL d   1      13.415  12.500  -3.707  0.00  0.00     0.022 A 
ATOM      7  C   UNL d   1      12.955  13.212  -4.861  0.00  0.00     0.003 A 
ATOM      8  C   UNL d   1      13.229  11.779  -4.075  0.00  0.00     0.002 A 
ATOM      9  C   UNL d   1      12.906  11.779  -4.833  0.00  0.00     0.000 A 
ATOM     10  C   UNL d   1      12.769  12.498  -5.227  0.00  0.00     0.000 A 
ENDROOT
BRANCH   1  11
ATOM     11  N   UNL d   1      13.322  14.644  -4.137  0.00  0.00    -0.225 NA
BRANCH  11  12
ATOM     12  C   UNL d   1      13.875  15.253  -4.087  0.00  0.00     0.083 A 
ATOM     13  C   UNL d   1      14.153  15.607  -4.770  0.00  0.00     0.020 A 
ATOM     14  C   UNL d   1      14.704  16.214  -4.731  0.00  0.00     0.013 A 
ATOM     15  C   UNL d   1      14.983  16.474  -3.990  0.00  0.00     0.058 A 
ATOM     16  C   UNL d   1      14.700  16.115  -3.303  0.00  0.00     0.013 A 
ATOM     17 CL   UNL d   1      15.539  17.087  -3.947  0.00  0.00    -0.082 Cl
ATOM     18  C   UNL d   1      14.145  15.503  -3.349  0.00  0.00     0.020 A 
ENDBRANCH  11  12
ENDBRANCH   1  11
BRANCH   4  19
ATOM     19  C   UNL d   1      13.875  11.786  -2.556  0.00  0.00     0.021 C 
BRANCH  19  20
ATOM     20  C   UNL d   1      14.073  11.785  -1.755  0.00  0.00     0.005 A 
ATOM     21  C   UNL d   1      14.866  11.790  -1.528  0.00  0.00     0.021 A 
ATOM     22  C   UNL d   1      15.064  11.790  -0.728  0.00  0.00     0.099 A 
ATOM     23  N   UNL d   1      14.469  11.784  -0.154  0.00  0.00    -0.242 NA
ATOM     24  C   UNL d   1      13.668  11.779  -0.390  0.00  0.00     0.099 A 
ATOM     25  C   UNL d   1      13.480  11.780  -1.194  0.00  0.00     0.021 A 
ENDBRANCH  19  20
ENDBRANCH   4  19
TORSDOF 4
ENDMDL
MODEL 2
REMARK VINA RESULT:      38.4      1.503      4.001
REMARK  4 active torsions:
REMARK  status: ('A' for Active; 'I' for Inactive)
REMARK    1  A    between atoms: N_7  and  C_1 
REMARK    2  A    between atoms: C_8  and  C_4 
REMARK    3  A    between atoms: C_10  and  N_7 
REMARK    4  A    between atoms: C_12  and  C_8 
ROOT
ATOM      1  C   UNL d   1      13.396  12.557  -3.229  0.00  0.00     0.184 A 
ATOM      2  N   UNL d   1      13.548  13.286  -2.866  0.00  0.00    -0.129 NA
ATOM      3  N   UNL d   1      13.498  13.984  -3.306  0.00  0.00    -0.147 NA
ATOM      4  C   UNL d   1      13.298  13.962  -4.109  0.00  0.00     0.103 A 
ATOM      5  C   UNL d   1      13.197  12.538  -4.029  0.00  0.00     0.039 A 
ATOM      6  C   UNL d   1      13.147  13.235  -4.469  0.00  0.00     0.022 A 
ATOM      7  C   UNL d   1      13.045  11.809  -4.392  0.00  0.00     0.003 A 
ATOM      8  C   UNL d   1      12.946  13.208  -5.274  0.00  0.00     0.002 A 
ATOM      9  C   UNL d   1      12.796  12.482  -5.634  0.00  0.00     0.000 A 
ATOM     10  C   UNL d   1      12.846  11.780  -5.191  0.00  0.00     0.000 A 
ENDROOT
BRANCH   1  11
ATOM     11  N   UNL d   1      13.444  11.856  -2.796  0.00  0.00    -0.225 NA
BRANCH  11  12
ATOM     12  C   UNL d   1      13.886  11.837  -2.101  0.00  0.00     0.083 A 
ATOM     13  C   UNL d   1      14.703  11.816  -2.139  0.00  0.00     0.020 A 
ATOM     14  C   UNL d   1      15.153  11.797  -1.453  0.00  0.00     0.013 A 
ATOM     15  C   UNL d   1      14.775  11.799  -0.709  0.00  0.00     0.058 A 
ATOM     16  C   UNL d   1      13.950  11.819  -0.675  0.00  0.00     0.013 A 
ATOM     17 CL   UNL d   1      15.226  11.779  -0.015  0.00  0.00    -0.082 Cl
ATOM     18  C   UNL d   1      13.503  11.839  -1.371  0.00  0.00     0.020 A 
ENDBRANCH  11  12
ENDBRANCH   1  11
BRANCH   4  19
ATOM     19  C   UNL d   1      13.248  14.660  -4.549  0.00  0.00     0.021 C 
BRANCH  19  20
ATOM     20  C   UNL d   1      13.825  15.244  -4.464  0.00  0.00     0.005 A 
ATOM     21  C   UNL d   1      14.242  15.509  -5.123  0.00  0.00     0.021 A 
ATOM     22  C   UNL d   1      14.818  16.093  -5.038  0.00  0.00     0.099 A 
ATOM     23  N   UNL d   1      14.977  16.411  -4.292  0.00  0.00    -0.242 NA
ATOM     24  C   UNL d   1      14.551  16.139  -3.628  0.00  0.00     0.099 A 
ATOM     25  C   UNL d   1      13.976  15.555  -3.723  0.00  0.00     0.021 A 
ENDBRANCH  19  20
ENDBRANCH   4  19
TORSDOF 4
ENDMDL
