MODEL 1
REMARK VINA RESULT:      45.5      0.000      0.000
REMARK  5 active torsions:
REMARK  status: ('A' for Active; 'I' for Inactive)
REMARK       I    between atoms: C_2  and  N_1 
REMARK    1  A    between atoms: C_4  and  N_1 
REMARK    2  A    between atoms: C_14  and  C_2 
REMARK       I    between atoms: C_3  and  N_6 
REMARK    3  A    between atoms: C_5  and  C_3 
REMARK    4  A    between atoms: N_8  and  C_4 
REMARK    5  A    between atoms: N_6  and  N_8 
ROOT
ATOM      1  C   UNL d   1     -57.551 -99.038 -44.992  0.00  0.00     0.243 C 
ATOM      2  S   UNL d   1     -57.314 -98.755 -45.722  0.00  0.00    -0.035 SA
ENDROOT
BRANCH   1   3
ATOM      3  N   UNL d   1     -57.016 -99.438 -44.505  0.00  0.00    -0.177 NA
ATOM      4  C   UNL d   1     -56.317 -99.738 -44.823  0.00  0.00     0.281 C 
ATOM      5  O   UNL d   1     -56.153 -99.636 -45.629  0.00  0.00    -0.265 OA
BRANCH   4   6
ATOM      6  C   UNL d   1     -55.787-100.135 -44.338  0.00  0.00     0.058 A 
ATOM      7  C   UNL d   1     -55.629 -99.856 -43.583  0.00  0.00     0.005 A 
ATOM      8  C   UNL d   1     -55.097-100.254 -43.095  0.00  0.00     0.000 A 
ATOM      9  C   UNL d   1     -54.724-100.936 -43.370  0.00  0.00     0.000 A 
ATOM     10  C   UNL d   1     -54.883-101.220 -44.135  0.00  0.00     0.000 A 
ATOM     11  C   UNL d   1     -55.416-100.817 -44.618  0.00  0.00     0.005 A 
ENDBRANCH   4   6
ENDBRANCH   1   3
BRANCH   1  12
ATOM     12  N   UNL d   1     -58.328 -98.923 -44.740  0.00  0.00    -0.114 NA
BRANCH  12  13
ATOM     13  N   UNL d   1     -58.549 -99.105 -43.969  0.00  0.00    -0.103 NA
ATOM     14  C   UNL d   1     -59.345 -99.121 -43.754  0.00  0.00     0.303 C 
ATOM     15  O   UNL d   1     -59.920 -98.954 -44.311  0.00  0.00    -0.263 OA
BRANCH  14  16
ATOM     16  C   UNL d   1     -59.554 -99.304 -42.981  0.00  0.00     0.089 A 
ATOM     17  S   UNL d   1     -59.787-100.084 -42.694  0.00  0.00    -0.082 SA
ATOM     18  C   UNL d   1     -59.958-100.017 -41.842  0.00  0.00     0.036 A 
ATOM     19  C   UNL d   1     -59.830 -99.196 -41.612  0.00  0.00     0.008 A 
ATOM     20  C   UNL d   1     -59.582 -98.756 -42.307  0.00  0.00     0.012 A 
ENDBRANCH  14  16
ENDBRANCH  12  13
ENDBRANCH   1  12
TORSDOF 5
ENDMDL
MODEL 2
REMARK VINA RESULT:      45.9      4.329      5.210
REMARK  5 active torsions:
REMARK  status: ('A' for Active; 'I' for Inactive)
REMARK       I    between atoms: C_2  and  N_1 
REMARK    1  A    between atoms: C_4  and  N_1 
REMARK    2  A    between atoms: C_14  and  C_2 
REMARK       I    between atoms: C_3  and  N_6 
REMARK    3  A    between atoms: C_5  and  C_3 
REMARK    4  A    between atoms: N_8  and  C_4 
REMARK    5  A    between atoms: N_6  and  N_8 
ROOT
ATOM      1  C   UNL d   1     -55.264-102.269 -41.153  0.00  0.00     0.243 C 
ATOM      2  S   UNL d   1     -55.974-102.675 -41.171  0.00  0.00    -0.035 SA
ENDROOT
BRANCH   1   3
ATOM      3  N   UNL d   1     -55.097-101.694 -41.724  0.00  0.00    -0.177 NA
ATOM      4  C   UNL d   1     -55.220-101.860 -42.522  0.00  0.00     0.281 C 
ATOM      5  O   UNL d   1     -55.510-102.603 -42.749  0.00  0.00    -0.265 OA
BRANCH   4   6
ATOM      6  C   UNL d   1     -55.055-101.288 -43.087  0.00  0.00     0.058 A 
ATOM      7  C   UNL d   1     -55.061-100.494 -42.884  0.00  0.00     0.005 A 
ATOM      8  C   UNL d   1     -54.895 -99.917 -43.449  0.00  0.00     0.000 A 
ATOM      9  C   UNL d   1     -54.722-100.145 -44.223  0.00  0.00     0.000 A 
ATOM     10  C   UNL d   1     -54.715-100.950 -44.430  0.00  0.00     0.000 A 
ATOM     11  C   UNL d   1     -54.882-101.521 -43.859  0.00  0.00     0.005 A 
ENDBRANCH   4   6
ENDBRANCH   1   3
BRANCH   1  12
ATOM     12  N   UNL d   1     -54.711-102.435 -40.564  0.00  0.00    -0.114 NA
BRANCH  12  13
ATOM     13  N   UNL d   1     -54.956-102.678 -39.817  0.00  0.00    -0.103 NA
ATOM     14  C   UNL d   1     -55.155-102.124 -39.240  0.00  0.00     0.303 C 
ATOM     15  O   UNL d   1     -55.108-101.326 -39.409  0.00  0.00    -0.263 OA
BRANCH  14  16
ATOM     16  C   UNL d   1     -55.398-102.380 -38.498  0.00  0.00     0.089 A 
ATOM     17  S   UNL d   1     -56.213-102.401 -38.215  0.00  0.00    -0.082 SA
ATOM     18  C   UNL d   1     -56.206-102.710 -37.400  0.00  0.00     0.036 A 
ATOM     19  C   UNL d   1     -55.387-102.876 -37.188  0.00  0.00     0.008 A 
ATOM     20  C   UNL d   1     -54.888-102.675 -37.858  0.00  0.00     0.012 A 
ENDBRANCH  14  16
ENDBRANCH  12  13
ENDBRANCH   1  12
TORSDOF 5
ENDMDL
