MODEL 1
REMARK VINA RESULT:      42.0      0.000      0.000
REMARK  2 active torsions:
REMARK  status: ('A' for Active; 'I' for Inactive)
REMARK    1  A    between atoms: C_10  and  N_1 
REMARK    2  A    between atoms: C_13  and  C_10 
ROOT
ATOM      1  N   UNL d   1      59.421  49.708  50.403  0.00  0.00    -0.260 N 
ATOM      2  C   UNL d   1      58.846  49.708  50.984  0.00  0.00     0.174 A 
ATOM      3  C   UNL d   1      59.414  49.708  49.584  0.00  0.00     0.348 A 
ATOM      4  N   UNL d   1      58.837  49.708  49.018  0.00  0.00    -0.216 NA
ATOM      5  C   UNL d   1      58.014  49.708  49.025  0.00  0.00     0.137 A 
ATOM      6  O   UNL d   1      58.032  49.708  50.995  0.00  0.00    -0.316 OA
ATOM      7  C   UNL d   1      58.745  49.708  49.823  0.00  0.00     0.079 A 
ATOM      8  C   UNL d   1      57.448  49.708  49.606  0.00  0.00     0.022 A 
ATOM      9  C   UNL d   1      57.455  49.708  50.416  0.00  0.00     0.094 A 
ATOM     10  O   UNL d   1      60.159  49.708  49.274  0.00  0.00    -0.245 OA
ATOM     11  C   UNL d   1      59.011  49.708  51.789  0.00  0.00     0.055 C 
ATOM     12  C   UNL d   1      56.742  49.708  49.193  0.00  0.00    -0.001 A 
ATOM     13  C   UNL d   1      56.738  49.708  50.825  0.00  0.00     0.024 A 
ATOM     14  C   UNL d   1      56.035  49.708  49.603  0.00  0.00    -0.000 A 
ATOM     15  C   UNL d   1      56.033  49.708  50.421  0.00  0.00     0.002 A 
ENDROOT
BRANCH   1  16
ATOM     16  C   UNL d   1      60.247  49.708  50.524  0.00  0.00     0.082 C 
BRANCH  16  17
ATOM     17  C   UNL d   1      60.586  49.184  51.103  0.00  0.00     0.017 A 
ATOM     18  C   UNL d   1      61.053  49.495  51.733  0.00  0.00     0.002 A 
ATOM     19  C   UNL d   1      61.391  48.972  52.312  0.00  0.00     0.000 A 
ATOM     20  C   UNL d   1      61.260  48.139  52.256  0.00  0.00     0.000 A 
ATOM     21  C   UNL d   1      60.787  47.822  51.617  0.00  0.00     0.000 A 
ATOM     22  C   UNL d   1      60.454  48.351  51.047  0.00  0.00     0.002 A 
ENDBRANCH  16  17
ENDBRANCH   1  16
TORSDOF 2
ENDMDL
