MODEL 1
REMARK VINA RESULT:      88.4      0.000      0.000
REMARK  4 active torsions:
REMARK  status: ('A' for Active; 'I' for Inactive)
REMARK    1  A    between atoms: N_7  and  C_1 
REMARK    2  A    between atoms: C_8  and  C_4 
REMARK    3  A    between atoms: C_10  and  N_7 
REMARK    4  A    between atoms: C_12  and  C_8 
ROOT
ATOM      1  C   UNL d   1      57.850  49.063  50.547  0.00  0.00     0.184 A 
ATOM      2  N   UNL d   1      57.931  48.419  51.061  0.00  0.00    -0.129 NA
ATOM      3  N   UNL d   1      57.413  47.778  51.003  0.00  0.00    -0.147 NA
ATOM      4  C   UNL d   1      56.812  47.772  50.433  0.00  0.00     0.103 A 
ATOM      5  C   UNL d   1      57.251  49.056  49.980  0.00  0.00     0.039 A 
ATOM      6  C   UNL d   1      56.734  48.415  49.922  0.00  0.00     0.022 A 
ATOM      7  C   UNL d   1      57.170  49.700  49.466  0.00  0.00     0.003 A 
ATOM      8  C   UNL d   1      56.132  48.414  49.348  0.00  0.00     0.002 A 
ATOM      9  C   UNL d   1      56.054  49.056  48.838  0.00  0.00     0.000 A 
ATOM     10  C   UNL d   1      56.574  49.701  48.897  0.00  0.00     0.000 A 
ENDROOT
BRANCH   1  11
ATOM     11  N   UNL d   1      58.364  49.708  50.599  0.00  0.00    -0.225 NA
BRANCH  11  12
ATOM     12  C   UNL d   1      59.166  49.578  50.738  0.00  0.00     0.083 A 
ATOM     13  C   UNL d   1      59.471  49.683  51.489  0.00  0.00     0.020 A 
ATOM     14  C   UNL d   1      60.268  49.557  51.638  0.00  0.00     0.013 A 
ATOM     15  C   UNL d   1      60.773  49.318  51.019  0.00  0.00     0.058 A 
ATOM     16  C   UNL d   1      60.461  49.212  50.261  0.00  0.00     0.013 A 
ATOM     17 CL   UNL d   1      61.578  49.189  51.164  0.00  0.00    -0.082 Cl
ATOM     18  C   UNL d   1      59.657  49.342  50.118  0.00  0.00     0.020 A 
ENDBRANCH  11  12
ENDBRANCH   1  11
BRANCH   4  19
ATOM     19  C   UNL d   1      56.294  47.130  50.374  0.00  0.00     0.021 C 
BRANCH  19  20
ATOM     20  C   UNL d   1      56.525  46.387  50.647  0.00  0.00     0.005 A 
ATOM     21  C   UNL d   1      56.033  45.966  51.157  0.00  0.00     0.021 A 
ATOM     22  C   UNL d   1      56.264  45.223  51.430  0.00  0.00     0.099 A 
ATOM     23  N   UNL d   1      56.987  44.901  51.193  0.00  0.00    -0.242 NA
ATOM     24  C   UNL d   1      57.481  45.332  50.676  0.00  0.00     0.099 A 
ATOM     25  C   UNL d   1      57.242  46.075  50.408  0.00  0.00     0.021 A 
ENDBRANCH  19  20
ENDBRANCH   4  19
TORSDOF 4
ENDMDL
MODEL 2
REMARK VINA RESULT:      89.3      2.195      3.908
REMARK  4 active torsions:
REMARK  status: ('A' for Active; 'I' for Inactive)
REMARK    1  A    between atoms: N_7  and  C_1 
REMARK    2  A    between atoms: C_8  and  C_4 
REMARK    3  A    between atoms: C_10  and  N_7 
REMARK    4  A    between atoms: C_12  and  C_8 
ROOT
ATOM      1  C   UNL d   1      60.717  47.914  51.270  0.00  0.00     0.184 A 
ATOM      2  N   UNL d   1      60.038  47.911  51.743  0.00  0.00    -0.129 NA
ATOM      3  N   UNL d   1      59.471  48.505  51.653  0.00  0.00    -0.147 NA
ATOM      4  C   UNL d   1      59.576  49.105  51.092  0.00  0.00     0.103 A 
ATOM      5  C   UNL d   1      60.820  48.513  50.712  0.00  0.00     0.039 A 
ATOM      6  C   UNL d   1      60.253  49.107  50.622  0.00  0.00     0.022 A 
ATOM      7  C   UNL d   1      61.500  48.515  50.239  0.00  0.00     0.003 A 
ATOM      8  C   UNL d   1      60.363  49.707  50.059  0.00  0.00     0.002 A 
ATOM      9  C   UNL d   1      61.040  49.708  49.589  0.00  0.00     0.000 A 
ATOM     10  C   UNL d   1      61.611  49.110  49.680  0.00  0.00     0.000 A 
ENDROOT
BRANCH   1  11
ATOM     11  N   UNL d   1      61.289  47.323  51.354  0.00  0.00    -0.225 NA
BRANCH  11  12
ATOM     12  C   UNL d   1      61.354  46.736  50.779  0.00  0.00     0.083 A 
ATOM     13  C   UNL d   1      62.039  46.673  50.338  0.00  0.00     0.020 A 
ATOM     14  C   UNL d   1      62.114  46.091  49.763  0.00  0.00     0.013 A 
ATOM     15  C   UNL d   1      61.487  45.560  49.627  0.00  0.00     0.058 A 
ATOM     16  C   UNL d   1      60.796  45.627  50.074  0.00  0.00     0.013 A 
ATOM     17 CL   UNL d   1      61.558  44.972  49.048  0.00  0.00    -0.082 Cl
ATOM     18  C   UNL d   1      60.727  46.215  50.652  0.00  0.00     0.020 A 
ENDBRANCH  11  12
ENDBRANCH   1  11
BRANCH   4  19
ATOM     19  C   UNL d   1      59.008  49.700  51.002  0.00  0.00     0.021 C 
BRANCH  19  20
ATOM     20  C   UNL d   1      58.238  49.506  50.778  0.00  0.00     0.005 A 
ATOM     21  C   UNL d   1      57.742  49.118  51.309  0.00  0.00     0.021 A 
ATOM     22  C   UNL d   1      56.972  48.924  51.086  0.00  0.00     0.099 A 
ATOM     23  N   UNL d   1      56.700  49.118  50.331  0.00  0.00    -0.242 NA
ATOM     24  C   UNL d   1      57.207  49.512  49.797  0.00  0.00     0.099 A 
ATOM     25  C   UNL d   1      57.976  49.702  50.030  0.00  0.00     0.021 A 
ENDBRANCH  19  20
ENDBRANCH   4  19
TORSDOF 4
ENDMDL
