MODEL 1
REMARK VINA RESULT:      -7.8      0.000      0.000
REMARK  2 active torsions:
REMARK  status: ('A' for Active; 'I' for Inactive)
REMARK    1  A    between atoms: N_9  and  C_3 
REMARK    2  A    between atoms: C_11  and  C_4 
ROOT
ATOM      1  N   UNL d   1     -47.282  12.285  22.800  0.00  0.00    -0.196 N 
ATOM      2  C   UNL d   1     -47.898  12.858  22.676  0.00  0.00     0.167 A 
ATOM      3  C   UNL d   1     -46.536  12.547  22.965  0.00  0.00     0.153 A 
ATOM      4  C   UNL d   1     -48.654  12.614  22.509  0.00  0.00     0.057 A 
ATOM      5  N   UNL d   1     -48.224  11.242  22.578  0.00  0.00    -0.161 NA
ATOM      6  N   UNL d   1     -47.729  13.656  22.727  0.00  0.00    -0.227 NA
ATOM      7  C   UNL d   1     -46.355  13.349  23.018  0.00  0.00     0.057 A 
ATOM      8  C   UNL d   1     -48.822  11.798  22.458  0.00  0.00     0.124 A 
ATOM      9  C   UNL d   1     -46.962  13.913  22.897  0.00  0.00     0.086 A 
ATOM     10  C   UNL d   1     -46.783  14.753  22.951  0.00  0.00     0.021 C 
ENDROOT
BRANCH   4  11
ATOM     11  C   UNL d   1     -49.252  13.169  22.389  0.00  0.00     0.005 A 
ATOM     12  C   UNL d   1     -49.717  13.405  23.016  0.00  0.00     0.001 A 
ATOM     13  C   UNL d   1     -50.315  13.961  22.896  0.00  0.00     0.011 A 
ATOM     14  C   UNL d   1     -50.438  14.271  22.153  0.00  0.00     0.058 A 
ATOM     15  C   UNL d   1     -49.963  14.026  21.528  0.00  0.00     0.011 A 
ATOM     16 CL   UNL d   1     -51.064  14.854  22.027  0.00  0.00    -0.082 Cl
ATOM     17  C   UNL d   1     -49.374  13.479  21.646  0.00  0.00     0.001 A 
ENDBRANCH   4  11
BRANCH   3  18
ATOM     18  N   UNL d   1     -45.910  11.971  23.090  0.00  0.00    -0.285 N 
ATOM     19  C   UNL d   1     -46.058  11.277  23.573  0.00  0.00     0.108 A 
ATOM     20  C   UNL d   1     -45.436  10.709  23.695  0.00  0.00     0.142 A 
ATOM     21  O   UNL d   1     -44.653  10.822  23.336  0.00  0.00    -0.300 OA
ATOM     22  C   UNL d   1     -44.526  11.526  22.855  0.00  0.00     0.142 A 
ATOM     23  C   UNL d   1     -45.147  12.094  22.733  0.00  0.00     0.108 A 
ENDBRANCH   3  18
TORSDOF 2
ENDMDL
MODEL 2
REMARK VINA RESULT:      -7.6      7.939      9.022
REMARK  2 active torsions:
REMARK  status: ('A' for Active; 'I' for Inactive)
REMARK    1  A    between atoms: N_9  and  C_3 
REMARK    2  A    between atoms: C_11  and  C_4 
ROOT
ATOM      1  N   UNL d   1     -39.239  14.540  20.473  0.00  0.00    -0.196 N 
ATOM      2  C   UNL d   1     -39.701  14.821  19.816  0.00  0.00     0.167 A 
ATOM      3  C   UNL d   1     -39.477  14.724  21.222  0.00  0.00     0.153 A 
ATOM      4  C   UNL d   1     -39.476  14.646  19.056  0.00  0.00     0.057 A 
ATOM      5  N   UNL d   1     -38.343  13.917  19.559  0.00  0.00    -0.161 NA
ATOM      6  N   UNL d   1     -40.371  15.268  19.951  0.00  0.00    -0.227 NA
ATOM      7  C   UNL d   1     -40.152  15.173  21.370  0.00  0.00     0.057 A 
ATOM      8  C   UNL d   1     -38.791  14.190  18.922  0.00  0.00     0.124 A 
ATOM      9  C   UNL d   1     -40.607  15.450  20.723  0.00  0.00     0.086 A 
ATOM     10  C   UNL d   1     -41.313  15.921  20.866  0.00  0.00     0.021 C 
ENDROOT
BRANCH   4  11
ATOM     11  C   UNL d   1     -39.924  14.919  18.419  0.00  0.00     0.005 A 
ATOM     12  C   UNL d   1     -39.763  15.649  18.094  0.00  0.00     0.001 A 
ATOM     13  C   UNL d   1     -40.211  15.921  17.457  0.00  0.00     0.011 A 
ATOM     14  C   UNL d   1     -40.813  15.460  17.156  0.00  0.00     0.058 A 
ATOM     15  C   UNL d   1     -40.966  14.726  17.492  0.00  0.00     0.011 A 
ATOM     16 CL   UNL d   1     -41.282  15.746  16.488  0.00  0.00    -0.082 Cl
ATOM     17  C   UNL d   1     -40.525  14.457  18.119  0.00  0.00     0.001 A 
ENDBRANCH   4  11
BRANCH   3  18
ATOM     18  N   UNL d   1     -39.013  14.441  21.888  0.00  0.00    -0.285 N 
ATOM     19  C   UNL d   1     -38.397  14.937  22.221  0.00  0.00     0.108 A 
ATOM     20  C   UNL d   1     -37.940  14.654  22.881  0.00  0.00     0.142 A 
ATOM     21  O   UNL d   1     -38.088  13.869  23.221  0.00  0.00    -0.300 OA
ATOM     22  C   UNL d   1     -38.711  13.387  22.872  0.00  0.00     0.142 A 
ATOM     23  C   UNL d   1     -39.169  13.670  22.213  0.00  0.00     0.108 A 
ENDBRANCH   3  18
TORSDOF 2
ENDMDL
MODEL 3
REMARK VINA RESULT:      -7.6      2.448      4.651
REMARK  2 active torsions:
REMARK  status: ('A' for Active; 'I' for Inactive)
REMARK    1  A    between atoms: N_9  and  C_3 
REMARK    2  A    between atoms: C_11  and  C_4 
ROOT
ATOM      1  N   UNL d   1     -48.494  14.069  22.949  0.00  0.00    -0.196 N 
ATOM      2  C   UNL d   1     -47.907  13.453  22.963  0.00  0.00     0.167 A 
ATOM      3  C   UNL d   1     -49.275  13.861  22.945  0.00  0.00     0.153 A 
ATOM      4  C   UNL d   1     -47.118  13.643  22.967  0.00  0.00     0.057 A 
ATOM      5  N   UNL d   1     -47.456  15.042  22.942  0.00  0.00    -0.161 NA
ATOM      6  N   UNL d   1     -48.139  12.670  22.974  0.00  0.00    -0.227 NA
ATOM      7  C   UNL d   1     -49.519  13.074  22.956  0.00  0.00     0.057 A 
ATOM      8  C   UNL d   1     -46.886  14.445  22.956  0.00  0.00     0.124 A 
ATOM      9  C   UNL d   1     -48.941  12.468  22.970  0.00  0.00     0.086 A 
ATOM     10  C   UNL d   1     -49.185  11.643  22.981  0.00  0.00     0.021 C 
ENDROOT
BRANCH   4  11
ATOM     11  C   UNL d   1     -46.549  13.046  22.981  0.00  0.00     0.005 A 
ATOM     12  C   UNL d   1     -46.453  12.594  23.652  0.00  0.00     0.001 A 
ATOM     13  C   UNL d   1     -45.884  11.997  23.666  0.00  0.00     0.011 A 
ATOM     14  C   UNL d   1     -45.420  11.863  23.009  0.00  0.00     0.058 A 
ATOM     15  C   UNL d   1     -45.526  12.325  22.338  0.00  0.00     0.011 A 
ATOM     16 CL   UNL d   1     -44.823  11.237  23.024  0.00  0.00    -0.082 Cl
ATOM     17  C   UNL d   1     -46.086  12.913  22.324  0.00  0.00     0.001 A 
ENDBRANCH   4  11
BRANCH   3  18
ATOM     18  N   UNL d   1     -49.871  14.481  22.931  0.00  0.00    -0.285 N 
ATOM     19  C   UNL d   1     -50.314  14.631  22.211  0.00  0.00     0.108 A 
ATOM     20  C   UNL d   1     -50.903  15.245  22.200  0.00  0.00     0.142 A 
ATOM     21  O   UNL d   1     -51.062  15.721  22.909  0.00  0.00    -0.300 OA
ATOM     22  C   UNL d   1     -50.606  15.555  23.621  0.00  0.00     0.142 A 
ATOM     23  C   UNL d   1     -50.017  14.941  23.632  0.00  0.00     0.108 A 
ENDBRANCH   3  18
TORSDOF 2
ENDMDL
MODEL 4
REMARK VINA RESULT:      -7.5      0.977      1.720
REMARK  2 active torsions:
REMARK  status: ('A' for Active; 'I' for Inactive)
REMARK    1  A    between atoms: N_9  and  C_3 
REMARK    2  A    between atoms: C_11  and  C_4 
ROOT
ATOM      1  N   UNL d   1     -47.193  12.933  23.126  0.00  0.00    -0.196 N 
ATOM      2  C   UNL d   1     -47.966  13.288  23.100  0.00  0.00     0.167 A 
ATOM      3  C   UNL d   1     -47.136  12.138  23.255  0.00  0.00     0.153 A 
ATOM      4  C   UNL d   1     -48.044  14.086  22.971  0.00  0.00     0.057 A 
ATOM      5  N   UNL d   1     -46.613  14.210  22.888  0.00  0.00    -0.161 NA
ATOM      6  N   UNL d   1     -48.631  12.825  23.206  0.00  0.00    -0.227 NA
ATOM      7  C   UNL d   1     -47.800  11.662  23.363  0.00  0.00     0.057 A 
ATOM      8  C   UNL d   1     -47.362  14.555  22.864  0.00  0.00     0.124 A 
ATOM      9  C   UNL d   1     -48.561  12.012  23.338  0.00  0.00     0.086 A 
ATOM     10  C   UNL d   1     -49.260  11.524  23.449  0.00  0.00     0.021 C 
ENDROOT
BRANCH   4  11
ATOM     11  C   UNL d   1     -48.793  14.430  22.946  0.00  0.00     0.005 A 
ATOM     12  C   UNL d   1     -49.123  14.732  23.628  0.00  0.00     0.001 A 
ATOM     13  C   UNL d   1     -49.872  15.076  23.603  0.00  0.00     0.011 A 
ATOM     14  C   UNL d   1     -50.279  15.113  22.897  0.00  0.00     0.058 A 
ATOM     15  C   UNL d   1     -49.936  14.805  22.217  0.00  0.00     0.011 A 
ATOM     16 CL   UNL d   1     -51.064  15.474  22.872  0.00  0.00    -0.082 Cl
ATOM     17  C   UNL d   1     -49.199  14.466  22.241  0.00  0.00     0.001 A 
ENDBRANCH   4  11
BRANCH   3  18
ATOM     18  N   UNL d   1     -46.356  11.776  23.281  0.00  0.00    -0.285 N 
ATOM     19  C   UNL d   1     -46.249  11.020  23.674  0.00  0.00     0.108 A 
ATOM     20  C   UNL d   1     -45.477  10.664  23.698  0.00  0.00     0.142 A 
ATOM     21  O   UNL d   1     -44.795  11.057  23.330  0.00  0.00    -0.300 OA
ATOM     22  C   UNL d   1     -44.923  11.815  22.941  0.00  0.00     0.142 A 
ATOM     23  C   UNL d   1     -45.696  12.170  22.917  0.00  0.00     0.108 A 
ENDBRANCH   3  18
TORSDOF 2
ENDMDL
MODEL 5
REMARK VINA RESULT:      -7.1      8.612     10.459
REMARK  2 active torsions:
REMARK  status: ('A' for Active; 'I' for Inactive)
REMARK    1  A    between atoms: N_9  and  C_3 
REMARK    2  A    between atoms: C_11  and  C_4 
ROOT
ATOM      1  N   UNL d   1     -39.400  14.799  18.642  0.00  0.00    -0.196 N 
ATOM      2  C   UNL d   1     -39.249  14.737  17.806  0.00  0.00     0.167 A 
ATOM      3  C   UNL d   1     -40.120  15.071  18.886  0.00  0.00     0.153 A 
ATOM      4  C   UNL d   1     -38.531  14.466  17.542  0.00  0.00     0.057 A 
ATOM      5  N   UNL d   1     -38.090  14.310  18.902  0.00  0.00    -0.161 NA
ATOM      6  N   UNL d   1     -39.828  14.950  17.271  0.00  0.00    -0.227 NA
ATOM      7  C   UNL d   1     -40.711  15.289  18.354  0.00  0.00     0.057 A 
ATOM      8  C   UNL d   1     -37.943  14.250  18.093  0.00  0.00     0.124 A 
ATOM      9  C   UNL d   1     -40.562  15.227  17.532  0.00  0.00     0.086 A 
ATOM     10  C   UNL d   1     -41.172  15.452  16.968  0.00  0.00     0.021 C 
ENDROOT
BRANCH   4  11
ATOM     11  C   UNL d   1     -38.385  14.406  16.732  0.00  0.00     0.005 A 
ATOM     12  C   UNL d   1     -38.540  13.707  16.344  0.00  0.00     0.001 A 
ATOM     13  C   UNL d   1     -38.393  13.647  15.534  0.00  0.00     0.011 A 
ATOM     14  C   UNL d   1     -38.093  14.286  15.127  0.00  0.00     0.058 A 
ATOM     15  C   UNL d   1     -37.940  14.986  15.529  0.00  0.00     0.011 A 
ATOM     16 CL   UNL d   1     -37.940  14.223  14.278  0.00  0.00    -0.082 Cl
ATOM     17  C   UNL d   1     -38.085  15.046  16.326  0.00  0.00     0.001 A 
ENDBRANCH   4  11
BRANCH   3  18
ATOM     18  N   UNL d   1     -40.277  15.135  19.729  0.00  0.00    -0.285 N 
ATOM     19  C   UNL d   1     -40.045  15.844  20.154  0.00  0.00     0.108 A 
ATOM     20  C   UNL d   1     -40.202  15.904  20.989  0.00  0.00     0.142 A 
ATOM     21  O   UNL d   1     -40.594  15.256  21.416  0.00  0.00    -0.300 OA
ATOM     22  C   UNL d   1     -40.818  14.554  20.970  0.00  0.00     0.142 A 
ATOM     23  C   UNL d   1     -40.662  14.494  20.136  0.00  0.00     0.108 A 
ENDBRANCH   3  18
TORSDOF 2
ENDMDL
MODEL 6
REMARK VINA RESULT:      -6.6      2.514      4.358
REMARK  2 active torsions:
REMARK  status: ('A' for Active; 'I' for Inactive)
REMARK    1  A    between atoms: N_9  and  C_3 
REMARK    2  A    between atoms: C_11  and  C_4 
ROOT
ATOM      1  N   UNL d   1     -48.792  13.419  23.118  0.00  0.00    -0.196 N 
ATOM      2  C   UNL d   1     -48.052  12.998  23.118  0.00  0.00     0.167 A 
ATOM      3  C   UNL d   1     -48.809  14.173  22.829  0.00  0.00     0.153 A 
ATOM      4  C   UNL d   1     -48.016  12.239  23.404  0.00  0.00     0.057 A 
ATOM      5  N   UNL d   1     -49.424  12.283  23.697  0.00  0.00    -0.161 NA
ATOM      6  N   UNL d   1     -47.378  13.358  22.830  0.00  0.00    -0.227 NA
ATOM      7  C   UNL d   1     -48.135  14.546  22.536  0.00  0.00     0.057 A 
ATOM      8  C   UNL d   1     -48.707  11.875  23.698  0.00  0.00     0.124 A 
ATOM      9  C   UNL d   1     -47.406  14.131  22.537  0.00  0.00     0.086 A 
ATOM     10  C   UNL d   1     -46.697  14.512  22.234  0.00  0.00     0.021 C 
ENDROOT
BRANCH   4  11
ATOM     11  C   UNL d   1     -47.299  11.831  23.405  0.00  0.00     0.005 A 
ATOM     12  C   UNL d   1     -46.626  12.195  23.685  0.00  0.00     0.001 A 
ATOM     13  C   UNL d   1     -45.909  11.787  23.686  0.00  0.00     0.011 A 
ATOM     14  C   UNL d   1     -45.877  11.022  23.406  0.00  0.00     0.058 A 
ATOM     15  C   UNL d   1     -46.562  10.665  23.126  0.00  0.00     0.011 A 
ATOM     16 CL   UNL d   1     -45.125  10.594  23.407  0.00  0.00    -0.082 Cl
ATOM     17  C   UNL d   1     -47.268  11.067  23.125  0.00  0.00     0.001 A 
ENDBRANCH   4  11
BRANCH   3  18
ATOM     18  N   UNL d   1     -49.554  14.601  22.827  0.00  0.00    -0.285 N 
ATOM     19  C   UNL d   1     -49.689  15.228  23.397  0.00  0.00     0.108 A 
ATOM     20  C   UNL d   1     -50.428  15.650  23.392  0.00  0.00     0.142 A 
ATOM     21  O   UNL d   1     -51.048  15.454  22.816  0.00  0.00    -0.300 OA
ATOM     22  C   UNL d   1     -50.893  14.821  22.252  0.00  0.00     0.142 A 
ATOM     23  C   UNL d   1     -50.154  14.399  22.258  0.00  0.00     0.108 A 
ENDBRANCH   3  18
TORSDOF 2
ENDMDL
MODEL 7
REMARK VINA RESULT:      -5.6      2.461      4.546
REMARK  2 active torsions:
REMARK  status: ('A' for Active; 'I' for Inactive)
REMARK    1  A    between atoms: N_9  and  C_3 
REMARK    2  A    between atoms: C_11  and  C_4 
ROOT
ATOM      1  N   UNL d   1     -48.148  13.668  22.629  0.00  0.00    -0.196 N 
ATOM      2  C   UNL d   1     -47.402  13.268  22.542  0.00  0.00     0.167 A 
ATOM      3  C   UNL d   1     -48.799  13.235  22.831  0.00  0.00     0.153 A 
ATOM      4  C   UNL d   1     -46.737  13.686  22.340  0.00  0.00     0.057 A 
ATOM      5  N   UNL d   1     -47.512  14.897  22.301  0.00  0.00    -0.161 NA
ATOM      6  N   UNL d   1     -47.356  12.461  22.664  0.00  0.00    -0.227 NA
ATOM      7  C   UNL d   1     -48.764  12.421  22.956  0.00  0.00     0.057 A 
ATOM      8  C   UNL d   1     -46.789  14.510  22.217  0.00  0.00     0.124 A 
ATOM      9  C   UNL d   1     -48.029  12.027  22.870  0.00  0.00     0.086 A 
ATOM     10  C   UNL d   1     -47.982  11.178  22.998  0.00  0.00     0.021 C 
ENDROOT
BRANCH   4  11
ATOM     11  C   UNL d   1     -46.014  13.298  22.256  0.00  0.00     0.005 A 
ATOM     12  C   UNL d   1     -45.769  13.052  21.518  0.00  0.00     0.001 A 
ATOM     13  C   UNL d   1     -45.046  12.664  21.434  0.00  0.00     0.011 A 
ATOM     14  C   UNL d   1     -44.580  12.529  22.089  0.00  0.00     0.058 A 
ATOM     15  C   UNL d   1     -44.836  12.781  22.828  0.00  0.00     0.011 A 
ATOM     16 CL   UNL d   1     -43.821  12.122  22.001  0.00  0.00    -0.082 Cl
ATOM     17  C   UNL d   1     -45.548  13.163  22.911  0.00  0.00     0.001 A 
ENDBRANCH   4  11
BRANCH   3  18
ATOM     18  N   UNL d   1     -49.555  13.636  22.919  0.00  0.00    -0.285 N 
ATOM     19  C   UNL d   1     -50.178  13.505  22.344  0.00  0.00     0.108 A 
ATOM     20  C   UNL d   1     -50.925  13.904  22.435  0.00  0.00     0.142 A 
ATOM     21  O   UNL d   1     -51.064  14.442  23.103  0.00  0.00    -0.300 OA
ATOM     22  C   UNL d   1     -50.425  14.559  23.669  0.00  0.00     0.142 A 
ATOM     23  C   UNL d   1     -49.678  14.161  23.578  0.00  0.00     0.108 A 
ENDBRANCH   3  18
TORSDOF 2
ENDMDL
