MODEL 1
REMARK VINA RESULT:     103.3      0.000      0.000
REMARK  10 active torsions:
REMARK  status: ('A' for Active; 'I' for Inactive)
REMARK    1  A    between atoms: C_16  and  N_1 
REMARK    2  A    between atoms: S_10  and  C_2 
REMARK    3  A    between atoms: N_8  and  C_9 
REMARK    4  A    between atoms: C_18  and  S_10 
REMARK    5  A    between atoms: C_12  and  C_18 
REMARK       I    between atoms: N_19  and  C_12 
REMARK    6  A    between atoms: C_27  and  C_16 
REMARK    7  A    between atoms: C_25  and  N_19 
REMARK    8  A    between atoms: O_22  and  C_26 
REMARK    9  A    between atoms: C_26  and  C_25 
REMARK   10  A    between atoms: C_29  and  C_27 
ROOT
ATOM      1  N   UNL d   1      60.913  47.250  51.214  0.00  0.00    -0.253 N 
ATOM      2  C   UNL d   1      60.857  47.451  50.409  0.00  0.00     0.182 A 
ATOM      3  C   UNL d   1      61.156  46.499  51.439  0.00  0.00     0.268 A 
ATOM      4  C   UNL d   1      61.342  45.948  50.850  0.00  0.00     0.076 A 
ATOM      5  N   UNL d   1      61.043  46.901  49.834  0.00  0.00    -0.222 NA
ATOM      6  C   UNL d   1      61.286  46.147  50.053  0.00  0.00     0.088 A 
ATOM      7  C   UNL d   1      61.582  45.203  51.081  0.00  0.00     0.024 A 
ATOM      8  C   UNL d   1      61.774  44.635  50.500  0.00  0.00     0.065 A 
ATOM      9  O   UNL d   1      61.211  46.299  52.237  0.00  0.00    -0.267 OA
ATOM     10  C   UNL d   1      61.474  45.593  49.476  0.00  0.00     0.021 A 
ATOM     11  C   UNL d   1      61.714  44.847  49.697  0.00  0.00     0.019 A 
ENDROOT
BRANCH   2  12
ATOM     12  S   UNL d   1      60.609  48.220  50.194  0.00  0.00    -0.044 SA
BRANCH  12  13
ATOM     13  C   UNL d   1      59.958  48.311  49.697  0.00  0.00     0.101 C 
BRANCH  13  14
ATOM     14  C   UNL d   1      59.411  48.920  49.822  0.00  0.00     0.286 C 
ATOM     15  O   UNL d   1      59.660  49.689  49.931  0.00  0.00    -0.265 OA
ATOM     16  N   UNL d   1      58.601  48.757  49.839  0.00  0.00    -0.204 NA
BRANCH  16  17
ATOM     17  C   UNL d   1      58.042  49.370  49.965  0.00  0.00     0.129 C 
BRANCH  17  18
ATOM     18  C   UNL d   1      57.284  49.273  49.696  0.00  0.00     0.137 C 
BRANCH  18  19
ATOM     19  O   UNL d   1      56.675  49.706  50.041  0.00  0.00    -0.325 OA
ATOM     20  C   UNL d   1      56.352  49.459  50.755  0.00  0.00     0.182 C 
ENDBRANCH  18  19
ENDBRANCH  17  18
ENDBRANCH  16  17
ENDBRANCH  13  14
ENDBRANCH  12  13
ENDBRANCH   2  12
BRANCH   1  21
ATOM     21  C   UNL d   1      60.721  47.819  51.796  0.00  0.00     0.085 C 
BRANCH  21  22
ATOM     22  C   UNL d   1      61.317  48.247  52.152  0.00  0.00     0.019 C 
BRANCH  22  23
ATOM     23  C   UNL d   1      61.237  49.058  52.252  0.00  0.00     0.002 C 
ATOM     24  C   UNL d   1      61.400  49.405  52.991  0.00  0.00     0.000 C 
ENDBRANCH  22  23
ENDBRANCH  21  22
ENDBRANCH   1  21
BRANCH   8  25
ATOM     25  N   UNL d   1      62.018  43.880  50.719  0.00  0.00    -0.300 N 
ATOM     26  C   UNL d   1      62.362  43.386  50.151  0.00  0.00     0.107 A 
ATOM     27  C   UNL d   1      62.606  42.627  50.378  0.00  0.00     0.142 A 
ATOM     28  O   UNL d   1      62.507  42.365  51.161  0.00  0.00    -0.300 OA
ATOM     29  C   UNL d   1      62.161  42.868  51.720  0.00  0.00     0.142 A 
ATOM     30  C   UNL d   1      61.912  43.629  51.509  0.00  0.00     0.107 A 
ENDBRANCH   8  25
TORSDOF 10
ENDMDL
