MODEL 1
REMARK VINA RESULT:      -4.9      0.000      0.000
REMARK  3 active torsions:
REMARK  status: ('A' for Active; 'I' for Inactive)
REMARK       I    between atoms: C_2  and  N_1 
REMARK    1  A    between atoms: C_3  and  C_2 
REMARK    2  A    between atoms: S_5  and  C_3 
REMARK    3  A    between atoms: C_7  and  S_5 
ROOT
ATOM      1  C   UNL d   1     -41.415-122.627 -51.935  0.00  0.00     0.125 C 
ENDROOT
BRANCH   1   2
ATOM      2  C   UNL d   1     -41.283-122.211 -52.635  0.00  0.00     0.259 C 
ATOM      3  N   UNL d   1     -41.310-122.606 -53.367  0.00  0.00    -0.268 N 
ATOM      4  C   UNL d   1     -41.471-123.416 -53.381  0.00  0.00     0.110 A 
ATOM      5  C   UNL d   1     -41.180-122.200 -54.071  0.00  0.00     0.110 A 
ATOM      6  C   UNL d   1     -41.500-123.817 -54.101  0.00  0.00     0.142 A 
ATOM      7  O   UNL d   1     -41.369-123.411 -54.806  0.00  0.00    -0.300 OA
ATOM      8  C   UNL d   1     -41.209-122.602 -54.792  0.00  0.00     0.142 A 
ATOM      9  O   UNL d   1     -41.123-121.398 -52.618  0.00  0.00    -0.267 OA
ENDBRANCH   1   2
BRANCH   1  10
ATOM     10  S   UNL d   1     -41.424-122.219 -51.225  0.00  0.00    -0.095 SA
BRANCH  10  11
ATOM     11  C   UNL d   1     -41.749-122.572 -50.553  0.00  0.00     0.029 A 
ATOM     12  C   UNL d   1     -41.333-123.163 -50.157  0.00  0.00     0.007 A 
ATOM     13  C   UNL d   1     -41.658-123.515 -49.485  0.00  0.00     0.012 A 
ATOM     14  C   UNL d   1     -42.398-123.276 -49.211  0.00  0.00     0.058 A 
ATOM     15  C   UNL d   1     -42.814-122.685 -49.608  0.00  0.00     0.012 A 
ATOM     16 CL   UNL d   1     -42.734-123.621 -48.541  0.00  0.00    -0.082 Cl
ATOM     17  C   UNL d   1     -42.489-122.332 -50.280  0.00  0.00     0.007 A 
ENDBRANCH  10  11
ENDBRANCH   1  10
TORSDOF 3
ENDMDL
MODEL 2
REMARK VINA RESULT:      -4.1      2.335      4.223
REMARK  3 active torsions:
REMARK  status: ('A' for Active; 'I' for Inactive)
REMARK       I    between atoms: C_2  and  N_1 
REMARK    1  A    between atoms: C_3  and  C_2 
REMARK    2  A    between atoms: S_5  and  C_3 
REMARK    3  A    between atoms: C_7  and  S_5 
ROOT
ATOM      1  C   UNL d   1     -41.804-122.744 -51.178  0.00  0.00     0.125 C 
ENDROOT
BRANCH   1   2
ATOM      2  C   UNL d   1     -41.711-122.562 -50.379  0.00  0.00     0.259 C 
ATOM      3  N   UNL d   1     -42.206-122.915 -49.810  0.00  0.00    -0.268 N 
ATOM      4  C   UNL d   1     -42.787-123.447 -50.057  0.00  0.00     0.110 A 
ATOM      5  C   UNL d   1     -42.121-122.739 -49.010  0.00  0.00     0.110 A 
ATOM      6  C   UNL d   1     -43.283-123.802 -49.501  0.00  0.00     0.142 A 
ATOM      7  O   UNL d   1     -43.198-123.627 -48.701  0.00  0.00    -0.300 OA
ATOM      8  C   UNL d   1     -42.617-123.095 -48.454  0.00  0.00     0.142 A 
ATOM      9  O   UNL d   1     -41.127-122.028 -50.134  0.00  0.00    -0.267 OA
ENDBRANCH   1   2
BRANCH   1  10
ATOM     10  S   UNL d   1     -41.208-122.546 -51.703  0.00  0.00    -0.095 SA
BRANCH  10  11
ATOM     11  C   UNL d   1     -41.296-122.716 -52.506  0.00  0.00     0.029 A 
ATOM     12  C   UNL d   1     -41.557-122.130 -53.025  0.00  0.00     0.007 A 
ATOM     13  C   UNL d   1     -41.644-122.300 -53.827  0.00  0.00     0.012 A 
ATOM     14  C   UNL d   1     -41.471-123.054 -54.110  0.00  0.00     0.058 A 
ATOM     15  C   UNL d   1     -41.210-123.641 -53.592  0.00  0.00     0.012 A 
ATOM     16 CL   UNL d   1     -41.555-123.237 -54.911  0.00  0.00    -0.082 Cl
ATOM     17  C   UNL d   1     -41.123-123.471 -52.789  0.00  0.00     0.007 A 
ENDBRANCH  10  11
ENDBRANCH   1  10
TORSDOF 3
ENDMDL
MODEL 3
REMARK VINA RESULT:      -4.1      2.296      4.138
REMARK  3 active torsions:
REMARK  status: ('A' for Active; 'I' for Inactive)
REMARK       I    between atoms: C_2  and  N_1 
REMARK    1  A    between atoms: C_3  and  C_2 
REMARK    2  A    between atoms: S_5  and  C_3 
REMARK    3  A    between atoms: C_7  and  S_5 
ROOT
ATOM      1  C   UNL d   1     -41.532-122.611 -51.940  0.00  0.00     0.125 C 
ENDROOT
BRANCH   1   2
ATOM      2  C   UNL d   1     -41.505-122.291 -51.180  0.00  0.00     0.259 C 
ATOM      3  N   UNL d   1     -41.863-122.692 -50.545  0.00  0.00    -0.268 N 
ATOM      4  C   UNL d   1     -42.244-123.412 -50.687  0.00  0.00     0.110 A 
ATOM      5  C   UNL d   1     -41.842-122.381 -49.782  0.00  0.00     0.110 A 
ATOM      6  C   UNL d   1     -42.602-123.817 -50.064  0.00  0.00     0.142 A 
ATOM      7  O   UNL d   1     -42.581-123.506 -49.302  0.00  0.00    -0.300 OA
ATOM      8  C   UNL d   1     -42.201-122.787 -49.160  0.00  0.00     0.142 A 
ATOM      9  O   UNL d   1     -41.123-121.569 -51.040  0.00  0.00    -0.267 OA
ENDBRANCH   1   2
BRANCH   1  10
ATOM     10  S   UNL d   1     -41.165-122.211 -52.553  0.00  0.00    -0.095 SA
BRANCH  10  11
ATOM     11  C   UNL d   1     -41.433-122.314 -53.327  0.00  0.00     0.029 A 
ATOM     12  C   UNL d   1     -41.161-122.949 -53.776  0.00  0.00     0.007 A 
ATOM     13  C   UNL d   1     -41.429-123.051 -54.550  0.00  0.00     0.012 A 
ATOM     14  C   UNL d   1     -41.968-122.518 -54.873  0.00  0.00     0.058 A 
ATOM     15  C   UNL d   1     -42.240-121.882 -54.424  0.00  0.00     0.012 A 
ATOM     16 CL   UNL d   1     -42.244-122.608 -55.646  0.00  0.00    -0.082 Cl
ATOM     17  C   UNL d   1     -41.973-121.780 -53.650  0.00  0.00     0.007 A 
ENDBRANCH  10  11
ENDBRANCH   1  10
TORSDOF 3
ENDMDL
MODEL 4
REMARK VINA RESULT:      -3.4      1.450      2.138
REMARK  3 active torsions:
REMARK  status: ('A' for Active; 'I' for Inactive)
REMARK       I    between atoms: C_2  and  N_1 
REMARK    1  A    between atoms: C_3  and  C_2 
REMARK    2  A    between atoms: S_5  and  C_3 
REMARK    3  A    between atoms: C_7  and  S_5 
ROOT
ATOM      1  C   UNL d   1     -41.584-123.057 -50.430  0.00  0.00     0.125 C 
ENDROOT
BRANCH   1   2
ATOM      2  C   UNL d   1     -41.635-123.104 -51.252  0.00  0.00     0.259 C 
ATOM      3  N   UNL d   1     -41.481-122.432 -51.719  0.00  0.00    -0.268 N 
ATOM      4  C   UNL d   1     -41.277-121.723 -51.349  0.00  0.00     0.110 A 
ATOM      5  C   UNL d   1     -41.529-122.470 -52.540  0.00  0.00     0.110 A 
ATOM      6  C   UNL d   1     -41.123-121.052 -51.803  0.00  0.00     0.142 A 
ATOM      7  O   UNL d   1     -41.171-121.089 -52.625  0.00  0.00    -0.300 OA
ATOM      8  C   UNL d   1     -41.375-121.798 -52.994  0.00  0.00     0.142 A 
ATOM      9  O   UNL d   1     -41.839-123.817 -51.620  0.00  0.00    -0.267 OA
ENDBRANCH   1   2
BRANCH   1  10
ATOM     10  S   UNL d   1     -41.678-123.737 -49.985  0.00  0.00    -0.095 SA
BRANCH  10  11
ATOM     11  C   UNL d   1     -41.822-123.681 -49.174  0.00  0.00     0.029 A 
ATOM     12  C   UNL d   1     -41.191-123.679 -48.644  0.00  0.00     0.007 A 
ATOM     13  C   UNL d   1     -41.334-123.623 -47.833  0.00  0.00     0.012 A 
ATOM     14  C   UNL d   1     -42.108-123.568 -47.554  0.00  0.00     0.058 A 
ATOM     15  C   UNL d   1     -42.740-123.570 -48.085  0.00  0.00     0.012 A 
ATOM     16 CL   UNL d   1     -42.265-123.511 -46.746  0.00  0.00    -0.082 Cl
ATOM     17  C   UNL d   1     -42.597-123.627 -48.896  0.00  0.00     0.007 A 
ENDBRANCH  10  11
ENDBRANCH   1  10
TORSDOF 3
ENDMDL
MODEL 5
REMARK VINA RESULT:      -2.8      1.327      1.974
REMARK  3 active torsions:
REMARK  status: ('A' for Active; 'I' for Inactive)
REMARK       I    between atoms: C_2  and  N_1 
REMARK    1  A    between atoms: C_3  and  C_2 
REMARK    2  A    between atoms: S_5  and  C_3 
REMARK    3  A    between atoms: C_7  and  S_5 
ROOT
ATOM      1  C   UNL d   1     -41.779-122.598 -53.217  0.00  0.00     0.125 C 
ENDROOT
BRANCH   1   2
ATOM      2  C   UNL d   1     -41.854-122.948 -53.960  0.00  0.00     0.259 C 
ATOM      3  N   UNL d   1     -42.077-122.489 -54.617  0.00  0.00    -0.268 N 
ATOM      4  C   UNL d   1     -42.220-121.682 -54.515  0.00  0.00     0.110 A 
ATOM      5  C   UNL d   1     -42.154-122.831 -55.363  0.00  0.00     0.110 A 
ATOM      6  C   UNL d   1     -42.441-121.219 -55.160  0.00  0.00     0.142 A 
ATOM      7  O   UNL d   1     -42.519-121.560 -55.906  0.00  0.00    -0.300 OA
ATOM      8  C   UNL d   1     -42.376-122.366 -56.009  0.00  0.00     0.142 A 
ATOM      9  O   UNL d   1     -41.709-123.758 -54.059  0.00  0.00    -0.267 OA
ENDBRANCH   1   2
BRANCH   1  10
ATOM     10  S   UNL d   1     -41.123-122.771 -52.759  0.00  0.00    -0.095 SA
BRANCH  10  11
ATOM     11  C   UNL d   1     -41.192-122.800 -51.937  0.00  0.00     0.029 A 
ATOM     12  C   UNL d   1     -41.248-122.102 -51.503  0.00  0.00     0.007 A 
ATOM     13  C   UNL d   1     -41.317-122.131 -50.682  0.00  0.00     0.012 A 
ATOM     14  C   UNL d   1     -41.331-122.858 -50.295  0.00  0.00     0.058 A 
ATOM     15  C   UNL d   1     -41.276-123.558 -50.729  0.00  0.00     0.012 A 
ATOM     16 CL   UNL d   1     -41.400-122.901 -49.474  0.00  0.00    -0.082 Cl
ATOM     17  C   UNL d   1     -41.206-123.529 -51.550  0.00  0.00     0.007 A 
ENDBRANCH  10  11
ENDBRANCH   1  10
TORSDOF 3
ENDMDL
