MODEL 1
REMARK VINA RESULT:       9.8      0.000      0.000
REMARK  4 active torsions:
REMARK  status: ('A' for Active; 'I' for Inactive)
REMARK       I    between atoms: C_2  and  N_1 
REMARK    1  A    between atoms: C_3  and  N_1 
REMARK       I    between atoms: N_6  and  C_2 
REMARK    2  A    between atoms: C_9  and  N_6 
REMARK    3  A    between atoms: C_10  and  C_9 
REMARK    4  A    between atoms: C_11  and  C_10 
ROOT
ATOM      1  N   UNL d   1     -57.433 -98.756 -43.747  0.00  0.00    -0.172 NA
ATOM      2  C   UNL d   1     -56.818 -98.968 -44.254  0.00  0.00     0.370 C 
ATOM      3  O   UNL d   1     -56.977 -99.181 -45.030  0.00  0.00    -0.242 OA
ATOM      4  N   UNL d   1     -56.036 -98.965 -43.976  0.00  0.00    -0.189 NA
ENDROOT
BRANCH   1   5
ATOM      5  C   UNL d   1     -58.213 -98.758 -44.024  0.00  0.00     0.167 A 
ATOM      6  N   UNL d   1     -58.363 -98.764 -44.831  0.00  0.00    -0.225 NA
ATOM      7  C   UNL d   1     -59.139 -98.767 -45.104  0.00  0.00     0.101 A 
ATOM      8  C   UNL d   1     -59.770 -98.764 -44.571  0.00  0.00     0.021 A 
ATOM      9  C   UNL d   1     -59.611 -98.759 -43.760  0.00  0.00     0.005 A 
ATOM     10  C   UNL d   1     -58.839 -98.756 -43.486  0.00  0.00     0.039 A 
ENDBRANCH   1   5
BRANCH   4  11
ATOM     11  C   UNL d   1     -55.421 -99.178 -44.483  0.00  0.00     0.104 C 
BRANCH  11  12
ATOM     12  C   UNL d   1     -54.908 -99.782 -44.266  0.00  0.00     0.021 C 
BRANCH  12  13
ATOM     13  C   UNL d   1     -54.913-100.494 -44.688  0.00  0.00     0.002 C 
ATOM     14  C   UNL d   1     -54.733-101.196 -44.305  0.00  0.00     0.000 C 
ENDBRANCH  12  13
ENDBRANCH  11  12
ENDBRANCH   4  11
TORSDOF 4
ENDMDL
