MODEL 1
REMARK VINA RESULT:      -7.2      0.000      0.000
REMARK  4 active torsions:
REMARK  status: ('A' for Active; 'I' for Inactive)
REMARK    1  A    between atoms: C_6  and  C_2 
REMARK    2  A    between atoms: O_7  and  C_6 
REMARK    3  A    between atoms: C_8  and  O_7 
REMARK    4  A    between atoms: O_14  and  C_9 
ROOT
ATOM      1  C   UNL d   1      51.723  34.265  53.204  0.00  0.00     0.161 C 
ENDROOT
BRANCH   1   2
ATOM      2  C   UNL d   1      52.363  33.885  53.531  0.00  0.00     0.188 A 
ATOM      3  N   UNL d   1      52.759  34.416  53.980  0.00  0.00    -0.224 NA
ATOM      4  C   UNL d   1      53.437  33.973  54.314  0.00  0.00     0.101 A 
ATOM      5  C   UNL d   1      53.403  33.214  54.045  0.00  0.00     0.101 A 
ATOM      6  C   UNL d   1      54.056  34.262  54.842  0.00  0.00     0.021 A 
ATOM      7  C   UNL d   1      53.986  32.690  54.286  0.00  0.00     0.021 A 
ATOM      8  N   UNL d   1      52.703  33.162  53.536  0.00  0.00    -0.224 NA
ATOM      9  C   UNL d   1      54.600  32.899  54.785  0.00  0.00     0.002 A 
ATOM     10  C   UNL d   1      54.634  33.658  55.054  0.00  0.00     0.002 A 
ENDBRANCH   1   2
BRANCH   1  11
ATOM     11  O   UNL d   1      51.038  33.834  52.982  0.00  0.00    -0.302 OA
BRANCH  11  12
ATOM     12  C   UNL d   1      50.360  34.223  52.688  0.00  0.00     0.100 A 
ATOM     13  C   UNL d   1      49.903  34.691  53.194  0.00  0.00     0.027 A 
ATOM     14  C   UNL d   1      49.233  35.083  52.927  0.00  0.00     0.026 A 
ATOM     15  C   UNL d   1      49.029  34.993  52.128  0.00  0.00     0.094 A 
ATOM     16  C   UNL d   1      49.484  34.526  51.621  0.00  0.00     0.026 A 
ATOM     17  C   UNL d   1      50.161  34.130  51.893  0.00  0.00     0.027 A 
BRANCH  15  18
ATOM     18  O   UNL d   1      48.350  35.382  51.833  0.00  0.00    -0.328 OA
ATOM     19  C   UNL d   1      47.484  35.805  51.735  0.00  0.00     0.181 C 
ENDBRANCH  15  18
ENDBRANCH  11  12
ENDBRANCH   1  11
TORSDOF 4
ENDMDL
MODEL 2
REMARK VINA RESULT:      -6.8      1.822      5.276
REMARK  4 active torsions:
REMARK  status: ('A' for Active; 'I' for Inactive)
REMARK    1  A    between atoms: C_6  and  C_2 
REMARK    2  A    between atoms: O_7  and  C_6 
REMARK    3  A    between atoms: C_8  and  O_7 
REMARK    4  A    between atoms: O_14  and  C_9 
ROOT
ATOM      1  C   UNL d   1      49.810  34.855  53.028  0.00  0.00     0.161 C 
ENDROOT
BRANCH   1   2
ATOM      2  C   UNL d   1      49.110  35.171  52.763  0.00  0.00     0.188 A 
ATOM      3  N   UNL d   1      48.826  35.650  53.337  0.00  0.00    -0.224 NA
ATOM      4  C   UNL d   1      48.076  35.971  53.018  0.00  0.00     0.101 A 
ATOM      5  C   UNL d   1      47.961  35.666  52.280  0.00  0.00     0.101 A 
ATOM      6  C   UNL d   1      47.525  36.520  53.394  0.00  0.00     0.021 A 
ATOM      7  C   UNL d   1      47.289  35.889  51.867  0.00  0.00     0.021 A 
ATOM      8  N   UNL d   1      48.637  35.147  52.119  0.00  0.00    -0.224 NA
ATOM      9  C   UNL d   1      46.728  36.405  52.166  0.00  0.00     0.002 A 
ATOM     10  C   UNL d   1      46.842  36.709  52.903  0.00  0.00     0.002 A 
ENDBRANCH   1   2
BRANCH   1  11
ATOM     11  O   UNL d   1      50.277  34.371  52.525  0.00  0.00    -0.302 OA
BRANCH  11  12
ATOM     12  C   UNL d   1      51.005  34.054  52.786  0.00  0.00     0.100 A 
ATOM     13  C   UNL d   1      51.707  34.466  52.642  0.00  0.00     0.027 A 
ATOM     14  C   UNL d   1      52.434  34.174  52.889  0.00  0.00     0.026 A 
ATOM     15  C   UNL d   1      52.439  33.447  53.290  0.00  0.00     0.094 A 
ATOM     16  C   UNL d   1      51.738  33.035  53.434  0.00  0.00     0.026 A 
ATOM     17  C   UNL d   1      51.005  33.331  53.184  0.00  0.00     0.027 A 
BRANCH  15  18
ATOM     18  O   UNL d   1      53.167  33.130  53.551  0.00  0.00    -0.328 OA
ATOM     19  C   UNL d   1      53.972  32.602  53.655  0.00  0.00     0.181 C 
ENDBRANCH  15  18
ENDBRANCH  11  12
ENDBRANCH   1  11
TORSDOF 4
ENDMDL
MODEL 3
REMARK VINA RESULT:      -6.3      2.345      5.121
REMARK  4 active torsions:
REMARK  status: ('A' for Active; 'I' for Inactive)
REMARK    1  A    between atoms: C_6  and  C_2 
REMARK    2  A    between atoms: O_7  and  C_6 
REMARK    3  A    between atoms: C_8  and  O_7 
REMARK    4  A    between atoms: O_14  and  C_9 
ROOT
ATOM      1  C   UNL d   1      52.487  32.655  53.117  0.00  0.00     0.161 C 
ENDROOT
BRANCH   1   2
ATOM      2  C   UNL d   1      51.907  33.126  52.797  0.00  0.00     0.188 A 
ATOM      3  N   UNL d   1      51.469  33.418  53.400  0.00  0.00    -0.224 NA
ATOM      4  C   UNL d   1      50.859  33.918  53.019  0.00  0.00     0.101 A 
ATOM      5  C   UNL d   1      50.971  33.893  52.221  0.00  0.00     0.101 A 
ATOM      6  C   UNL d   1      50.230  34.374  53.395  0.00  0.00     0.021 A 
ATOM      7  C   UNL d   1      50.461  34.323  51.743  0.00  0.00     0.021 A 
ATOM      8  N   UNL d   1      51.654  33.377  52.082  0.00  0.00    -0.224 NA
ATOM      9  C   UNL d   1      49.845  34.775  52.036  0.00  0.00     0.002 A 
ATOM     10  C   UNL d   1      49.733  34.800  52.833  0.00  0.00     0.002 A 
ENDBRANCH   1   2
BRANCH   1  11
ATOM     11  O   UNL d   1      52.787  31.998  52.689  0.00  0.00    -0.302 OA
BRANCH  11  12
ATOM     12  C   UNL d   1      52.965  31.277  53.074  0.00  0.00     0.100 A 
ATOM     13  C   UNL d   1      52.554  30.591  52.867  0.00  0.00     0.027 A 
ATOM     14  C   UNL d   1      52.711  29.871  53.231  0.00  0.00     0.026 A 
ATOM     15  C   UNL d   1      53.300  29.858  53.816  0.00  0.00     0.094 A 
ATOM     16  C   UNL d   1      53.711  30.544  54.023  0.00  0.00     0.026 A 
ATOM     17  C   UNL d   1      53.551  31.270  53.654  0.00  0.00     0.027 A 
BRANCH  15  18
ATOM     18  O   UNL d   1      53.478  29.138  54.201  0.00  0.00    -0.328 OA
ATOM     19  C   UNL d   1      53.563  28.417  54.844  0.00  0.00     0.181 C 
ENDBRANCH  15  18
ENDBRANCH  11  12
ENDBRANCH   1  11
TORSDOF 4
ENDMDL
MODEL 4
REMARK VINA RESULT:      -6.2      1.305      2.082
REMARK  4 active torsions:
REMARK  status: ('A' for Active; 'I' for Inactive)
REMARK    1  A    between atoms: C_6  and  C_2 
REMARK    2  A    between atoms: O_7  and  C_6 
REMARK    3  A    between atoms: C_8  and  O_7 
REMARK    4  A    between atoms: O_14  and  C_9 
ROOT
ATOM      1  C   UNL d   1      49.945  34.491  52.793  0.00  0.00     0.161 C 
ENDROOT
BRANCH   1   2
ATOM      2  C   UNL d   1      50.724  34.322  52.955  0.00  0.00     0.188 A 
ATOM      3  N   UNL d   1      50.811  33.527  52.933  0.00  0.00    -0.224 NA
ATOM      4  C   UNL d   1      51.656  33.384  53.111  0.00  0.00     0.101 A 
ATOM      5  C   UNL d   1      52.017  34.096  53.226  0.00  0.00     0.101 A 
ATOM      6  C   UNL d   1      52.072  32.629  53.163  0.00  0.00     0.021 A 
ATOM      7  C   UNL d   1      52.818  34.102  53.402  0.00  0.00     0.021 A 
ATOM      8  N   UNL d   1      51.406  34.703  53.124  0.00  0.00    -0.224 NA
ATOM      9  C   UNL d   1      53.269  33.423  53.466  0.00  0.00     0.002 A 
ATOM     10  C   UNL d   1      52.909  32.711  53.351  0.00  0.00     0.002 A 
ENDBRANCH   1   2
BRANCH   1  11
ATOM     11  O   UNL d   1      49.618  35.237  53.000  0.00  0.00    -0.302 OA
BRANCH  11  12
ATOM     12  C   UNL d   1      48.849  35.452  52.756  0.00  0.00     0.100 A 
ATOM     13  C   UNL d   1      48.355  35.863  53.276  0.00  0.00     0.027 A 
ATOM     14  C   UNL d   1      47.595  36.086  53.059  0.00  0.00     0.026 A 
ATOM     15  C   UNL d   1      47.338  35.883  52.296  0.00  0.00     0.094 A 
ATOM     16  C   UNL d   1      47.831  35.472  51.776  0.00  0.00     0.026 A 
ATOM     17  C   UNL d   1      48.599  35.248  51.997  0.00  0.00     0.027 A 
BRANCH  15  18
ATOM     18  O   UNL d   1      46.568  36.098  52.053  0.00  0.00    -0.328 OA
ATOM     19  C   UNL d   1      45.682  36.114  51.662  0.00  0.00     0.181 C 
ENDBRANCH  15  18
ENDBRANCH  11  12
ENDBRANCH   1  11
TORSDOF 4
ENDMDL
MODEL 5
REMARK VINA RESULT:      -6.1      1.798      2.385
REMARK  4 active torsions:
REMARK  status: ('A' for Active; 'I' for Inactive)
REMARK    1  A    between atoms: C_6  and  C_2 
REMARK    2  A    between atoms: O_7  and  C_6 
REMARK    3  A    between atoms: C_8  and  O_7 
REMARK    4  A    between atoms: O_14  and  C_9 
ROOT
ATOM      1  C   UNL d   1      52.389  32.755  52.609  0.00  0.00     0.161 C 
ENDROOT
BRANCH   1   2
ATOM      2  C   UNL d   1      52.741  32.126  52.985  0.00  0.00     0.188 A 
ATOM      3  N   UNL d   1      52.458  31.455  52.654  0.00  0.00    -0.224 NA
ATOM      4  C   UNL d   1      52.857  30.802  53.082  0.00  0.00     0.101 A 
ATOM      5  C   UNL d   1      53.348  31.123  53.635  0.00  0.00     0.101 A 
ATOM      6  C   UNL d   1      52.768  29.951  52.963  0.00  0.00     0.021 A 
ATOM      7  C   UNL d   1      53.785  30.615  54.108  0.00  0.00     0.021 A 
ATOM      8  N   UNL d   1      53.269  31.984  53.568  0.00  0.00    -0.224 NA
ATOM      9  C   UNL d   1      53.747  29.800  54.047  0.00  0.00     0.002 A 
ATOM     10  C   UNL d   1      53.256  29.479  53.494  0.00  0.00     0.002 A 
ENDBRANCH   1   2
BRANCH   1  11
ATOM     11  O   UNL d   1      52.092  33.404  53.051  0.00  0.00    -0.302 OA
BRANCH  11  12
ATOM     12  C   UNL d   1      51.386  33.791  52.826  0.00  0.00     0.100 A 
ATOM     13  C   UNL d   1      50.778  33.887  53.377  0.00  0.00     0.027 A 
ATOM     14  C   UNL d   1      50.076  34.264  53.179  0.00  0.00     0.026 A 
ATOM     15  C   UNL d   1      49.999  34.548  52.402  0.00  0.00     0.094 A 
ATOM     16  C   UNL d   1      50.606  34.453  51.851  0.00  0.00     0.026 A 
ATOM     17  C   UNL d   1      51.315  34.071  52.053  0.00  0.00     0.027 A 
BRANCH  15  18
ATOM     18  O   UNL d   1      49.293  34.936  52.177  0.00  0.00    -0.328 OA
ATOM     19  C   UNL d   1      48.518  35.260  51.694  0.00  0.00     0.181 C 
ENDBRANCH  15  18
ENDBRANCH  11  12
ENDBRANCH   1  11
TORSDOF 4
ENDMDL
MODEL 6
REMARK VINA RESULT:      -5.6      2.724      3.943
REMARK  4 active torsions:
REMARK  status: ('A' for Active; 'I' for Inactive)
REMARK    1  A    between atoms: C_6  and  C_2 
REMARK    2  A    between atoms: O_7  and  C_6 
REMARK    3  A    between atoms: C_8  and  O_7 
REMARK    4  A    between atoms: O_14  and  C_9 
ROOT
ATOM      1  C   UNL d   1      53.066  32.295  53.170  0.00  0.00     0.161 C 
ENDROOT
BRANCH   1   2
ATOM      2  C   UNL d   1      52.956  31.491  53.206  0.00  0.00     0.188 A 
ATOM      3  N   UNL d   1      53.440  31.203  53.774  0.00  0.00    -0.224 NA
ATOM      4  C   UNL d   1      53.295  30.339  53.783  0.00  0.00     0.101 A 
ATOM      5  C   UNL d   1      52.738  30.168  53.226  0.00  0.00     0.101 A 
ATOM      6  C   UNL d   1      53.662  29.740  54.286  0.00  0.00     0.021 A 
ATOM      7  C   UNL d   1      52.510  29.386  53.132  0.00  0.00     0.021 A 
ATOM      8  N   UNL d   1      52.521  30.920  52.853  0.00  0.00    -0.224 NA
ATOM      9  C   UNL d   1      52.818  28.771  53.575  0.00  0.00     0.002 A 
ATOM     10  C   UNL d   1      53.374  28.942  54.132  0.00  0.00     0.002 A 
ENDBRANCH   1   2
BRANCH   1  11
ATOM     11  O   UNL d   1      52.467  32.820  53.436  0.00  0.00    -0.302 OA
BRANCH  11  12
ATOM     12  C   UNL d   1      52.651  33.600  53.673  0.00  0.00     0.100 A 
ATOM     13  C   UNL d   1      52.499  34.230  53.160  0.00  0.00     0.027 A 
ATOM     14  C   UNL d   1      52.671  35.005  53.370  0.00  0.00     0.026 A 
ATOM     15  C   UNL d   1      53.005  35.134  54.120  0.00  0.00     0.094 A 
ATOM     16  C   UNL d   1      53.157  34.505  54.633  0.00  0.00     0.026 A 
ATOM     17  C   UNL d   1      52.982  33.723  54.418  0.00  0.00     0.027 A 
BRANCH  15  18
ATOM     18  O   UNL d   1      53.189  35.914  54.356  0.00  0.00    -0.328 OA
ATOM     19  C   UNL d   1      53.411  36.709  54.864  0.00  0.00     0.181 C 
ENDBRANCH  15  18
ENDBRANCH  11  12
ENDBRANCH   1  11
TORSDOF 4
ENDMDL
MODEL 7
REMARK VINA RESULT:      -5.3      9.553     10.649
REMARK  4 active torsions:
REMARK  status: ('A' for Active; 'I' for Inactive)
REMARK    1  A    between atoms: C_6  and  C_2 
REMARK    2  A    between atoms: O_7  and  C_6 
REMARK    3  A    between atoms: C_8  and  O_7 
REMARK    4  A    between atoms: O_14  and  C_9 
ROOT
ATOM      1  C   UNL d   1      44.903  28.775  57.559  0.00  0.00     0.161 C 
ENDROOT
BRANCH   1   2
ATOM      2  C   UNL d   1      44.837  29.585  57.536  0.00  0.00     0.188 A 
ATOM      3  N   UNL d   1      44.604  29.791  56.799  0.00  0.00    -0.224 NA
ATOM      4  C   UNL d   1      44.543  30.664  56.812  0.00  0.00     0.101 A 
ATOM      5  C   UNL d   1      44.742  30.922  57.550  0.00  0.00     0.101 A 
ATOM      6  C   UNL d   1      44.314  31.195  56.170  0.00  0.00     0.021 A 
ATOM      7  C   UNL d   1      44.725  31.729  57.697  0.00  0.00     0.021 A 
ATOM      8  N   UNL d   1      44.932  30.217  58.016  0.00  0.00    -0.224 NA
ATOM      9  C   UNL d   1      44.518  32.285  57.133  0.00  0.00     0.002 A 
ATOM     10  C   UNL d   1      44.319  32.027  56.396  0.00  0.00     0.002 A 
ENDBRANCH   1   2
BRANCH   1  11
ATOM     11  O   UNL d   1      45.245  28.394  58.224  0.00  0.00    -0.302 OA
BRANCH  11  12
ATOM     12  C   UNL d   1      45.142  27.574  58.351  0.00  0.00     0.100 A 
ATOM     13  C   UNL d   1      44.809  27.308  59.059  0.00  0.00     0.027 A 
ATOM     14  C   UNL d   1      44.698  26.508  59.206  0.00  0.00     0.026 A 
ATOM     15  C   UNL d   1      44.933  25.973  58.616  0.00  0.00     0.094 A 
ATOM     16  C   UNL d   1      45.267  26.238  57.909  0.00  0.00     0.026 A 
ATOM     17  C   UNL d   1      45.378  27.047  57.762  0.00  0.00     0.027 A 
BRANCH  15  18
ATOM     18  O   UNL d   1      44.830  25.154  58.744  0.00  0.00    -0.328 OA
ATOM     19  C   UNL d   1      44.672  24.204  58.636  0.00  0.00     0.181 C 
ENDBRANCH  15  18
ENDBRANCH  11  12
ENDBRANCH   1  11
TORSDOF 4
ENDMDL
MODEL 8
REMARK VINA RESULT:      -5.2      2.780      4.890
REMARK  4 active torsions:
REMARK  status: ('A' for Active; 'I' for Inactive)
REMARK    1  A    between atoms: C_6  and  C_2 
REMARK    2  A    between atoms: O_7  and  C_6 
REMARK    3  A    between atoms: C_8  and  O_7 
REMARK    4  A    between atoms: O_14  and  C_9 
ROOT
ATOM      1  C   UNL d   1      53.642  32.356  53.643  0.00  0.00     0.161 C 
ENDROOT
BRANCH   1   2
ATOM      2  C   UNL d   1      53.362  33.119  53.635  0.00  0.00     0.188 A 
ATOM      3  N   UNL d   1      53.643  33.490  54.285  0.00  0.00    -0.224 NA
ATOM      4  C   UNL d   1      53.323  34.304  54.242  0.00  0.00     0.101 A 
ATOM      5  C   UNL d   1      52.875  34.367  53.575  0.00  0.00     0.101 A 
ATOM      6  C   UNL d   1      53.442  34.956  54.797  0.00  0.00     0.021 A 
ATOM      7  C   UNL d   1      52.514  35.086  53.415  0.00  0.00     0.021 A 
ATOM      8  N   UNL d   1      52.904  33.594  53.184  0.00  0.00    -0.224 NA
ATOM      9  C   UNL d   1      52.586  35.742  53.899  0.00  0.00     0.002 A 
ATOM     10  C   UNL d   1      53.034  35.679  54.566  0.00  0.00     0.002 A 
ENDBRANCH   1   2
BRANCH   1  11
ATOM     11  O   UNL d   1      53.237  31.749  53.228  0.00  0.00    -0.302 OA
BRANCH  11  12
ATOM     12  C   UNL d   1      53.242  30.960  53.505  0.00  0.00     0.100 A 
ATOM     13  C   UNL d   1      52.878  30.367  53.059  0.00  0.00     0.027 A 
ATOM     14  C   UNL d   1      52.870  29.586  53.311  0.00  0.00     0.026 A 
ATOM     15  C   UNL d   1      53.244  29.411  54.032  0.00  0.00     0.094 A 
ATOM     16  C   UNL d   1      53.608  30.003  54.477  0.00  0.00     0.026 A 
ATOM     17  C   UNL d   1      53.615  30.792  54.221  0.00  0.00     0.027 A 
BRANCH  15  18
ATOM     18  O   UNL d   1      53.249  28.622  54.308  0.00  0.00    -0.328 OA
ATOM     19  C   UNL d   1      53.482  27.781  54.730  0.00  0.00     0.181 C 
ENDBRANCH  15  18
ENDBRANCH  11  12
ENDBRANCH   1  11
TORSDOF 4
ENDMDL
MODEL 9
REMARK VINA RESULT:      -5.2     10.778     11.467
REMARK  4 active torsions:
REMARK  status: ('A' for Active; 'I' for Inactive)
REMARK    1  A    between atoms: C_6  and  C_2 
REMARK    2  A    between atoms: O_7  and  C_6 
REMARK    3  A    between atoms: C_8  and  O_7 
REMARK    4  A    between atoms: O_14  and  C_9 
ROOT
ATOM      1  C   UNL d   1      44.772  26.039  56.652  0.00  0.00     0.161 C 
ENDROOT
BRANCH   1   2
ATOM      2  C   UNL d   1      44.824  25.359  56.210  0.00  0.00     0.188 A 
ATOM      3  N   UNL d   1      44.530  24.759  56.649  0.00  0.00    -0.224 NA
ATOM      4  C   UNL d   1      44.603  24.047  56.143  0.00  0.00     0.101 A 
ATOM      5  C   UNL d   1      44.933  24.267  55.441  0.00  0.00     0.101 A 
ATOM      6  C   UNL d   1      44.374  23.235  56.326  0.00  0.00     0.021 A 
ATOM      7  C   UNL d   1      45.056  23.689  54.872  0.00  0.00     0.021 A 
ATOM      8  N   UNL d   1      45.075  25.121  55.490  0.00  0.00    -0.224 NA
ATOM      9  C   UNL d   1      44.862  22.902  54.982  0.00  0.00     0.002 A 
ATOM     10  C   UNL d   1      44.533  22.682  55.684  0.00  0.00     0.002 A 
ENDBRANCH   1   2
BRANCH   1  11
ATOM     11  O   UNL d   1      45.355  26.639  56.584  0.00  0.00    -0.302 OA
BRANCH  11  12
ATOM     12  C   UNL d   1      45.294  27.352  57.016  0.00  0.00     0.100 A 
ATOM     13  C   UNL d   1      45.036  28.040  56.638  0.00  0.00     0.027 A 
ATOM     14  C   UNL d   1      44.968  28.752  57.042  0.00  0.00     0.026 A 
ATOM     15  C   UNL d   1      45.168  28.756  57.848  0.00  0.00     0.094 A 
ATOM     16  C   UNL d   1      45.425  28.068  58.227  0.00  0.00     0.026 A 
ATOM     17  C   UNL d   1      45.493  27.350  57.817  0.00  0.00     0.027 A 
BRANCH  15  18
ATOM     18  O   UNL d   1      45.107  29.468  58.281  0.00  0.00    -0.328 OA
ATOM     19  C   UNL d   1      45.265  30.217  58.875  0.00  0.00     0.181 C 
ENDBRANCH  15  18
ENDBRANCH  11  12
ENDBRANCH   1  11
TORSDOF 4
ENDMDL
