MODEL 1
REMARK VINA RESULT:      18.3      0.000      0.000
REMARK  4 active torsions:
REMARK  status: ('A' for Active; 'I' for Inactive)
REMARK    1  A    between atoms: C_2  and  N_1 
REMARK       I    between atoms: C_4  and  N_1 
REMARK    2  A    between atoms: C_3  and  C_2 
REMARK    3  A    between atoms: N_5  and  C_2 
REMARK    4  A    between atoms: C_6  and  C_4 
ROOT
ATOM      1  C   UNL d   1      45.154 -13.935  44.567  0.00  0.00     0.170 C 
ENDROOT
BRANCH   1   2
ATOM      2  N   UNL d   1      45.628 -13.357  44.953  0.00  0.00    -0.191 NA
ATOM      3  C   UNL d   1      45.920 -12.686  44.522  0.00  0.00     0.280 C 
ATOM      4  O   UNL d   1      46.412 -12.080  44.909  0.00  0.00    -0.265 OA
BRANCH   3   5
ATOM      5  C   UNL d   1      45.726 -12.615  43.715  0.00  0.00     0.058 A 
ATOM      6  C   UNL d   1      46.187 -12.973  43.119  0.00  0.00     0.007 A 
ATOM      7  C   UNL d   1      45.976 -12.890  42.323  0.00  0.00     0.030 A 
ATOM      8  C   UNL d   1      45.311 -12.455  42.100  0.00  0.00     0.140 A 
ATOM      9  C   UNL d   1      44.849 -12.097  42.696  0.00  0.00     0.030 A 
ATOM     10  F   UNL d   1      45.106 -12.370  41.383  0.00  0.00    -0.204 F 
ATOM     11  C   UNL d   1      45.061 -12.178  43.519  0.00  0.00     0.007 A 
ENDBRANCH   3   5
ENDBRANCH   1   2
BRANCH   1  12
ATOM     12  C   UNL d   1      44.409 -13.891  44.315  0.00  0.00     0.249 C 
ATOM     13 CL   UNL d   1      43.420 -13.864  44.180  0.00  0.00    -0.075 Cl
ATOM     14 CL   UNL d   1      43.851 -13.988  44.943  0.00  0.00    -0.075 Cl
ATOM     15 CL   UNL d   1      44.422 -13.801  43.756  0.00  0.00    -0.075 Cl
ENDBRANCH   1  12
BRANCH   1  16
ATOM     16  N   UNL d   1      45.471 -14.661  44.411  0.00  0.00    -0.286 N 
ATOM     17  C   UNL d   1      45.278 -15.069  43.743  0.00  0.00     0.108 A 
ATOM     18  C   UNL d   1      45.603 -15.802  43.592  0.00  0.00     0.142 A 
ATOM     19  O   UNL d   1      46.126 -16.119  44.123  0.00  0.00    -0.300 OA
ATOM     20  C   UNL d   1      46.319 -15.719  44.783  0.00  0.00     0.142 A 
ATOM     21  C   UNL d   1      45.990 -14.990  44.924  0.00  0.00     0.108 A 
ENDBRANCH   1  16
TORSDOF 4
ENDMDL
