MODEL 1
REMARK VINA RESULT:      -3.2      0.000      0.000
REMARK  5 active torsions:
REMARK  status: ('A' for Active; 'I' for Inactive)
REMARK    1  A    between atoms: N_2  and  S_1 
REMARK    2  A    between atoms: C_4  and  S_1 
REMARK    3  A    between atoms: C_3  and  N_2 
REMARK    4  A    between atoms: N_7  and  C_3 
REMARK    5  A    between atoms: C_15  and  N_7 
ROOT
ATOM      1  S   UNL d   1      33.051  20.273 -22.144  0.00  0.00     0.287 S 
ATOM      2  O   UNL d   1      33.196  20.670 -22.863  0.00  0.00    -0.198 OA
ATOM      3  O   UNL d   1      32.907  19.881 -21.432  0.00  0.00    -0.198 OA
ENDROOT
BRANCH   1   4
ATOM      4  N   UNL d   1      33.188  19.546 -22.518  0.00  0.00    -0.128 NA
BRANCH   4   5
ATOM      5  C   UNL d   1      32.971  18.995 -23.090  0.00  0.00     0.232 C 
ATOM      6  S   UNL d   1      33.237  19.078 -23.867  0.00  0.00    -0.036 SA
BRANCH   5   7
ATOM      7  N   UNL d   1      32.489  18.360 -22.884  0.00  0.00    -0.217 NA
BRANCH   7   8
ATOM      8  C   UNL d   1      32.547  17.652 -23.304  0.00  0.00     0.084 A 
ATOM      9  C   UNL d   1      31.956  17.449 -23.842  0.00  0.00     0.019 A 
ATOM     10  C   UNL d   1      32.011  16.743 -24.262  0.00  0.00     0.002 A 
ATOM     11  C   UNL d   1      32.652  16.243 -24.146  0.00  0.00     0.000 A 
ATOM     12  C   UNL d   1      33.241  16.446 -23.609  0.00  0.00     0.002 A 
ATOM     13  C   UNL d   1      33.190  17.149 -23.187  0.00  0.00     0.019 A 
ENDBRANCH   7   8
ENDBRANCH   5   7
ENDBRANCH   4   5
ENDBRANCH   1   4
BRANCH   1  14
ATOM     14  C   UNL d   1      32.913  21.005 -21.768  0.00  0.00     0.105 A 
ATOM     15  C   UNL d   1      32.470  21.027 -21.073  0.00  0.00     0.013 A 
ATOM     16  C   UNL d   1      32.328  21.755 -20.692  0.00  0.00     0.007 A 
ATOM     17  C   UNL d   1      32.635  22.460 -21.015  0.00  0.00     0.035 A 
ATOM     18  C   UNL d   1      33.080  22.430 -21.714  0.00  0.00     0.007 A 
ATOM     19 BR   UNL d   1      32.493  23.178 -20.635  0.00  0.00    -0.049 Br
ATOM     20  C   UNL d   1      33.220  21.710 -22.091  0.00  0.00     0.013 A 
ENDBRANCH   1  14
TORSDOF 5
ENDMDL
MODEL 2
REMARK VINA RESULT:      -2.0      3.253      5.145
REMARK  5 active torsions:
REMARK  status: ('A' for Active; 'I' for Inactive)
REMARK    1  A    between atoms: N_2  and  S_1 
REMARK    2  A    between atoms: C_4  and  S_1 
REMARK    3  A    between atoms: C_3  and  N_2 
REMARK    4  A    between atoms: N_7  and  C_3 
REMARK    5  A    between atoms: C_15  and  N_7 
ROOT
ATOM      1  S   UNL d   1      30.742  16.840 -23.997  0.00  0.00     0.287 S 
ATOM      2  O   UNL d   1      31.082  16.284 -23.476  0.00  0.00    -0.198 OA
ATOM      3  O   UNL d   1      30.405  17.390 -24.512  0.00  0.00    -0.198 OA
ENDROOT
BRANCH   1   4
ATOM      4  N   UNL d   1      31.486  17.188 -24.111  0.00  0.00    -0.128 NA
BRANCH   4   5
ATOM      5  C   UNL d   1      32.290  17.206 -23.937  0.00  0.00     0.232 C 
ATOM      6  S   UNL d   1      32.834  16.866 -24.455  0.00  0.00    -0.036 SA
BRANCH   5   7
ATOM      7  N   UNL d   1      32.551  17.566 -23.243  0.00  0.00    -0.217 NA
BRANCH   7   8
ATOM      8  C   UNL d   1      32.780  18.359 -23.256  0.00  0.00     0.084 A 
ATOM      9  C   UNL d   1      32.773  18.796 -22.558  0.00  0.00     0.019 A 
ATOM     10  C   UNL d   1      33.001  19.587 -22.568  0.00  0.00     0.002 A 
ATOM     11  C   UNL d   1      33.234  19.939 -23.272  0.00  0.00     0.000 A 
ATOM     12  C   UNL d   1      33.241  19.503 -23.969  0.00  0.00     0.002 A 
ATOM     13  C   UNL d   1      33.014  18.713 -23.963  0.00  0.00     0.019 A 
ENDBRANCH   7   8
ENDBRANCH   5   7
ENDBRANCH   4   5
ENDBRANCH   1   4
BRANCH   1  14
ATOM     14  C   UNL d   1      29.994  16.490 -23.882  0.00  0.00     0.105 A 
ATOM     15  C   UNL d   1      29.329  16.827 -24.234  0.00  0.00     0.013 A 
ATOM     16  C   UNL d   1      28.578  16.482 -24.123  0.00  0.00     0.007 A 
ATOM     17  C   UNL d   1      28.501  15.796 -23.656  0.00  0.00     0.035 A 
ATOM     18  C   UNL d   1      29.174  15.462 -23.305  0.00  0.00     0.007 A 
ATOM     19 BR   UNL d   1      27.756  15.457 -23.548  0.00  0.00    -0.049 Br
ATOM     20  C   UNL d   1      29.917  15.803 -23.414  0.00  0.00     0.013 A 
ENDBRANCH   1  14
TORSDOF 5
ENDMDL
