MODEL 1
REMARK VINA RESULT:      -6.1      0.000      0.000
REMARK  1 active torsions:
REMARK  status: ('A' for Active; 'I' for Inactive)
REMARK    1  A    between atoms: C_7  and  C_4 
ROOT
ATOM      1  N   UNL d   1     -41.637-123.330 -51.941  0.00  0.00    -0.242 NA
ATOM      2  C   UNL d   1     -41.318-121.956 -51.670  0.00  0.00     0.156 A 
ATOM      3  N   UNL d   1     -41.177-121.833 -52.475  0.00  0.00    -0.231 NA
ATOM      4  C   UNL d   1     -41.549-122.710 -51.403  0.00  0.00     0.110 A 
ATOM      5  C   UNL d   1     -41.494-123.198 -52.744  0.00  0.00     0.099 A 
ATOM      6  C   UNL d   1     -41.265-122.450 -53.005  0.00  0.00     0.100 A 
ATOM      7 CL   UNL d   1     -41.232-121.339 -51.130  0.00  0.00    -0.060 Cl
ATOM      8  C   UNL d   1     -41.580-123.817 -53.292  0.00  0.00     0.021 A 
ATOM      9  C   UNL d   1     -41.123-122.320 -53.813  0.00  0.00     0.021 A 
ATOM     10  C   UNL d   1     -41.209-122.936 -54.353  0.00  0.00     0.002 A 
ATOM     11  C   UNL d   1     -41.438-123.684 -54.092  0.00  0.00     0.002 A 
ENDROOT
BRANCH   4  12
ATOM     12  C   UNL d   1     -41.690-122.835 -50.606  0.00  0.00     0.020 A 
ATOM     13  C   UNL d   1     -41.128-123.211 -50.142  0.00  0.00     0.002 A 
ATOM     14  C   UNL d   1     -41.264-123.339 -49.343  0.00  0.00     0.000 A 
ATOM     15  C   UNL d   1     -41.978-123.085 -48.998  0.00  0.00     0.000 A 
ATOM     16  C   UNL d   1     -42.548-122.703 -49.471  0.00  0.00     0.000 A 
ATOM     17  C   UNL d   1     -42.124-123.209 -48.195  0.00  0.00     0.000 C 
ATOM     18  C   UNL d   1     -42.400-122.580 -50.272  0.00  0.00     0.002 A 
ENDBRANCH   4  12
TORSDOF 1
ENDMDL
MODEL 2
REMARK VINA RESULT:      -5.4      1.423      4.166
REMARK  1 active torsions:
REMARK  status: ('A' for Active; 'I' for Inactive)
REMARK    1  A    between atoms: C_7  and  C_4 
ROOT
ATOM      1  N   UNL d   1     -41.755-122.042 -52.650  0.00  0.00    -0.242 NA
ATOM      2  C   UNL d   1     -41.292-123.310 -53.140  0.00  0.00     0.156 A 
ATOM      3  N   UNL d   1     -41.134-123.549 -52.365  0.00  0.00    -0.231 NA
ATOM      4  C   UNL d   1     -41.605-122.551 -53.282  0.00  0.00     0.110 A 
ATOM      5  C   UNL d   1     -41.594-122.288 -51.878  0.00  0.00     0.099 A 
ATOM      6  C   UNL d   1     -41.285-123.041 -51.742  0.00  0.00     0.100 A 
ATOM      7 CL   UNL d   1     -41.143-123.816 -53.773  0.00  0.00    -0.060 Cl
ATOM      8  C   UNL d   1     -41.743-121.781 -51.237  0.00  0.00     0.021 A 
ATOM      9  C   UNL d   1     -41.124-123.286 -50.965  0.00  0.00     0.021 A 
ATOM     10  C   UNL d   1     -41.273-122.781 -50.331  0.00  0.00     0.002 A 
ATOM     11  C   UNL d   1     -41.582-122.028 -50.468  0.00  0.00     0.002 A 
ENDROOT
BRANCH   4  12
ATOM     12  C   UNL d   1     -41.762-122.312 -54.049  0.00  0.00     0.020 A 
ATOM     13  C   UNL d   1     -41.148-122.183 -54.575  0.00  0.00     0.002 A 
ATOM     14  C   UNL d   1     -41.300-121.943 -55.346  0.00  0.00     0.000 A 
ATOM     15  C   UNL d   1     -42.086-121.829 -55.596  0.00  0.00     0.000 A 
ATOM     16  C   UNL d   1     -42.709-121.961 -55.059  0.00  0.00     0.000 A 
ATOM     17  C   UNL d   1     -42.250-121.588 -56.369  0.00  0.00     0.000 C 
ATOM     18  C   UNL d   1     -42.544-122.201 -54.289  0.00  0.00     0.002 A 
ENDBRANCH   4  12
TORSDOF 1
ENDMDL
MODEL 3
REMARK VINA RESULT:      -5.0      1.410      4.174
REMARK  1 active torsions:
REMARK  status: ('A' for Active; 'I' for Inactive)
REMARK    1  A    between atoms: C_7  and  C_4 
ROOT
ATOM      1  N   UNL d   1     -41.441-123.214 -49.303  0.00  0.00    -0.242 NA
ATOM      2  C   UNL d   1     -42.742-122.686 -49.604  0.00  0.00     0.156 A 
ATOM      3  N   UNL d   1     -42.954-122.761 -48.809  0.00  0.00    -0.231 NA
ATOM      4  C   UNL d   1     -41.980-122.914 -49.852  0.00  0.00     0.110 A 
ATOM      5  C   UNL d   1     -41.661-123.286 -48.510  0.00  0.00     0.099 A 
ATOM      6  C   UNL d   1     -42.416-123.059 -48.269  0.00  0.00     0.100 A 
ATOM      7 CL   UNL d   1     -43.278-122.387 -50.154  0.00  0.00    -0.060 Cl
ATOM      8  C   UNL d   1     -41.123-123.587 -47.952  0.00  0.00     0.021 A 
ATOM      9  C   UNL d   1     -42.634-123.132 -47.471  0.00  0.00     0.021 A 
ATOM     10  C   UNL d   1     -42.099-123.431 -46.921  0.00  0.00     0.002 A 
ATOM     11  C   UNL d   1     -41.343-123.658 -47.162  0.00  0.00     0.002 A 
ENDROOT
BRANCH   4  12
ATOM     12  C   UNL d   1     -41.768-122.840 -50.639  0.00  0.00     0.020 A 
ATOM     13  C   UNL d   1     -41.632-122.100 -50.962  0.00  0.00     0.002 A 
ATOM     14  C   UNL d   1     -41.418-122.020 -51.751  0.00  0.00     0.000 A 
ATOM     15  C   UNL d   1     -41.339-122.698 -52.228  0.00  0.00     0.000 A 
ATOM     16  C   UNL d   1     -41.477-123.450 -51.898  0.00  0.00     0.000 A 
ATOM     17  C   UNL d   1     -41.124-122.629 -53.023  0.00  0.00     0.000 C 
ATOM     18  C   UNL d   1     -41.691-123.517 -51.105  0.00  0.00     0.002 A 
ENDBRANCH   4  12
TORSDOF 1
ENDMDL
MODEL 4
REMARK VINA RESULT:      -4.9      0.923      3.727
REMARK  1 active torsions:
REMARK  status: ('A' for Active; 'I' for Inactive)
REMARK    1  A    between atoms: C_7  and  C_4 
ROOT
ATOM      1  N   UNL d   1     -41.665-123.084 -52.038  0.00  0.00    -0.242 NA
ATOM      2  C   UNL d   1     -41.258-121.706 -52.063  0.00  0.00     0.156 A 
ATOM      3  N   UNL d   1     -41.127-121.733 -51.248  0.00  0.00    -0.231 NA
ATOM      4  C   UNL d   1     -41.529-122.387 -52.460  0.00  0.00     0.110 A 
ATOM      5  C   UNL d   1     -41.531-123.102 -51.223  0.00  0.00     0.099 A 
ATOM      6  C   UNL d   1     -41.263-122.426 -50.834  0.00  0.00     0.100 A 
ATOM      7 CL   UNL d   1     -41.124-121.012 -52.486  0.00  0.00    -0.060 Cl
ATOM      8  C   UNL d   1     -41.666-123.800 -50.792  0.00  0.00     0.021 A 
ATOM      9  C   UNL d   1     -41.130-122.447 -50.014  0.00  0.00     0.021 A 
ATOM     10  C   UNL d   1     -41.264-123.140 -49.591  0.00  0.00     0.002 A 
ATOM     11  C   UNL d   1     -41.532-123.817 -49.980  0.00  0.00     0.002 A 
ENDROOT
BRANCH   4  12
ATOM     12  C   UNL d   1     -41.660-122.363 -53.268  0.00  0.00     0.020 A 
ATOM     13  C   UNL d   1     -41.259-122.875 -53.765  0.00  0.00     0.002 A 
ATOM     14  C   UNL d   1     -41.386-122.856 -54.576  0.00  0.00     0.000 A 
ATOM     15  C   UNL d   1     -41.928-122.311 -54.897  0.00  0.00     0.000 A 
ATOM     16  C   UNL d   1     -42.334-121.791 -54.389  0.00  0.00     0.000 A 
ATOM     17  C   UNL d   1     -42.063-122.283 -55.712  0.00  0.00     0.000 C 
ATOM     18  C   UNL d   1     -42.198-121.820 -53.577  0.00  0.00     0.002 A 
ENDBRANCH   4  12
TORSDOF 1
ENDMDL
