MODEL 1
REMARK VINA RESULT:      -2.0      0.000      0.000
REMARK  8 active torsions:
REMARK  status: ('A' for Active; 'I' for Inactive)
REMARK    1  A    between atoms: C_7  and  C_1 
REMARK    2  A    between atoms: S_2  and  N_8 
REMARK    3  A    between atoms: C_11  and  S_2 
REMARK    4  A    between atoms: O_17  and  C_7 
REMARK    5  A    between atoms: N_8  and  C_13 
REMARK    6  A    between atoms: C_22  and  O_17 
REMARK    7  A    between atoms: O_19  and  C_23 
REMARK    8  A    between atoms: C_23  and  C_22 
ROOT
ATOM      1  C   UNL d   1      32.274  22.266 -21.099  0.00  0.00     0.088 A 
ATOM      2  C   UNL d   1      32.152  23.001 -21.448  0.00  0.00     0.105 A 
ATOM      3  C   UNL d   1      32.542  21.749 -21.676  0.00  0.00     0.031 A 
ATOM      4  O   UNL d   1      32.350  22.932 -22.257  0.00  0.00    -0.307 OA
ATOM      5  C   UNL d   1      32.589  22.160 -22.389  0.00  0.00     0.100 A 
ATOM      6  C   UNL d   1      32.752  20.950 -21.644  0.00  0.00     0.022 A 
ATOM      7  C   UNL d   1      33.006  20.569 -22.324  0.00  0.00     0.094 A 
ATOM      8  C   UNL d   1      32.846  21.772 -23.072  0.00  0.00     0.026 A 
ATOM      9  C   UNL d   1      33.053  20.980 -23.038  0.00  0.00     0.022 A 
ATOM     10  C   UNL d   1      31.888  23.702 -21.116  0.00  0.00     0.027 C 
ENDROOT
BRANCH   7  11
ATOM     11  N   UNL d   1      33.224  19.730 -22.280  0.00  0.00    -0.158 NA
BRANCH  11  12
ATOM     12  S   UNL d   1      32.923  19.182 -22.831  0.00  0.00     0.285 S 
ATOM     13  O   UNL d   1      33.238  19.603 -23.468  0.00  0.00    -0.198 OA
ATOM     14  O   UNL d   1      32.585  18.724 -22.192  0.00  0.00    -0.198 OA
BRANCH  12  15
ATOM     15  C   UNL d   1      32.602  18.604 -23.363  0.00  0.00     0.105 A 
ATOM     16  C   UNL d   1      32.483  17.842 -23.068  0.00  0.00     0.013 A 
ATOM     17  C   UNL d   1      32.172  17.255 -23.557  0.00  0.00     0.001 A 
ATOM     18  C   UNL d   1      31.980  17.430 -24.341  0.00  0.00     0.000 A 
ATOM     19  C   UNL d   1      32.099  18.187 -24.630  0.00  0.00     0.001 A 
ATOM     20  C   UNL d   1      32.410  18.775 -24.141  0.00  0.00     0.013 A 
ENDBRANCH  12  15
ENDBRANCH  11  12
ENDBRANCH   7  11
BRANCH   1  21
ATOM     21  C   UNL d   1      32.130  22.126 -20.280  0.00  0.00     0.302 C 
ATOM     22  O   UNL d   1      31.687  21.473 -20.024  0.00  0.00    -0.259 OA
BRANCH  21  23
ATOM     23  O   UNL d   1      32.443  22.660 -19.721  0.00  0.00    -0.269 OA
BRANCH  23  24
ATOM     24  C   UNL d   1      32.593  22.420 -18.939  0.00  0.00     0.152 C 
BRANCH  24  25
ATOM     25  C   UNL d   1      33.235  22.719 -18.520  0.00  0.00     0.143 C 
BRANCH  25  26
ATOM     26  O   UNL d   1      33.153  23.337 -17.966  0.00  0.00    -0.324 OA
ATOM     27  C   UNL d   1      32.936  23.165 -17.211  0.00  0.00     0.182 C 
ENDBRANCH  25  26
ENDBRANCH  24  25
ENDBRANCH  23  24
ENDBRANCH  21  23
ENDBRANCH   1  21
TORSDOF 8
ENDMDL
MODEL 2
REMARK VINA RESULT:      -2.0      2.408      3.859
REMARK  8 active torsions:
REMARK  status: ('A' for Active; 'I' for Inactive)
REMARK    1  A    between atoms: C_7  and  C_1 
REMARK    2  A    between atoms: S_2  and  N_8 
REMARK    3  A    between atoms: C_11  and  S_2 
REMARK    4  A    between atoms: O_17  and  C_7 
REMARK    5  A    between atoms: N_8  and  C_13 
REMARK    6  A    between atoms: C_22  and  O_17 
REMARK    7  A    between atoms: O_19  and  C_23 
REMARK    8  A    between atoms: C_23  and  C_22 
ROOT
ATOM      1  C   UNL d   1      32.848  19.956 -22.561  0.00  0.00     0.088 A 
ATOM      2  C   UNL d   1      33.101  19.916 -21.779  0.00  0.00     0.105 A 
ATOM      3  C   UNL d   1      32.829  19.195 -22.864  0.00  0.00     0.031 A 
ATOM      4  O   UNL d   1      33.239  19.111 -21.600  0.00  0.00    -0.307 OA
ATOM      5  C   UNL d   1      33.070  18.674 -22.272  0.00  0.00     0.100 A 
ATOM      6  C   UNL d   1      32.621  18.905 -23.610  0.00  0.00     0.022 A 
ATOM      7  C   UNL d   1      32.656  18.099 -23.757  0.00  0.00     0.094 A 
ATOM      8  C   UNL d   1      33.104  17.863 -22.425  0.00  0.00     0.026 A 
ATOM      9  C   UNL d   1      32.897  17.578 -23.164  0.00  0.00     0.022 A 
ATOM     10  C   UNL d   1      33.214  20.515 -21.233  0.00  0.00     0.027 C 
ENDROOT
BRANCH   7  11
ATOM     11  N   UNL d   1      32.435  17.805 -24.544  0.00  0.00    -0.158 NA
BRANCH  11  12
ATOM     12  S   UNL d   1      31.701  17.431 -24.669  0.00  0.00     0.285 S 
ATOM     13  O   UNL d   1      31.980  16.714 -24.368  0.00  0.00    -0.198 OA
ATOM     14  O   UNL d   1      31.384  18.160 -24.985  0.00  0.00    -0.198 OA
BRANCH  12  15
ATOM     15  C   UNL d   1      30.939  17.084 -24.810  0.00  0.00     0.105 A 
ATOM     16  C   UNL d   1      30.306  17.599 -24.934  0.00  0.00     0.013 A 
ATOM     17  C   UNL d   1      29.551  17.297 -25.074  0.00  0.00     0.001 A 
ATOM     18  C   UNL d   1      29.430  16.479 -25.090  0.00  0.00     0.000 A 
ATOM     19  C   UNL d   1      30.062  15.972 -24.966  0.00  0.00     0.001 A 
ATOM     20  C   UNL d   1      30.817  16.274 -24.826  0.00  0.00     0.013 A 
ENDBRANCH  12  15
ENDBRANCH  11  12
ENDBRANCH   7  11
BRANCH   1  21
ATOM     21  C   UNL d   1      32.655  20.686 -22.935  0.00  0.00     0.302 C 
ATOM     22  O   UNL d   1      31.946  21.084 -22.767  0.00  0.00    -0.259 OA
BRANCH  21  23
ATOM     23  O   UNL d   1      33.192  21.010 -23.485  0.00  0.00    -0.269 OA
BRANCH  23  24
ATOM     24  C   UNL d   1      33.051  21.752 -23.832  0.00  0.00     0.152 C 
BRANCH  24  25
ATOM     25  C   UNL d   1      33.238  21.892 -24.622  0.00  0.00     0.143 C 
BRANCH  25  26
ATOM     26  O   UNL d   1      33.014  22.595 -25.013  0.00  0.00    -0.324 OA
ATOM     27  C   UNL d   1      32.476  23.083 -24.668  0.00  0.00     0.182 C 
ENDBRANCH  25  26
ENDBRANCH  24  25
ENDBRANCH  23  24
ENDBRANCH  21  23
ENDBRANCH   1  21
TORSDOF 8
ENDMDL
MODEL 3
REMARK VINA RESULT:      -1.5      2.994      6.073
REMARK  8 active torsions:
REMARK  status: ('A' for Active; 'I' for Inactive)
REMARK    1  A    between atoms: C_7  and  C_1 
REMARK    2  A    between atoms: S_2  and  N_8 
REMARK    3  A    between atoms: C_11  and  S_2 
REMARK    4  A    between atoms: O_17  and  C_7 
REMARK    5  A    between atoms: N_8  and  C_13 
REMARK    6  A    between atoms: C_22  and  O_17 
REMARK    7  A    between atoms: O_19  and  C_23 
REMARK    8  A    between atoms: C_23  and  C_22 
ROOT
ATOM      1  C   UNL d   1      30.863  16.617 -24.300  0.00  0.00     0.088 A 
ATOM      2  C   UNL d   1      30.929  15.941 -24.764  0.00  0.00     0.105 A 
ATOM      3  C   UNL d   1      31.617  16.874 -24.111  0.00  0.00     0.031 A 
ATOM      4  O   UNL d   1      31.743  15.780 -24.860  0.00  0.00    -0.307 OA
ATOM      5  C   UNL d   1      32.160  16.357 -24.456  0.00  0.00     0.100 A 
ATOM      6  C   UNL d   1      31.885  17.517 -23.665  0.00  0.00     0.022 A 
ATOM      7  C   UNL d   1      32.689  17.638 -23.568  0.00  0.00     0.094 A 
ATOM      8  C   UNL d   1      32.970  16.484 -24.355  0.00  0.00     0.026 A 
ATOM      9  C   UNL d   1      33.232  17.121 -23.913  0.00  0.00     0.022 A 
ATOM     10  C   UNL d   1      30.344  15.472 -25.096  0.00  0.00     0.027 C 
ENDROOT
BRANCH   7  11
ATOM     11  N   UNL d   1      32.959  18.317 -23.097  0.00  0.00    -0.158 NA
BRANCH  11  12
ATOM     12  S   UNL d   1      33.027  19.073 -23.441  0.00  0.00     0.285 S 
ATOM     13  O   UNL d   1      33.241  18.755 -24.172  0.00  0.00    -0.198 OA
ATOM     14  O   UNL d   1      32.808  19.431 -22.695  0.00  0.00    -0.198 OA
BRANCH  12  15
ATOM     15  C   UNL d   1      33.086  19.859 -23.756  0.00  0.00     0.105 A 
ATOM     16  C   UNL d   1      33.079  19.938 -24.578  0.00  0.00     0.013 A 
ATOM     17  C   UNL d   1      33.135  20.687 -24.920  0.00  0.00     0.001 A 
ATOM     18  C   UNL d   1      33.197  21.356 -24.439  0.00  0.00     0.000 A 
ATOM     19  C   UNL d   1      33.204  21.273 -23.624  0.00  0.00     0.001 A 
ATOM     20  C   UNL d   1      33.148  20.524 -23.282  0.00  0.00     0.013 A 
ENDBRANCH  12  15
ENDBRANCH  11  12
ENDBRANCH   7  11
BRANCH   1  21
ATOM     21  C   UNL d   1      30.116  16.946 -24.088  0.00  0.00     0.302 C 
ATOM     22  O   UNL d   1      29.957  17.756 -24.183  0.00  0.00    -0.259 OA
BRANCH  21  23
ATOM     23  O   UNL d   1      29.530  16.442 -23.775  0.00  0.00    -0.269 OA
BRANCH  23  24
ATOM     24  C   UNL d   1      28.749  16.709 -23.674  0.00  0.00     0.152 C 
BRANCH  24  25
ATOM     25  C   UNL d   1      28.193  16.249 -23.277  0.00  0.00     0.143 C 
BRANCH  25  26
ATOM     26  O   UNL d   1      27.383  16.261 -23.479  0.00  0.00    -0.324 OA
ATOM     27  C   UNL d   1      26.872  15.779 -23.087  0.00  0.00     0.182 C 
ENDBRANCH  25  26
ENDBRANCH  24  25
ENDBRANCH  23  24
ENDBRANCH  21  23
ENDBRANCH   1  21
TORSDOF 8
ENDMDL
MODEL 4
REMARK VINA RESULT:      -1.2      1.170      2.757
REMARK  8 active torsions:
REMARK  status: ('A' for Active; 'I' for Inactive)
REMARK    1  A    between atoms: C_7  and  C_1 
REMARK    2  A    between atoms: S_2  and  N_8 
REMARK    3  A    between atoms: C_11  and  S_2 
REMARK    4  A    between atoms: O_17  and  C_7 
REMARK    5  A    between atoms: N_8  and  C_13 
REMARK    6  A    between atoms: C_22  and  O_17 
REMARK    7  A    between atoms: O_19  and  C_23 
REMARK    8  A    between atoms: C_23  and  C_22 
ROOT
ATOM      1  C   UNL d   1      32.704  22.308 -21.323  0.00  0.00     0.088 A 
ATOM      2  C   UNL d   1      32.392  22.336 -20.562  0.00  0.00     0.105 A 
ATOM      3  C   UNL d   1      32.737  21.524 -21.558  0.00  0.00     0.031 A 
ATOM      4  O   UNL d   1      32.231  21.550 -20.327  0.00  0.00    -0.307 OA
ATOM      5  C   UNL d   1      32.445  21.057 -20.944  0.00  0.00     0.100 A 
ATOM      6  C   UNL d   1      32.998  21.170 -22.258  0.00  0.00     0.022 A 
ATOM      7  C   UNL d   1      32.965  20.355 -22.339  0.00  0.00     0.094 A 
ATOM      8  C   UNL d   1      32.414  20.236 -21.030  0.00  0.00     0.026 A 
ATOM      9  C   UNL d   1      32.673  19.888 -21.725  0.00  0.00     0.022 A 
ATOM     10  C   UNL d   1      32.245  22.981 -20.078  0.00  0.00     0.027 C 
ENDROOT
BRANCH   7  11
ATOM     11  N   UNL d   1      33.241  19.993 -23.079  0.00  0.00    -0.158 NA
BRANCH  11  12
ATOM     12  S   UNL d   1      32.947  19.254 -23.327  0.00  0.00     0.285 S 
ATOM     13  O   UNL d   1      33.077  18.919 -22.584  0.00  0.00    -0.198 OA
ATOM     14  O   UNL d   1      32.802  19.574 -24.108  0.00  0.00    -0.198 OA
BRANCH  12  15
ATOM     15  C   UNL d   1      32.642  18.517 -23.616  0.00  0.00     0.105 A 
ATOM     16  C   UNL d   1      33.190  17.927 -23.802  0.00  0.00     0.013 A 
ATOM     17  C   UNL d   1      32.928  17.197 -24.084  0.00  0.00     0.001 A 
ATOM     18  C   UNL d   1      32.120  17.057 -24.181  0.00  0.00     0.000 A 
ATOM     19  C   UNL d   1      31.580  17.645 -23.995  0.00  0.00     0.001 A 
ATOM     20  C   UNL d   1      31.841  18.375 -23.712  0.00  0.00     0.013 A 
ENDBRANCH  12  15
ENDBRANCH  11  12
ENDBRANCH   7  11
BRANCH   1  21
ATOM     21  C   UNL d   1      32.933  23.003 -21.741  0.00  0.00     0.302 C 
ATOM     22  O   UNL d   1      33.190  23.684 -21.342  0.00  0.00    -0.259 OA
BRANCH  21  23
ATOM     23  O   UNL d   1      32.899  22.999 -22.575  0.00  0.00    -0.269 OA
BRANCH  23  24
ATOM     24  C   UNL d   1      32.758  23.700 -22.999  0.00  0.00     0.152 C 
BRANCH  24  25
ATOM     25  C   UNL d   1      32.272  23.702 -23.663  0.00  0.00     0.143 C 
BRANCH  25  26
ATOM     26  O   UNL d   1      32.557  23.505 -24.422  0.00  0.00    -0.324 OA
ATOM     27  C   UNL d   1      32.091  23.632 -25.064  0.00  0.00     0.182 C 
ENDBRANCH  25  26
ENDBRANCH  24  25
ENDBRANCH  23  24
ENDBRANCH  21  23
ENDBRANCH   1  21
TORSDOF 8
ENDMDL
MODEL 5
REMARK VINA RESULT:      -1.0      3.966      6.128
REMARK  8 active torsions:
REMARK  status: ('A' for Active; 'I' for Inactive)
REMARK    1  A    between atoms: C_7  and  C_1 
REMARK    2  A    between atoms: S_2  and  N_8 
REMARK    3  A    between atoms: C_11  and  S_2 
REMARK    4  A    between atoms: O_17  and  C_7 
REMARK    5  A    between atoms: N_8  and  C_13 
REMARK    6  A    between atoms: C_22  and  O_17 
REMARK    7  A    between atoms: O_19  and  C_23 
REMARK    8  A    between atoms: C_23  and  C_22 
ROOT
ATOM      1  C   UNL d   1      30.102  16.000 -23.612  0.00  0.00     0.088 A 
ATOM      2  C   UNL d   1      29.764  15.639 -22.954  0.00  0.00     0.105 A 
ATOM      3  C   UNL d   1      30.909  16.058 -23.486  0.00  0.00     0.031 A 
ATOM      4  O   UNL d   1      30.379  15.472 -22.414  0.00  0.00    -0.307 OA
ATOM      5  C   UNL d   1      31.080  15.733 -22.747  0.00  0.00     0.100 A 
ATOM      6  C   UNL d   1      31.518  16.367 -23.952  0.00  0.00     0.022 A 
ATOM      7  C   UNL d   1      32.290  16.349 -23.677  0.00  0.00     0.094 A 
ATOM      8  C   UNL d   1      31.860  15.717 -22.474  0.00  0.00     0.026 A 
ATOM      9  C   UNL d   1      32.461  16.024 -22.938  0.00  0.00     0.022 A 
ATOM     10  C   UNL d   1      28.980  15.453 -22.803  0.00  0.00     0.027 C 
ENDROOT
BRANCH   7  11
ATOM     11  N   UNL d   1      32.923  16.677 -24.174  0.00  0.00    -0.158 NA
BRANCH  11  12
ATOM     12  S   UNL d   1      32.998  17.500 -24.279  0.00  0.00     0.285 S 
ATOM     13  O   UNL d   1      32.902  17.437 -25.096  0.00  0.00    -0.198 OA
ATOM     14  O   UNL d   1      33.101  17.598 -23.435  0.00  0.00    -0.198 OA
BRANCH  12  15
ATOM     15  C   UNL d   1      33.080  18.343 -24.347  0.00  0.00     0.105 A 
ATOM     16  C   UNL d   1      33.105  18.779 -23.646  0.00  0.00     0.013 A 
ATOM     17  C   UNL d   1      33.184  19.599 -23.674  0.00  0.00     0.001 A 
ATOM     18  C   UNL d   1      33.238  19.984 -24.404  0.00  0.00     0.000 A 
ATOM     19  C   UNL d   1      33.213  19.547 -25.097  0.00  0.00     0.001 A 
ATOM     20  C   UNL d   1      33.134  18.727 -25.069  0.00  0.00     0.013 A 
ENDBRANCH  12  15
ENDBRANCH  11  12
ENDBRANCH   7  11
BRANCH   1  21
ATOM     21  C   UNL d   1      29.645  16.247 -24.275  0.00  0.00     0.302 C 
ATOM     22  O   UNL d   1      29.415  15.711 -24.866  0.00  0.00    -0.259 OA
BRANCH  21  23
ATOM     23  O   UNL d   1      29.422  17.048 -24.333  0.00  0.00    -0.269 OA
BRANCH  23  24
ATOM     24  C   UNL d   1      29.115  17.356 -25.042  0.00  0.00     0.152 C 
BRANCH  24  25
ATOM     25  C   UNL d   1      28.538  17.943 -25.034  0.00  0.00     0.143 C 
BRANCH  25  26
ATOM     26  O   UNL d   1      28.653  18.672 -24.644  0.00  0.00    -0.324 OA
ATOM     27  C   UNL d   1      29.175  19.203 -24.946  0.00  0.00     0.182 C 
ENDBRANCH  25  26
ENDBRANCH  24  25
ENDBRANCH  23  24
ENDBRANCH  21  23
ENDBRANCH   1  21
TORSDOF 8
ENDMDL
MODEL 6
REMARK VINA RESULT:      -0.8      1.539      2.698
REMARK  8 active torsions:
REMARK  status: ('A' for Active; 'I' for Inactive)
REMARK    1  A    between atoms: C_7  and  C_1 
REMARK    2  A    between atoms: S_2  and  N_8 
REMARK    3  A    between atoms: C_11  and  S_2 
REMARK    4  A    between atoms: O_17  and  C_7 
REMARK    5  A    between atoms: N_8  and  C_13 
REMARK    6  A    between atoms: C_22  and  O_17 
REMARK    7  A    between atoms: O_19  and  C_23 
REMARK    8  A    between atoms: C_23  and  C_22 
ROOT
ATOM      1  C   UNL d   1      33.156  20.265 -23.010  0.00  0.00     0.088 A 
ATOM      2  C   UNL d   1      33.213  20.968 -23.434  0.00  0.00     0.105 A 
ATOM      3  C   UNL d   1      33.148  19.644 -23.544  0.00  0.00     0.031 A 
ATOM      4  O   UNL d   1      33.241  20.772 -24.245  0.00  0.00    -0.307 OA
ATOM      5  C   UNL d   1      33.201  19.956 -24.306  0.00  0.00     0.100 A 
ATOM      6  C   UNL d   1      33.100  18.826 -23.436  0.00  0.00     0.022 A 
ATOM      7  C   UNL d   1      33.104  18.328 -24.087  0.00  0.00     0.094 A 
ATOM      8  C   UNL d   1      33.205  19.451 -24.959  0.00  0.00     0.026 A 
ATOM      9  C   UNL d   1      33.157  18.640 -24.849  0.00  0.00     0.022 A 
ATOM     10  C   UNL d   1      33.241  21.742 -23.165  0.00  0.00     0.027 C 
ENDROOT
BRANCH   7  11
ATOM     11  N   UNL d   1      33.053  17.469 -23.962  0.00  0.00    -0.158 NA
BRANCH  11  12
ATOM     12  S   UNL d   1      32.313  17.091 -23.907  0.00  0.00     0.285 S 
ATOM     13  O   UNL d   1      32.456  16.858 -23.127  0.00  0.00    -0.198 OA
ATOM     14  O   UNL d   1      32.137  17.318 -24.713  0.00  0.00    -0.198 OA
BRANCH  12  15
ATOM     15  C   UNL d   1      31.552  16.716 -23.887  0.00  0.00     0.105 A 
ATOM     16  C   UNL d   1      31.384  16.233 -23.238  0.00  0.00     0.013 A 
ATOM     17  C   UNL d   1      30.654  15.853 -23.186  0.00  0.00     0.001 A 
ATOM     18  C   UNL d   1      30.091  15.955 -23.783  0.00  0.00     0.000 A 
ATOM     19  C   UNL d   1      30.262  16.435 -24.425  0.00  0.00     0.001 A 
ATOM     20  C   UNL d   1      30.993  16.815 -24.477  0.00  0.00     0.013 A 
ENDBRANCH  12  15
ENDBRANCH  11  12
ENDBRANCH   7  11
BRANCH   1  21
ATOM     21  C   UNL d   1      33.115  20.248 -22.168  0.00  0.00     0.302 C 
ATOM     22  O   UNL d   1      33.069  19.531 -21.752  0.00  0.00    -0.259 OA
BRANCH  21  23
ATOM     23  O   UNL d   1      33.121  20.970 -21.752  0.00  0.00    -0.269 OA
BRANCH  23  24
ATOM     24  C   UNL d   1      32.870  21.008 -20.960  0.00  0.00     0.152 C 
BRANCH  24  25
ATOM     25  C   UNL d   1      33.241  21.508 -20.421  0.00  0.00     0.143 C 
BRANCH  25  26
ATOM     26  O   UNL d   1      32.816  21.920 -19.833  0.00  0.00    -0.324 OA
ATOM     27  C   UNL d   1      33.203  22.442 -19.359  0.00  0.00     0.182 C 
ENDBRANCH  25  26
ENDBRANCH  24  25
ENDBRANCH  23  24
ENDBRANCH  21  23
ENDBRANCH   1  21
TORSDOF 8
ENDMDL
MODEL 7
REMARK VINA RESULT:       0.8      3.635      5.520
REMARK  8 active torsions:
REMARK  status: ('A' for Active; 'I' for Inactive)
REMARK    1  A    between atoms: C_7  and  C_1 
REMARK    2  A    between atoms: S_2  and  N_8 
REMARK    3  A    between atoms: C_11  and  S_2 
REMARK    4  A    between atoms: O_17  and  C_7 
REMARK    5  A    between atoms: N_8  and  C_13 
REMARK    6  A    between atoms: C_22  and  O_17 
REMARK    7  A    between atoms: O_19  and  C_23 
REMARK    8  A    between atoms: C_23  and  C_22 
ROOT
ATOM      1  C   UNL d   1      32.140  17.733 -23.258  0.00  0.00     0.088 A 
ATOM      2  C   UNL d   1      32.714  17.491 -22.721  0.00  0.00     0.105 A 
ATOM      3  C   UNL d   1      31.763  17.066 -23.549  0.00  0.00     0.031 A 
ATOM      4  O   UNL d   1      32.688  16.656 -22.683  0.00  0.00    -0.307 OA
ATOM      5  C   UNL d   1      32.100  16.402 -23.194  0.00  0.00     0.100 A 
ATOM      6  C   UNL d   1      31.150  16.976 -24.096  0.00  0.00     0.022 A 
ATOM      7  C   UNL d   1      30.879  16.225 -24.283  0.00  0.00     0.094 A 
ATOM      8  C   UNL d   1      31.825  15.648 -23.386  0.00  0.00     0.026 A 
ATOM      9  C   UNL d   1      31.217  15.561 -23.929  0.00  0.00     0.022 A 
ATOM     10  C   UNL d   1      33.241  17.936 -22.279  0.00  0.00     0.027 C 
ENDROOT
BRANCH   7  11
ATOM     11  N   UNL d   1      30.234  16.141 -24.860  0.00  0.00    -0.158 NA
BRANCH  11  12
ATOM     12  S   UNL d   1      29.439  16.194 -24.619  0.00  0.00     0.285 S 
ATOM     13  O   UNL d   1      29.334  16.910 -25.015  0.00  0.00    -0.198 OA
ATOM     14  O   UNL d   1      29.517  15.453 -24.198  0.00  0.00    -0.198 OA
BRANCH  12  15
ATOM     15  C   UNL d   1      28.632  16.214 -24.354  0.00  0.00     0.105 A 
ATOM     16  C   UNL d   1      28.204  15.509 -24.390  0.00  0.00     0.013 A 
ATOM     17  C   UNL d   1      27.418  15.491 -24.141  0.00  0.00     0.001 A 
ATOM     18  C   UNL d   1      27.060  16.180 -23.857  0.00  0.00     0.000 A 
ATOM     19  C   UNL d   1      27.488  16.878 -23.823  0.00  0.00     0.001 A 
ATOM     20  C   UNL d   1      28.275  16.895 -24.072  0.00  0.00     0.013 A 
ENDBRANCH  12  15
ENDBRANCH  11  12
ENDBRANCH   7  11
BRANCH   1  21
ATOM     21  C   UNL d   1      32.007  18.545 -23.439  0.00  0.00     0.302 C 
ATOM     22  O   UNL d   1      31.468  19.003 -23.003  0.00  0.00    -0.259 OA
BRANCH  21  23
ATOM     23  O   UNL d   1      32.429  18.890 -24.070  0.00  0.00    -0.269 OA
BRANCH  23  24
ATOM     24  C   UNL d   1      32.531  19.714 -24.114  0.00  0.00     0.152 C 
BRANCH  24  25
ATOM     25  C   UNL d   1      32.675  20.085 -24.835  0.00  0.00     0.143 C 
BRANCH  25  26
ATOM     26  O   UNL d   1      32.780  20.911 -24.896  0.00  0.00    -0.324 OA
ATOM     27  C   UNL d   1      32.970  21.334 -24.240  0.00  0.00     0.182 C 
ENDBRANCH  25  26
ENDBRANCH  24  25
ENDBRANCH  23  24
ENDBRANCH  21  23
ENDBRANCH   1  21
TORSDOF 8
ENDMDL
