MODEL 1
REMARK VINA RESULT:       5.8      0.000      0.000
REMARK  6 active torsions:
REMARK  status: ('A' for Active; 'I' for Inactive)
REMARK       I    between atoms: C_6  and  N_1 
REMARK    1  A    between atoms: C_7  and  C_3 
REMARK    2  A    between atoms: C_8  and  C_4 
REMARK    3  A    between atoms: C_11  and  C_6 
REMARK    4  A    between atoms: C_9  and  C_17 
REMARK    5  A    between atoms: C_17  and  C_11 
REMARK    6  A    between atoms: O_26  and  C_19 
ROOT
ATOM      1  N   UNL d   1     -41.488-121.812 -51.535  0.00  0.00    -0.195 N 
ATOM      2  N   UNL d   1     -41.421-121.834 -52.351  0.00  0.00    -0.163 NA
ATOM      3  C   UNL d   1     -41.596-122.568 -52.622  0.00  0.00     0.103 A 
ATOM      4  C   UNL d   1     -41.712-122.554 -51.293  0.00  0.00     0.088 A 
ATOM      5  C   UNL d   1     -41.781-123.022 -51.939  0.00  0.00     0.040 A 
ATOM      6  C   UNL d   1     -41.349-121.146 -51.058  0.00  0.00     0.281 C 
ATOM      7  O   UNL d   1     -41.446-121.223 -50.217  0.00  0.00    -0.265 OA
ENDROOT
BRANCH   3   8
ATOM      8  C   UNL d   1     -41.569-122.729 -53.413  0.00  0.00     0.019 A 
ATOM      9  C   UNL d   1     -41.611-122.093 -53.953  0.00  0.00     0.004 A 
ATOM     10  C   UNL d   1     -41.584-122.249 -54.779  0.00  0.00     0.024 A 
ATOM     11  C   UNL d   1     -41.516-123.023 -55.058  0.00  0.00     0.094 A 
ATOM     12  C   UNL d   1     -41.474-123.659 -54.518  0.00  0.00     0.024 A 
ATOM     13  C   UNL d   1     -41.501-123.502 -53.691  0.00  0.00     0.004 A 
BRANCH  11  14
ATOM     14  O   UNL d   1     -41.492-123.145 -55.874  0.00  0.00    -0.328 OA
ATOM     15  C   UNL d   1     -42.001-122.733 -56.394  0.00  0.00     0.181 C 
ENDBRANCH  11  14
ENDBRANCH   3   8
BRANCH   4  16
ATOM     16  C   UNL d   1     -41.857-122.827 -50.504  0.00  0.00     0.018 A 
ATOM     17  C   UNL d   1     -42.605-122.721 -50.159  0.00  0.00     0.002 A 
ATOM     18  C   UNL d   1     -42.747-122.986 -49.393  0.00  0.00     0.007 A 
ATOM     19  C   UNL d   1     -42.148-123.354 -48.971  0.00  0.00     0.035 A 
ATOM     20  C   UNL d   1     -41.399-123.460 -49.316  0.00  0.00     0.007 A 
ATOM     21 BR   UNL d   1     -42.290-123.620 -48.204  0.00  0.00    -0.049 Br
ATOM     22  C   UNL d   1     -41.246-123.198 -50.083  0.00  0.00     0.002 A 
ENDBRANCH   4  16
BRANCH   6  23
ATOM     23  C   UNL d   1     -41.125-120.421 -51.361  0.00  0.00     0.069 C 
BRANCH  23  24
ATOM     24  C   UNL d   1     -41.384-119.723 -51.030  0.00  0.00     0.075 C 
BRANCH  24  25
ATOM     25  C   UNL d   1     -41.217-119.000 -51.371  0.00  0.00     0.211 C 
ATOM     26  O   UNL d   1     -41.137-118.918 -52.188  0.00  0.00    -0.644 OA
ATOM     27  O   UNL d   1     -41.123-118.329 -50.909  0.00  0.00    -0.644 OA
ENDBRANCH  24  25
ENDBRANCH  23  24
ENDBRANCH   6  23
TORSDOF 6
ENDMDL
