MODEL 1
REMARK VINA RESULT:      51.2      0.000      0.000
REMARK  7 active torsions:
REMARK  status: ('A' for Active; 'I' for Inactive)
REMARK    1  A    between atoms: C_14  and  C_4 
REMARK    2  A    between atoms: N_17  and  C_5 
REMARK    3  A    between atoms: C_13  and  C_8 
REMARK    4  A    between atoms: N_11  and  C_18 
REMARK    5  A    between atoms: C_20  and  N_17 
REMARK    6  A    between atoms: C_18  and  C_19 
REMARK    7  A    between atoms: C_19  and  C_20 
ROOT
ATOM      1  C   UNL d   1     -51.313  25.590  33.356  0.00  0.00     0.168 A 
ATOM      2  N   UNL d   1     -50.968  26.354  33.361  0.00  0.00    -0.184 N 
ATOM      3  N   UNL d   1     -50.835  24.928  33.377  0.00  0.00    -0.231 NA
ATOM      4  C   UNL d   1     -52.117  25.508  33.329  0.00  0.00     0.057 A 
ATOM      5  C   UNL d   1     -50.164  26.411  33.388  0.00  0.00     0.217 A 
ATOM      6  N   UNL d   1     -52.247  26.918  33.314  0.00  0.00    -0.160 NA
ATOM      7  C   UNL d   1     -49.675  25.754  33.409  0.00  0.00     0.067 A 
ATOM      8  C   UNL d   1     -50.015  25.002  33.404  0.00  0.00     0.064 A 
ATOM      9  C   UNL d   1     -52.587  26.167  33.309  0.00  0.00     0.124 A 
ENDROOT
BRANCH   5  10
ATOM     10  N   UNL d   1     -49.813  27.187  33.394  0.00  0.00    -0.380 NA
BRANCH  10  11
ATOM     11  C   UNL d   1     -49.532  27.989  33.403  0.00  0.00     0.164 C 
BRANCH  11  12
ATOM     12  C   UNL d   1     -49.387  28.370  34.138  0.00  0.00     0.054 C 
BRANCH  12  13
ATOM     13  C   UNL d   1     -48.870  29.038  34.173  0.00  0.00     0.084 C 
BRANCH  13  14
ATOM     14  N   UNL d   1     -48.375  29.152  34.859  0.00  0.00    -0.285 N 
ATOM     15  C   UNL d   1     -47.993  28.543  35.298  0.00  0.00     0.183 A 
ATOM     16  N   UNL d   1     -47.562  28.911  35.930  0.00  0.00    -0.222 NA
ATOM     17  C   UNL d   1     -47.682  29.748  35.875  0.00  0.00     0.120 A 
ATOM     18  C   UNL d   1     -48.185  29.897  35.213  0.00  0.00     0.102 A 
ENDBRANCH  13  14
ENDBRANCH  12  13
ENDBRANCH  11  12
ENDBRANCH  10  11
ENDBRANCH   5  10
BRANCH   8  19
ATOM     19  C   UNL d   1     -49.519  24.308  33.426  0.00  0.00     0.036 C 
ATOM     20  C   UNL d   1     -49.864  23.535  33.306  0.00  0.00     0.006 C 
ATOM     21  C   UNL d   1     -49.034  23.620  33.446  0.00  0.00     0.006 C 
ATOM     22  C   UNL d   1     -48.685  24.391  33.567  0.00  0.00     0.006 C 
ENDBRANCH   8  19
BRANCH   4  23
ATOM     23  C   UNL d   1     -52.457  24.757  33.324  0.00  0.00     0.004 A 
ATOM     24  C   UNL d   1     -53.257  24.687  33.326  0.00  0.00     0.000 A 
ATOM     25  C   UNL d   1     -53.597  23.935  33.321  0.00  0.00     0.000 A 
ATOM     26  C   UNL d   1     -53.126  23.277  33.312  0.00  0.00     0.000 A 
ATOM     27  C   UNL d   1     -52.314  23.355  33.310  0.00  0.00     0.000 A 
ATOM     28  C   UNL d   1     -51.974  24.107  33.315  0.00  0.00     0.000 A 
ENDBRANCH   4  23
TORSDOF 7
ENDMDL
