MODEL 1
REMARK VINA RESULT:      -9.6      0.000      0.000
REMARK  2 active torsions:
REMARK  status: ('A' for Active; 'I' for Inactive)
REMARK    1  A    between atoms: C_13  and  N_5 
REMARK    2  A    between atoms: C_19  and  C_12 
ROOT
ATOM      1  C   UNL d   1      52.482  33.388  53.192  0.00  0.00     0.170 A 
ATOM      2  C   UNL d   1      53.177  33.265  53.574  0.00  0.00     0.093 A 
ATOM      3  N   UNL d   1      53.063  31.897  53.375  0.00  0.00    -0.256 N 
ATOM      4  C   UNL d   1      53.480  32.518  53.673  0.00  0.00     0.176 A 
ATOM      5  N   UNL d   1      52.190  34.130  53.099  0.00  0.00    -0.212 N 
ATOM      6  N   UNL d   1      52.075  32.752  52.899  0.00  0.00    -0.206 NA
ATOM      7  N   UNL d   1      54.171  32.405  54.054  0.00  0.00    -0.128 NA
ATOM      8  N   UNL d   1      52.607  34.755  53.397  0.00  0.00    -0.162 NA
ATOM      9  C   UNL d   1      52.368  32.019  52.993  0.00  0.00     0.187 A 
ATOM     10  N   UNL d   1      54.046  31.038  53.849  0.00  0.00    -0.128 NA
ATOM     11  C   UNL d   1      53.300  34.642  53.779  0.00  0.00     0.127 A 
ATOM     12  C   UNL d   1      53.354  31.155  53.467  0.00  0.00     0.172 A 
ENDROOT
BRANCH   5  13
ATOM     13  C   UNL d   1      51.475  34.246  52.705  0.00  0.00     0.085 A 
ATOM     14  C   UNL d   1      50.802  34.439  53.126  0.00  0.00     0.019 A 
ATOM     15  C   UNL d   1      50.077  34.557  52.722  0.00  0.00     0.002 A 
ATOM     16  C   UNL d   1      49.352  34.764  53.164  0.00  0.00     0.000 C 
ATOM     17  C   UNL d   1      50.041  34.479  51.895  0.00  0.00     0.000 A 
ATOM     18  C   UNL d   1      50.736  34.281  51.471  0.00  0.00     0.002 A 
ATOM     19  C   UNL d   1      49.292  34.600  51.473  0.00  0.00     0.000 C 
ATOM     20  C   UNL d   1      51.449  34.165  51.870  0.00  0.00     0.019 A 
ENDBRANCH   5  13
BRANCH  12  21
ATOM     21  C   UNL d   1      52.949  30.524  53.176  0.00  0.00     0.039 C 
ATOM     22  C   UNL d   1      53.181  29.782  53.359  0.00  0.00     0.003 C 
ENDBRANCH  12  21
TORSDOF 2
ENDMDL
MODEL 2
REMARK VINA RESULT:      -9.5      0.781      4.058
REMARK  2 active torsions:
REMARK  status: ('A' for Active; 'I' for Inactive)
REMARK    1  A    between atoms: C_13  and  N_5 
REMARK    2  A    between atoms: C_19  and  C_12 
ROOT
ATOM      1  C   UNL d   1      53.062  32.619  53.439  0.00  0.00     0.170 A 
ATOM      2  C   UNL d   1      53.245  33.400  53.475  0.00  0.00     0.093 A 
ATOM      3  N   UNL d   1      51.927  33.738  53.198  0.00  0.00    -0.256 N 
ATOM      4  C   UNL d   1      52.681  33.973  53.355  0.00  0.00     0.176 A 
ATOM      5  N   UNL d   1      53.625  32.061  53.558  0.00  0.00    -0.212 N 
ATOM      6  N   UNL d   1      52.299  32.400  53.279  0.00  0.00    -0.206 NA
ATOM      7  N   UNL d   1      52.871  34.747  53.393  0.00  0.00    -0.128 NA
ATOM      8  N   UNL d   1      54.383  32.295  53.716  0.00  0.00    -0.162 NA
ATOM      9  C   UNL d   1      51.745  32.956  53.162  0.00  0.00     0.187 A 
ATOM     10  N   UNL d   1      51.551  35.071  53.115  0.00  0.00    -0.128 NA
ATOM     11  C   UNL d   1      54.573  33.070  53.754  0.00  0.00     0.127 A 
ATOM     12  C   UNL d   1      51.364  34.295  53.078  0.00  0.00     0.172 A 
ENDROOT
BRANCH   5  13
ATOM     13  C   UNL d   1      53.429  31.261  53.519  0.00  0.00     0.085 A 
ATOM     14  C   UNL d   1      53.412  30.809  54.200  0.00  0.00     0.019 A 
ATOM     15  C   UNL d   1      53.212  29.996  54.157  0.00  0.00     0.002 A 
ATOM     16  C   UNL d   1      53.191  29.506  54.880  0.00  0.00     0.000 C 
ATOM     17  C   UNL d   1      53.030  29.649  53.423  0.00  0.00     0.000 A 
ATOM     18  C   UNL d   1      53.050  30.119  52.730  0.00  0.00     0.002 A 
ATOM     19  C   UNL d   1      52.823  28.806  53.374  0.00  0.00     0.000 C 
ATOM     20  C   UNL d   1      53.247  30.919  52.774  0.00  0.00     0.019 A 
ENDBRANCH   5  13
BRANCH  12  21
ATOM     21  C   UNL d   1      50.606  34.076  52.920  0.00  0.00     0.039 C 
ATOM     22  C   UNL d   1      50.051  34.632  52.779  0.00  0.00     0.003 C 
ENDBRANCH  12  21
TORSDOF 2
ENDMDL
MODEL 3
REMARK VINA RESULT:      -9.0      2.097      3.517
REMARK  2 active torsions:
REMARK  status: ('A' for Active; 'I' for Inactive)
REMARK    1  A    between atoms: C_13  and  N_5 
REMARK    2  A    between atoms: C_19  and  C_12 
ROOT
ATOM      1  C   UNL d   1      53.286  31.589  53.558  0.00  0.00     0.170 A 
ATOM      2  C   UNL d   1      52.800  31.112  53.133  0.00  0.00     0.093 A 
ATOM      3  N   UNL d   1      53.195  30.014  53.885  0.00  0.00    -0.256 N 
ATOM      4  C   UNL d   1      52.746  30.316  53.288  0.00  0.00     0.176 A 
ATOM      5  N   UNL d   1      53.333  32.373  53.398  0.00  0.00    -0.212 N 
ATOM      6  N   UNL d   1      53.730  31.268  54.155  0.00  0.00    -0.206 NA
ATOM      7  N   UNL d   1      52.261  29.849  52.861  0.00  0.00    -0.128 NA
ATOM      8  N   UNL d   1      52.883  32.679  52.799  0.00  0.00    -0.162 NA
ATOM      9  C   UNL d   1      53.680  30.491  54.310  0.00  0.00     0.187 A 
ATOM     10  N   UNL d   1      52.663  28.759  53.620  0.00  0.00    -0.128 NA
ATOM     11  C   UNL d   1      52.397  32.211  52.371  0.00  0.00     0.127 A 
ATOM     12  C   UNL d   1      53.148  29.230  54.046  0.00  0.00     0.172 A 
ENDROOT
BRANCH   5  13
ATOM     13  C   UNL d   1      53.834  32.857  53.840  0.00  0.00     0.085 A 
ATOM     14  C   UNL d   1      53.533  33.315  54.446  0.00  0.00     0.019 A 
ATOM     15  C   UNL d   1      54.045  33.804  54.893  0.00  0.00     0.002 A 
ATOM     16  C   UNL d   1      53.732  34.297  55.542  0.00  0.00     0.000 C 
ATOM     17  C   UNL d   1      54.859  33.825  54.722  0.00  0.00     0.000 A 
ATOM     18  C   UNL d   1      55.160  33.352  54.099  0.00  0.00     0.002 A 
ATOM     19  C   UNL d   1      55.394  34.332  55.183  0.00  0.00     0.000 C 
ATOM     20  C   UNL d   1      54.654  32.870  53.659  0.00  0.00     0.019 A 
ENDBRANCH   5  13
BRANCH  12  21
ATOM     21  C   UNL d   1      53.590  28.913  54.639  0.00  0.00     0.039 C 
ATOM     22  C   UNL d   1      53.415  28.188  54.923  0.00  0.00     0.003 C 
ENDBRANCH  12  21
TORSDOF 2
ENDMDL
MODEL 4
REMARK VINA RESULT:      -7.6      1.452      4.186
REMARK  2 active torsions:
REMARK  status: ('A' for Active; 'I' for Inactive)
REMARK    1  A    between atoms: C_13  and  N_5 
REMARK    2  A    between atoms: C_19  and  C_12 
ROOT
ATOM      1  C   UNL d   1      52.672  32.637  53.499  0.00  0.00     0.170 A 
ATOM      2  C   UNL d   1      52.051  32.231  53.193  0.00  0.00     0.093 A 
ATOM      3  N   UNL d   1      51.309  33.400  53.103  0.00  0.00    -0.256 N 
ATOM      4  C   UNL d   1      51.360  32.605  52.990  0.00  0.00     0.176 A 
ATOM      5  N   UNL d   1      53.352  32.260  53.697  0.00  0.00    -0.212 N 
ATOM      6  N   UNL d   1      52.605  33.437  53.607  0.00  0.00    -0.206 NA
ATOM      7  N   UNL d   1      50.747  32.193  52.686  0.00  0.00    -0.128 NA
ATOM      8  N   UNL d   1      53.404  31.461  53.583  0.00  0.00    -0.162 NA
ATOM      9  C   UNL d   1      51.931  33.807  53.410  0.00  0.00     0.187 A 
ATOM     10  N   UNL d   1      50.015  33.370  52.602  0.00  0.00    -0.128 NA
ATOM     11  C   UNL d   1      52.791  31.049  53.279  0.00  0.00     0.127 A 
ATOM     12  C   UNL d   1      50.631  33.778  52.906  0.00  0.00     0.172 A 
ENDROOT
BRANCH   5  13
ATOM     13  C   UNL d   1      53.985  32.685  54.011  0.00  0.00     0.085 A 
ATOM     14  C   UNL d   1      54.014  32.845  54.812  0.00  0.00     0.019 A 
ATOM     15  C   UNL d   1      54.659  33.277  55.127  0.00  0.00     0.002 A 
ATOM     16  C   UNL d   1      54.698  33.453  55.982  0.00  0.00     0.000 C 
ATOM     17  C   UNL d   1      55.269  33.544  54.628  0.00  0.00     0.000 A 
ATOM     18  C   UNL d   1      55.231  33.376  53.808  0.00  0.00     0.002 A 
ATOM     19  C   UNL d   1      55.939  33.993  54.951  0.00  0.00     0.000 C 
ATOM     20  C   UNL d   1      54.595  32.950  53.498  0.00  0.00     0.019 A 
ENDBRANCH   5  13
BRANCH  12  21
ATOM     21  C   UNL d   1      50.565  34.574  53.014  0.00  0.00     0.039 C 
ATOM     22  C   UNL d   1      49.866  34.937  52.888  0.00  0.00     0.003 C 
ENDBRANCH  12  21
TORSDOF 2
ENDMDL
MODEL 5
REMARK VINA RESULT:      -7.6      1.082      2.331
REMARK  2 active torsions:
REMARK  status: ('A' for Active; 'I' for Inactive)
REMARK    1  A    between atoms: C_13  and  N_5 
REMARK    2  A    between atoms: C_19  and  C_12 
ROOT
ATOM      1  C   UNL d   1      52.700  32.821  53.402  0.00  0.00     0.170 A 
ATOM      2  C   UNL d   1      53.298  32.297  53.513  0.00  0.00     0.093 A 
ATOM      3  N   UNL d   1      53.991  33.225  54.277  0.00  0.00    -0.256 N 
ATOM      4  C   UNL d   1      53.953  32.489  53.952  0.00  0.00     0.176 A 
ATOM      5  N   UNL d   1      52.056  32.623  52.967  0.00  0.00    -0.212 N 
ATOM      6  N   UNL d   1      52.754  33.557  53.736  0.00  0.00    -0.206 NA
ATOM      7  N   UNL d   1      54.543  31.962  54.058  0.00  0.00    -0.128 NA
ATOM      8  N   UNL d   1      52.016  31.884  52.640  0.00  0.00    -0.162 NA
ATOM      9  C   UNL d   1      53.393  33.750  54.166  0.00  0.00     0.187 A 
ATOM     10  N   UNL d   1      55.227  32.899  54.820  0.00  0.00    -0.128 NA
ATOM     11  C   UNL d   1      52.606  31.356  52.746  0.00  0.00     0.127 A 
ATOM     12  C   UNL d   1      54.634  33.424  54.712  0.00  0.00     0.172 A 
ENDROOT
BRANCH   5  13
ATOM     13  C   UNL d   1      51.447  33.168  52.858  0.00  0.00     0.085 A 
ATOM     14  C   UNL d   1      51.391  33.586  52.158  0.00  0.00     0.019 A 
ATOM     15  C   UNL d   1      50.771  34.139  52.051  0.00  0.00     0.002 A 
ATOM     16  C   UNL d   1      50.704  34.591  51.306  0.00  0.00     0.000 C 
ATOM     17  C   UNL d   1      50.212  34.263  52.654  0.00  0.00     0.000 A 
ATOM     18  C   UNL d   1      50.276  33.830  53.369  0.00  0.00     0.002 A 
ATOM     19  C   UNL d   1      49.567  34.835  52.547  0.00  0.00     0.000 C 
ATOM     20  C   UNL d   1      50.887  33.286  53.473  0.00  0.00     0.019 A 
ENDBRANCH   5  13
BRANCH  12  21
ATOM     21  C   UNL d   1      54.687  34.156  55.043  0.00  0.00     0.039 C 
ATOM     22  C   UNL d   1      55.327  34.352  55.479  0.00  0.00     0.003 C 
ENDBRANCH  12  21
TORSDOF 2
ENDMDL
MODEL 6
REMARK VINA RESULT:      -7.0      1.427      3.782
REMARK  2 active torsions:
REMARK  status: ('A' for Active; 'I' for Inactive)
REMARK    1  A    between atoms: C_13  and  N_5 
REMARK    2  A    between atoms: C_19  and  C_12 
ROOT
ATOM      1  C   UNL d   1      52.927  32.651  53.501  0.00  0.00     0.170 A 
ATOM      2  C   UNL d   1      52.833  33.449  53.490  0.00  0.00     0.093 A 
ATOM      3  N   UNL d   1      53.834  33.595  54.440  0.00  0.00    -0.256 N 
ATOM      4  C   UNL d   1      53.285  33.934  53.960  0.00  0.00     0.176 A 
ATOM      5  N   UNL d   1      52.476  32.180  53.034  0.00  0.00    -0.212 N 
ATOM      6  N   UNL d   1      53.484  32.327  53.990  0.00  0.00    -0.206 NA
ATOM      7  N   UNL d   1      53.185  34.726  53.943  0.00  0.00    -0.128 NA
ATOM      8  N   UNL d   1      51.924  32.518  52.550  0.00  0.00    -0.162 NA
ATOM      9  C   UNL d   1      53.928  32.797  54.451  0.00  0.00     0.187 A 
ATOM     10  N   UNL d   1      54.188  34.859  54.893  0.00  0.00    -0.128 NA
ATOM     11  C   UNL d   1      51.824  33.311  52.534  0.00  0.00     0.127 A 
ATOM     12  C   UNL d   1      54.285  34.066  54.907  0.00  0.00     0.172 A 
ENDROOT
BRANCH   5  13
ATOM     13  C   UNL d   1      52.580  31.361  53.051  0.00  0.00     0.085 A 
ATOM     14  C   UNL d   1      52.063  30.892  53.476  0.00  0.00     0.019 A 
ATOM     15  C   UNL d   1      52.171  30.061  53.491  0.00  0.00     0.002 A 
ATOM     16  C   UNL d   1      51.623  29.552  53.942  0.00  0.00     0.000 C 
ATOM     17  C   UNL d   1      52.802  29.713  53.075  0.00  0.00     0.000 A 
ATOM     18  C   UNL d   1      53.327  30.202  52.643  0.00  0.00     0.002 A 
ATOM     19  C   UNL d   1      52.917  28.852  53.088  0.00  0.00     0.000 C 
ATOM     20  C   UNL d   1      53.220  31.020  52.628  0.00  0.00     0.019 A 
ENDBRANCH   5  13
BRANCH  12  21
ATOM     21  C   UNL d   1      54.838  33.741  55.393  0.00  0.00     0.039 C 
ATOM     22  C   UNL d   1      55.478  34.167  55.609  0.00  0.00     0.003 C 
ENDBRANCH  12  21
TORSDOF 2
ENDMDL
