MODEL 1
REMARK VINA RESULT:      -6.7      0.000      0.000
REMARK  5 active torsions:
REMARK  status: ('A' for Active; 'I' for Inactive)
REMARK    1  A    between atoms: C_2  and  S_1 
REMARK    2  A    between atoms: C_3  and  S_1 
REMARK    3  A    between atoms: C_5  and  C_3 
REMARK    4  A    between atoms: O_13  and  C_8 
REMARK    5  A    between atoms: O_14  and  C_10 
ROOT
ATOM      1  C   UNL d   1     -47.762  12.391  23.122  0.00  0.00     0.048 A 
ATOM      2  C   UNL d   1     -47.126  12.831  22.846  0.00  0.00     0.030 A 
ATOM      3  C   UNL d   1     -46.354  12.566  22.987  0.00  0.00     0.116 A 
ATOM      4  C   UNL d   1     -46.224  11.865  23.402  0.00  0.00     0.116 A 
ATOM      5  C   UNL d   1     -47.641  11.689  23.538  0.00  0.00     0.006 A 
ATOM      6  C   UNL d   1     -46.875  11.427  23.678  0.00  0.00     0.026 A 
ENDROOT
BRANCH   1   7
ATOM      7  C   UNL d   1     -48.534  12.656  22.980  0.00  0.00     0.227 C 
ATOM      8  O   UNL d   1     -48.850  13.260  23.445  0.00  0.00    -0.279 OA
BRANCH   7   9
ATOM      9  S   UNL d   1     -48.980  12.314  22.377  0.00  0.00    -0.020 SA
BRANCH   9  10
ATOM     10  C   UNL d   1     -49.738  12.597  22.220  0.00  0.00     0.143 A 
ATOM     11  N   UNL d   1     -50.430  12.379  22.628  0.00  0.00    -0.230 NA
ATOM     12  C   UNL d   1     -51.057  12.797  22.286  0.00  0.00     0.107 A 
ATOM     13  C   UNL d   1     -50.761  13.266  21.679  0.00  0.00     0.058 A 
ATOM     14  S   UNL d   1     -49.950  13.139  21.642  0.00  0.00    -0.059 SA
ENDBRANCH   9  10
ENDBRANCH   7   9
ENDBRANCH   1   7
BRANCH   3  15
ATOM     15  O   UNL d   1     -45.734  13.025  22.700  0.00  0.00    -0.326 OA
ATOM     16  C   UNL d   1     -45.836  13.840  22.610  0.00  0.00     0.181 C 
ENDBRANCH   3  15
BRANCH   4  17
ATOM     17  O   UNL d   1     -45.462  11.603  23.542  0.00  0.00    -0.326 OA
ATOM     18  C   UNL d   1     -45.310  10.798  23.640  0.00  0.00     0.181 C 
ENDBRANCH   4  17
TORSDOF 5
ENDMDL
MODEL 2
REMARK VINA RESULT:      -6.3      1.653      2.181
REMARK  5 active torsions:
REMARK  status: ('A' for Active; 'I' for Inactive)
REMARK    1  A    between atoms: C_2  and  S_1 
REMARK    2  A    between atoms: C_3  and  S_1 
REMARK    3  A    between atoms: C_5  and  C_3 
REMARK    4  A    between atoms: O_13  and  C_8 
REMARK    5  A    between atoms: O_14  and  C_10 
ROOT
ATOM      1  C   UNL d   1     -47.890  13.704  22.992  0.00  0.00     0.048 A 
ATOM      2  C   UNL d   1     -47.646  12.999  23.334  0.00  0.00     0.030 A 
ATOM      3  C   UNL d   1     -46.852  12.770  23.276  0.00  0.00     0.116 A 
ATOM      4  C   UNL d   1     -46.310  13.247  22.877  0.00  0.00     0.116 A 
ATOM      5  C   UNL d   1     -47.355  14.187  22.592  0.00  0.00     0.006 A 
ATOM      6  C   UNL d   1     -46.567  13.960  22.534  0.00  0.00     0.026 A 
ENDROOT
BRANCH   1   7
ATOM      7  C   UNL d   1     -48.684  13.933  23.051  0.00  0.00     0.227 C 
ATOM      8  O   UNL d   1     -49.251  13.383  23.289  0.00  0.00    -0.279 OA
BRANCH   7   9
ATOM      9  S   UNL d   1     -48.902  14.708  22.871  0.00  0.00    -0.020 SA
BRANCH   9  10
ATOM     10  C   UNL d   1     -49.675  14.956  23.008  0.00  0.00     0.143 A 
ATOM     11  N   UNL d   1     -50.334  14.773  22.534  0.00  0.00    -0.230 NA
ATOM     12  C   UNL d   1     -50.993  15.136  22.878  0.00  0.00     0.107 A 
ATOM     13  C   UNL d   1     -50.748  15.537  23.553  0.00  0.00     0.058 A 
ATOM     14  S   UNL d   1     -49.939  15.424  23.628  0.00  0.00    -0.059 SA
ENDBRANCH   9  10
ENDBRANCH   7   9
ENDBRANCH   1   7
BRANCH   3  15
ATOM     15  O   UNL d   1     -46.632  12.059  23.627  0.00  0.00    -0.326 OA
ATOM     16  C   UNL d   1     -47.186  11.450  23.698  0.00  0.00     0.181 C 
ENDBRANCH   3  15
BRANCH   4  17
ATOM     17  O   UNL d   1     -45.526  13.022  22.819  0.00  0.00    -0.326 OA
ATOM     18  C   UNL d   1     -45.058  13.300  22.198  0.00  0.00     0.181 C 
ENDBRANCH   4  17
TORSDOF 5
ENDMDL
MODEL 3
REMARK VINA RESULT:      -6.1      2.010      4.102
REMARK  5 active torsions:
REMARK  status: ('A' for Active; 'I' for Inactive)
REMARK    1  A    between atoms: C_2  and  S_1 
REMARK    2  A    between atoms: C_3  and  S_1 
REMARK    3  A    between atoms: C_5  and  C_3 
REMARK    4  A    between atoms: O_13  and  C_8 
REMARK    5  A    between atoms: O_14  and  C_10 
ROOT
ATOM      1  C   UNL d   1     -47.926  13.653  22.633  0.00  0.00     0.048 A 
ATOM      2  C   UNL d   1     -48.589  13.371  22.239  0.00  0.00     0.030 A 
ATOM      3  C   UNL d   1     -49.252  13.859  22.152  0.00  0.00     0.116 A 
ATOM      4  C   UNL d   1     -49.248  14.624  22.461  0.00  0.00     0.116 A 
ATOM      5  C   UNL d   1     -47.914  14.417  22.945  0.00  0.00     0.006 A 
ATOM      6  C   UNL d   1     -48.573  14.901  22.859  0.00  0.00     0.026 A 
ENDROOT
BRANCH   1   7
ATOM      7  C   UNL d   1     -47.263  13.165  22.720  0.00  0.00     0.227 C 
ATOM      8  O   UNL d   1     -46.782  13.011  22.068  0.00  0.00    -0.279 OA
BRANCH   7   9
ATOM      9  S   UNL d   1     -47.089  12.836  23.456  0.00  0.00    -0.020 SA
BRANCH   9  10
ATOM     10  C   UNL d   1     -46.603  12.173  23.501  0.00  0.00     0.143 A 
ATOM     11  N   UNL d   1     -45.784  12.163  23.355  0.00  0.00    -0.230 NA
ATOM     12  C   UNL d   1     -45.524  11.385  23.464  0.00  0.00     0.107 A 
ATOM     13  C   UNL d   1     -46.170  10.920  23.675  0.00  0.00     0.058 A 
ATOM     14  S   UNL d   1     -46.829  11.409  23.696  0.00  0.00    -0.059 SA
ENDBRANCH   9  10
ENDBRANCH   7   9
ENDBRANCH   1   7
BRANCH   3  15
ATOM     15  O   UNL d   1     -49.903  13.553  21.753  0.00  0.00    -0.326 OA
ATOM     16  C   UNL d   1     -49.884  12.774  21.478  0.00  0.00     0.181 C 
ENDBRANCH   3  15
BRANCH   4  17
ATOM     17  O   UNL d   1     -49.903  15.108  22.376  0.00  0.00    -0.326 OA
ATOM     18  C   UNL d   1     -50.038  15.723  22.909  0.00  0.00     0.181 C 
ENDBRANCH   4  17
TORSDOF 5
ENDMDL
MODEL 4
REMARK VINA RESULT:      -6.0      2.231      4.318
REMARK  5 active torsions:
REMARK  status: ('A' for Active; 'I' for Inactive)
REMARK    1  A    between atoms: C_2  and  S_1 
REMARK    2  A    between atoms: C_3  and  S_1 
REMARK    3  A    between atoms: C_5  and  C_3 
REMARK    4  A    between atoms: O_13  and  C_8 
REMARK    5  A    between atoms: O_14  and  C_10 
ROOT
ATOM      1  C   UNL d   1     -48.442  14.057  22.816  0.00  0.00     0.048 A 
ATOM      2  C   UNL d   1     -49.049  13.587  23.109  0.00  0.00     0.030 A 
ATOM      3  C   UNL d   1     -49.755  13.941  23.358  0.00  0.00     0.116 A 
ATOM      4  C   UNL d   1     -49.849  14.759  23.312  0.00  0.00     0.116 A 
ATOM      5  C   UNL d   1     -48.528  14.876  22.768  0.00  0.00     0.006 A 
ATOM      6  C   UNL d   1     -49.229  15.226  23.015  0.00  0.00     0.026 A 
ENDROOT
BRANCH   1   7
ATOM      7  C   UNL d   1     -47.736  13.703  22.568  0.00  0.00     0.227 C 
ATOM      8  O   UNL d   1     -47.736  13.213  21.904  0.00  0.00    -0.279 OA
BRANCH   7   9
ATOM      9  S   UNL d   1     -47.038  13.844  22.985  0.00  0.00    -0.020 SA
BRANCH   9  10
ATOM     10  C   UNL d   1     -46.376  13.375  22.841  0.00  0.00     0.143 A 
ATOM     11  N   UNL d   1     -46.168  12.690  23.264  0.00  0.00    -0.230 NA
ATOM     12  C   UNL d   1     -45.468  12.400  22.932  0.00  0.00     0.107 A 
ATOM     13  C   UNL d   1     -45.245  12.895  22.314  0.00  0.00     0.058 A 
ATOM     14  S   UNL d   1     -45.806  13.492  22.262  0.00  0.00    -0.059 SA
ENDBRANCH   9  10
ENDBRANCH   7   9
ENDBRANCH   1   7
BRANCH   3  15
ATOM     15  O   UNL d   1     -50.348  13.449  23.647  0.00  0.00    -0.326 OA
ATOM     16  C   UNL d   1     -50.423  12.682  23.350  0.00  0.00     0.181 C 
ENDBRANCH   3  15
BRANCH   4  17
ATOM     17  O   UNL d   1     -50.547  15.109  23.558  0.00  0.00    -0.326 OA
ATOM     18  C   UNL d   1     -50.578  15.922  23.698  0.00  0.00     0.181 C 
ENDBRANCH   4  17
TORSDOF 5
ENDMDL
MODEL 5
REMARK VINA RESULT:      -5.2      2.245      4.253
REMARK  5 active torsions:
REMARK  status: ('A' for Active; 'I' for Inactive)
REMARK    1  A    between atoms: C_2  and  S_1 
REMARK    2  A    between atoms: C_3  and  S_1 
REMARK    3  A    between atoms: C_5  and  C_3 
REMARK    4  A    between atoms: O_13  and  C_8 
REMARK    5  A    between atoms: O_14  and  C_10 
ROOT
ATOM      1  C   UNL d   1     -47.336  13.850  22.952  0.00  0.00     0.048 A 
ATOM      2  C   UNL d   1     -47.944  13.342  23.167  0.00  0.00     0.030 A 
ATOM      3  C   UNL d   1     -48.725  13.618  23.171  0.00  0.00     0.116 A 
ATOM      4  C   UNL d   1     -48.892  14.398  22.960  0.00  0.00     0.116 A 
ATOM      5  C   UNL d   1     -47.494  14.632  22.740  0.00  0.00     0.006 A 
ATOM      6  C   UNL d   1     -48.269  14.905  22.744  0.00  0.00     0.026 A 
ENDROOT
BRANCH   1   7
ATOM      7  C   UNL d   1     -46.555  13.574  22.948  0.00  0.00     0.227 C 
ATOM      8  O   UNL d   1     -46.122  13.565  23.650  0.00  0.00    -0.279 OA
BRANCH   7   9
ATOM      9  S   UNL d   1     -46.217  13.312  22.243  0.00  0.00    -0.020 SA
BRANCH   9  10
ATOM     10  C   UNL d   1     -45.477  12.949  22.256  0.00  0.00     0.143 A 
ATOM     11  N   UNL d   1     -45.272  12.283  22.711  0.00  0.00    -0.230 NA
ATOM     12  C   UNL d   1     -44.479  12.112  22.552  0.00  0.00     0.107 A 
ATOM     13  C   UNL d   1     -44.195  12.662  22.009  0.00  0.00     0.058 A 
ATOM     14  S   UNL d   1     -44.812  13.173  21.831  0.00  0.00    -0.059 SA
ENDBRANCH   9  10
ENDBRANCH   7   9
ENDBRANCH   1   7
BRANCH   3  15
ATOM     15  O   UNL d   1     -49.316  13.089  23.390  0.00  0.00    -0.326 OA
ATOM     16  C   UNL d   1     -49.220  12.283  23.237  0.00  0.00     0.181 C 
ENDBRANCH   3  15
BRANCH   4  17
ATOM     17  O   UNL d   1     -49.663  14.671  22.964  0.00  0.00    -0.326 OA
ATOM     18  C   UNL d   1     -49.817  15.481  22.935  0.00  0.00     0.181 C 
ENDBRANCH   4  17
TORSDOF 5
ENDMDL
MODEL 6
REMARK VINA RESULT:      -4.9      8.972      9.737
REMARK  5 active torsions:
REMARK  status: ('A' for Active; 'I' for Inactive)
REMARK    1  A    between atoms: C_2  and  S_1 
REMARK    2  A    between atoms: C_3  and  S_1 
REMARK    3  A    between atoms: C_5  and  C_3 
REMARK    4  A    between atoms: O_13  and  C_8 
REMARK    5  A    between atoms: O_14  and  C_10 
ROOT
ATOM      1  C   UNL d   1     -40.340  15.234  19.271  0.00  0.00     0.048 A 
ATOM      2  C   UNL d   1     -40.156  14.585  18.802  0.00  0.00     0.030 A 
ATOM      3  C   UNL d   1     -40.393  14.573  18.009  0.00  0.00     0.116 A 
ATOM      4  C   UNL d   1     -40.812  15.209  17.691  0.00  0.00     0.116 A 
ATOM      5  C   UNL d   1     -40.759  15.873  18.960  0.00  0.00     0.006 A 
ATOM      6  C   UNL d   1     -40.994  15.861  18.173  0.00  0.00     0.026 A 
ENDROOT
BRANCH   1   7
ATOM      7  C   UNL d   1     -40.103  15.245  20.064  0.00  0.00     0.227 C 
ATOM      8  O   UNL d   1     -40.386  14.669  20.583  0.00  0.00    -0.279 OA
BRANCH   7   9
ATOM      9  S   UNL d   1     -39.587  15.832  20.329  0.00  0.00    -0.020 SA
BRANCH   9  10
ATOM     10  C   UNL d   1     -39.298  15.801  21.100  0.00  0.00     0.143 A 
ATOM     11  N   UNL d   1     -39.745  15.922  21.790  0.00  0.00    -0.230 NA
ATOM     12  C   UNL d   1     -39.232  15.840  22.433  0.00  0.00     0.107 A 
ATOM     13  C   UNL d   1     -38.479  15.671  22.148  0.00  0.00     0.058 A 
ATOM     14  S   UNL d   1     -38.525  15.649  21.329  0.00  0.00    -0.059 SA
ENDBRANCH   9  10
ENDBRANCH   7   9
ENDBRANCH   1   7
BRANCH   3  15
ATOM     15  O   UNL d   1     -40.196  13.912  17.560  0.00  0.00    -0.326 OA
ATOM     16  C   UNL d   1     -39.467  13.542  17.677  0.00  0.00     0.181 C 
ENDBRANCH   3  15
BRANCH   4  17
ATOM     17  O   UNL d   1     -41.047  15.199  16.907  0.00  0.00    -0.326 OA
ATOM     18  C   UNL d   1     -41.468  15.833  16.590  0.00  0.00     0.181 C 
ENDBRANCH   4  17
TORSDOF 5
ENDMDL
