MODEL 1
REMARK VINA RESULT:      -6.8      0.000      0.000
REMARK  5 active torsions:
REMARK  status: ('A' for Active; 'I' for Inactive)
REMARK    1  A    between atoms: C_2  and  C_1 
REMARK       I    between atoms: N_3  and  C_1 
REMARK    2  A    between atoms: C_8  and  N_3 
REMARK    3  A    between atoms: N_4  and  C_9 
REMARK    4  A    between atoms: N_5  and  N_4 
REMARK    5  A    between atoms: C_10  and  N_5 
ROOT
ATOM      1  C   UNL d   1     -41.412-122.862 -50.482  0.00  0.00     0.085 A 
ATOM      2  C   UNL d   1     -41.313-122.553 -52.104  0.00  0.00     0.103 A 
ATOM      3  C   UNL d   1     -41.579-122.108 -50.774  0.00  0.00     0.021 A 
ATOM      4  C   UNL d   1     -41.194-123.460 -51.007  0.00  0.00     0.021 A 
ATOM      5  C   UNL d   1     -41.145-123.308 -51.813  0.00  0.00     0.022 A 
ATOM      6  C   UNL d   1     -41.531-121.949 -51.587  0.00  0.00     0.022 A 
ENDROOT
BRANCH   1   7
ATOM      7  N   UNL d   1     -41.461-123.017 -49.671  0.00  0.00    -0.208 NA
ATOM      8  C   UNL d   1     -42.198-123.141 -49.317  0.00  0.00     0.280 C 
ATOM      9  O   UNL d   1     -42.941-123.131 -49.683  0.00  0.00    -0.265 OA
BRANCH   8  10
ATOM     10  C   UNL d   1     -42.028-123.275 -48.525  0.00  0.00     0.069 A 
ATOM     11  C   UNL d   1     -42.602-123.611 -48.040  0.00  0.00     0.062 A 
ATOM     12 CL   UNL d   1     -43.339-123.811 -48.340  0.00  0.00    -0.082 Cl
ATOM     13  C   UNL d   1     -42.432-123.747 -47.239  0.00  0.00     0.012 A 
ATOM     14  C   UNL d   1     -41.687-123.545 -46.936  0.00  0.00     0.001 A 
ATOM     15  C   UNL d   1     -41.123-123.210 -47.436  0.00  0.00     0.000 A 
ATOM     16  C   UNL d   1     -41.294-123.077 -48.224  0.00  0.00     0.006 A 
ENDBRANCH   8  10
ENDBRANCH   1   7
BRANCH   2  17
ATOM     17  N   UNL d   1     -41.263-122.402 -52.914  0.00  0.00    -0.148 NA
BRANCH  17  18
ATOM     18  N   UNL d   1     -41.866-122.653 -53.417  0.00  0.00    -0.148 NA
BRANCH  18  19
ATOM     19  C   UNL d   1     -41.877-122.406 -54.208  0.00  0.00     0.103 A 
ATOM     20  C   UNL d   1     -42.481-121.919 -54.482  0.00  0.00     0.021 A 
ATOM     21  C   UNL d   1     -42.491-121.675 -55.264  0.00  0.00     0.002 A 
ATOM     22  C   UNL d   1     -41.892-121.918 -55.780  0.00  0.00     0.000 A 
ATOM     23  C   UNL d   1     -41.284-122.404 -55.514  0.00  0.00     0.002 A 
ATOM     24  C   UNL d   1     -41.278-122.648 -54.724  0.00  0.00     0.021 A 
ENDBRANCH  18  19
ENDBRANCH  17  18
ENDBRANCH   2  17
TORSDOF 5
ENDMDL
MODEL 2
REMARK VINA RESULT:      -5.1      1.544      5.759
REMARK  5 active torsions:
REMARK  status: ('A' for Active; 'I' for Inactive)
REMARK    1  A    between atoms: C_2  and  C_1 
REMARK       I    between atoms: N_3  and  C_1 
REMARK    2  A    between atoms: C_8  and  N_3 
REMARK    3  A    between atoms: N_4  and  C_9 
REMARK    4  A    between atoms: N_5  and  N_4 
REMARK    5  A    between atoms: C_10  and  N_5 
ROOT
ATOM      1  C   UNL d   1     -41.265-122.921 -52.084  0.00  0.00     0.085 A 
ATOM      2  C   UNL d   1     -41.187-123.111 -50.442  0.00  0.00     0.103 A 
ATOM      3  C   UNL d   1     -41.251-122.261 -51.588  0.00  0.00     0.021 A 
ATOM      4  C   UNL d   1     -41.239-123.676 -51.753  0.00  0.00     0.021 A 
ATOM      5  C   UNL d   1     -41.200-123.772 -50.939  0.00  0.00     0.022 A 
ATOM      6  C   UNL d   1     -41.212-122.352 -50.764  0.00  0.00     0.022 A 
ENDROOT
BRANCH   1   7
ATOM      7  N   UNL d   1     -41.304-122.827 -52.905  0.00  0.00    -0.208 NA
ATOM      8  C   UNL d   1     -41.923-122.396 -53.243  0.00  0.00     0.280 C 
ATOM      9  O   UNL d   1     -42.551-122.023 -52.851  0.00  0.00    -0.265 OA
BRANCH   8  10
ATOM     10  C   UNL d   1     -41.778-122.422 -54.051  0.00  0.00     0.069 A 
ATOM     11  C   UNL d   1     -42.149-121.880 -54.546  0.00  0.00     0.062 A 
ATOM     12 CL   UNL d   1     -42.660-121.316 -54.240  0.00  0.00    -0.082 Cl
ATOM     13  C   UNL d   1     -42.003-121.905 -55.363  0.00  0.00     0.012 A 
ATOM     14  C   UNL d   1     -41.486-122.475 -55.671  0.00  0.00     0.001 A 
ATOM     15  C   UNL d   1     -41.123-123.012 -55.161  0.00  0.00     0.000 A 
ATOM     16  C   UNL d   1     -41.269-122.984 -54.357  0.00  0.00     0.006 A 
ENDBRANCH   8  10
ENDBRANCH   1   7
BRANCH   2  17
ATOM     17  N   UNL d   1     -41.148-123.210 -49.624  0.00  0.00    -0.148 NA
BRANCH  17  18
ATOM     18  N   UNL d   1     -41.833-123.376 -49.197  0.00  0.00    -0.148 NA
BRANCH  18  19
ATOM     19  C   UNL d   1     -41.818-123.369 -48.369  0.00  0.00     0.103 A 
ATOM     20  C   UNL d   1     -41.140-123.129 -47.968  0.00  0.00     0.021 A 
ATOM     21  C   UNL d   1     -41.125-123.122 -47.149  0.00  0.00     0.002 A 
ATOM     22  C   UNL d   1     -41.794-123.356 -46.722  0.00  0.00     0.000 A 
ATOM     23  C   UNL d   1     -42.476-123.597 -47.115  0.00  0.00     0.002 A 
ATOM     24  C   UNL d   1     -42.486-123.603 -47.942  0.00  0.00     0.021 A 
ENDBRANCH  18  19
ENDBRANCH  17  18
ENDBRANCH   2  17
TORSDOF 5
ENDMDL
