MODEL 1
REMARK VINA RESULT:      -6.5      0.000      0.000
REMARK  5 active torsions:
REMARK  status: ('A' for Active; 'I' for Inactive)
REMARK    1  A    between atoms: C_5  and  C_1 
REMARK    2  A    between atoms: C_9  and  N_2 
REMARK    3  A    between atoms: N_8  and  C_5 
REMARK    4  A    between atoms: N_6  and  C_10 
REMARK    5  A    between atoms: C_18  and  N_8 
ROOT
ATOM      1  C   UNL d   1     -47.860  13.169  22.900  0.00  0.00     0.067 A 
ATOM      2  N   UNL d   1     -46.509  12.926  22.859  0.00  0.00    -0.230 N 
ATOM      3  C   UNL d   1     -47.209  13.011  22.377  0.00  0.00     0.087 A 
ATOM      4  N   UNL d   1     -46.733  13.032  23.676  0.00  0.00    -0.164 NA
ATOM      5  C   UNL d   1     -47.567  13.182  23.698  0.00  0.00     0.124 A 
ATOM      6  C   UNL d   1     -47.241  12.951  21.562  0.00  0.00     0.021 C 
ENDROOT
BRANCH   1   7
ATOM      7  C   UNL d   1     -48.643  13.289  22.669  0.00  0.00     0.139 C 
ATOM      8  S   UNL d   1     -49.206  12.722  22.827  0.00  0.00    -0.057 SA
BRANCH   7   9
ATOM      9  N   UNL d   1     -48.851  13.976  22.282  0.00  0.00    -0.235 NA
BRANCH   9  10
ATOM     10  C   UNL d   1     -49.588  14.296  22.398  0.00  0.00     0.082 A 
ATOM     11  C   UNL d   1     -50.216  14.071  21.924  0.00  0.00     0.019 A 
ATOM     12  C   UNL d   1     -50.944  14.391  22.045  0.00  0.00     0.002 A 
ATOM     13  C   UNL d   1     -51.064  14.946  22.643  0.00  0.00     0.000 A 
ATOM     14  C   UNL d   1     -50.445  15.172  23.114  0.00  0.00     0.002 A 
ATOM     15  C   UNL d   1     -49.702  14.848  22.995  0.00  0.00     0.019 A 
ENDBRANCH   9  10
ENDBRANCH   7   9
ENDBRANCH   1   7
BRANCH   2  16
ATOM     16  C   UNL d   1     -45.745  12.769  22.591  0.00  0.00     0.083 A 
ATOM     17  C   UNL d   1     -45.370  12.067  22.826  0.00  0.00     0.021 A 
ATOM     18  C   UNL d   1     -44.604  11.902  22.562  0.00  0.00     0.025 A 
ATOM     19  C   UNL d   1     -44.215  12.439  22.064  0.00  0.00     0.127 A 
ATOM     20  C   UNL d   1     -44.590  13.141  21.829  0.00  0.00     0.025 A 
ATOM     21  C   UNL d   1     -45.355  13.299  22.098  0.00  0.00     0.021 A 
BRANCH  19  22
ATOM     22  N   UNL d   1     -43.449  12.274  21.800  0.00  0.00    -0.114 N 
ATOM     23  O   UNL d   1     -43.193  12.549  21.066  0.00  0.00    -0.532 OA
ATOM     24  O   UNL d   1     -42.933  11.830  22.270  0.00  0.00    -0.532 OA
ENDBRANCH  19  22
ENDBRANCH   2  16
TORSDOF 5
ENDMDL
MODEL 2
REMARK VINA RESULT:      -6.4      2.716      5.371
REMARK  5 active torsions:
REMARK  status: ('A' for Active; 'I' for Inactive)
REMARK    1  A    between atoms: C_5  and  C_1 
REMARK    2  A    between atoms: C_9  and  N_2 
REMARK    3  A    between atoms: N_8  and  C_5 
REMARK    4  A    between atoms: N_6  and  C_10 
REMARK    5  A    between atoms: C_18  and  N_8 
ROOT
ATOM      1  C   UNL d   1     -46.493  12.598  22.842  0.00  0.00     0.067 A 
ATOM      2  N   UNL d   1     -47.457  13.535  22.562  0.00  0.00    -0.230 N 
ATOM      3  C   UNL d   1     -47.283  12.843  23.033  0.00  0.00     0.087 A 
ATOM      4  N   UNL d   1     -46.772  13.711  22.085  0.00  0.00    -0.164 NA
ATOM      5  C   UNL d   1     -46.179  13.131  22.259  0.00  0.00     0.124 A 
ATOM      6  C   UNL d   1     -47.789  12.487  23.567  0.00  0.00     0.021 C 
ENDROOT
BRANCH   1   7
ATOM      7  C   UNL d   1     -46.099  11.950  23.169  0.00  0.00     0.139 C 
ATOM      8  S   UNL d   1     -46.508  11.265  23.331  0.00  0.00    -0.057 SA
BRANCH   7   9
ATOM      9  N   UNL d   1     -45.301  11.999  23.329  0.00  0.00    -0.235 NA
BRANCH   9  10
ATOM     10  C   UNL d   1     -44.852  11.323  23.347  0.00  0.00     0.082 A 
ATOM     11  C   UNL d   1     -45.151  10.638  23.682  0.00  0.00     0.019 A 
ATOM     12  C   UNL d   1     -44.703   9.971  23.698  0.00  0.00     0.002 A 
ATOM     13  C   UNL d   1     -43.942   9.969  23.379  0.00  0.00     0.000 A 
ATOM     14  C   UNL d   1     -43.642  10.645  23.046  0.00  0.00     0.002 A 
ATOM     15  C   UNL d   1     -44.096  11.326  23.028  0.00  0.00     0.019 A 
ENDBRANCH   9  10
ENDBRANCH   7   9
ENDBRANCH   1   7
BRANCH   2  16
ATOM     16  C   UNL d   1     -48.161  13.964  22.563  0.00  0.00     0.083 A 
ATOM     17  C   UNL d   1     -48.170  14.728  22.889  0.00  0.00     0.021 A 
ATOM     18  C   UNL d   1     -48.870  15.165  22.893  0.00  0.00     0.025 A 
ATOM     19  C   UNL d   1     -49.563  14.838  22.572  0.00  0.00     0.127 A 
ATOM     20  C   UNL d   1     -49.554  14.075  22.246  0.00  0.00     0.025 A 
ATOM     21  C   UNL d   1     -48.849  13.645  22.246  0.00  0.00     0.021 A 
BRANCH  19  22
ATOM     22  N   UNL d   1     -50.264  15.275  22.576  0.00  0.00    -0.114 N 
ATOM     23  O   UNL d   1     -50.402  15.836  23.164  0.00  0.00    -0.532 OA
ATOM     24  O   UNL d   1     -50.835  15.154  21.990  0.00  0.00    -0.532 OA
ENDBRANCH  19  22
ENDBRANCH   2  16
TORSDOF 5
ENDMDL
MODEL 3
REMARK VINA RESULT:      -5.3      8.214      9.296
REMARK  5 active torsions:
REMARK  status: ('A' for Active; 'I' for Inactive)
REMARK    1  A    between atoms: C_5  and  C_1 
REMARK    2  A    between atoms: C_9  and  N_2 
REMARK    3  A    between atoms: N_8  and  C_5 
REMARK    4  A    between atoms: N_6  and  C_10 
REMARK    5  A    between atoms: C_18  and  N_8 
ROOT
ATOM      1  C   UNL d   1     -38.810  14.532  20.143  0.00  0.00     0.067 A 
ATOM      2  N   UNL d   1     -39.363  15.022  18.986  0.00  0.00    -0.230 N 
ATOM      3  C   UNL d   1     -39.518  14.539  19.673  0.00  0.00     0.087 A 
ATOM      4  N   UNL d   1     -38.562  15.309  19.036  0.00  0.00    -0.164 NA
ATOM      5  C   UNL d   1     -38.222  15.004  19.751  0.00  0.00     0.124 A 
ATOM      6  C   UNL d   1     -40.220  14.157  19.843  0.00  0.00     0.021 C 
ENDROOT
BRANCH   1   7
ATOM      7  C   UNL d   1     -38.713  14.131  20.858  0.00  0.00     0.139 C 
ATOM      8  S   UNL d   1     -38.423  13.370  20.862  0.00  0.00    -0.057 SA
BRANCH   7   9
ATOM      9  N   UNL d   1     -38.907  14.500  21.559  0.00  0.00    -0.235 NA
BRANCH   9  10
ATOM     10  C   UNL d   1     -38.789  14.114  22.263  0.00  0.00     0.082 A 
ATOM     11  C   UNL d   1     -39.392  13.674  22.600  0.00  0.00     0.019 A 
ATOM     12  C   UNL d   1     -39.269  13.293  23.297  0.00  0.00     0.002 A 
ATOM     13  C   UNL d   1     -38.539  13.341  23.678  0.00  0.00     0.000 A 
ATOM     14  C   UNL d   1     -37.940  13.775  23.348  0.00  0.00     0.002 A 
ATOM     15  C   UNL d   1     -38.061  14.165  22.638  0.00  0.00     0.019 A 
ENDBRANCH   9  10
ENDBRANCH   7   9
ENDBRANCH   1   7
BRANCH   2  16
ATOM     16  C   UNL d   1     -39.891  15.188  18.374  0.00  0.00     0.083 A 
ATOM     17  C   UNL d   1     -39.825  14.774  17.658  0.00  0.00     0.021 A 
ATOM     18  C   UNL d   1     -40.349  14.934  17.040  0.00  0.00     0.025 A 
ATOM     19  C   UNL d   1     -40.940  15.508  17.139  0.00  0.00     0.127 A 
ATOM     20  C   UNL d   1     -41.007  15.922  17.855  0.00  0.00     0.025 A 
ATOM     21  C   UNL d   1     -40.478  15.756  18.468  0.00  0.00     0.021 A 
BRANCH  19  22
ATOM     22  N   UNL d   1     -41.465  15.668  16.521  0.00  0.00    -0.114 N 
ATOM     23  O   UNL d   1     -42.262  15.808  16.677  0.00  0.00    -0.532 OA
ATOM     24  O   UNL d   1     -41.195  15.689  15.739  0.00  0.00    -0.532 OA
ENDBRANCH  19  22
ENDBRANCH   2  16
TORSDOF 5
ENDMDL
MODEL 4
REMARK VINA RESULT:      -4.9      8.186      8.893
REMARK  5 active torsions:
REMARK  status: ('A' for Active; 'I' for Inactive)
REMARK    1  A    between atoms: C_5  and  C_1 
REMARK    2  A    between atoms: C_9  and  N_2 
REMARK    3  A    between atoms: N_8  and  C_5 
REMARK    4  A    between atoms: N_6  and  C_10 
REMARK    5  A    between atoms: C_18  and  N_8 
ROOT
ATOM      1  C   UNL d   1     -39.245  15.251  18.681  0.00  0.00     0.067 A 
ATOM      2  N   UNL d   1     -38.805  14.961  19.949  0.00  0.00    -0.230 N 
ATOM      3  C   UNL d   1     -39.452  14.851  19.402  0.00  0.00     0.087 A 
ATOM      4  N   UNL d   1     -38.204  15.426  19.562  0.00  0.00    -0.164 NA
ATOM      5  C   UNL d   1     -38.478  15.604  18.780  0.00  0.00     0.124 A 
ATOM      6  C   UNL d   1     -40.141  14.437  19.549  0.00  0.00     0.021 C 
ENDROOT
BRANCH   1   7
ATOM      7  C   UNL d   1     -39.712  15.288  18.001  0.00  0.00     0.139 C 
ATOM      8  S   UNL d   1     -39.660  14.700  17.439  0.00  0.00    -0.057 SA
BRANCH   7   9
ATOM      9  N   UNL d   1     -40.224  15.913  17.894  0.00  0.00    -0.235 NA
BRANCH   9  10
ATOM     10  C   UNL d   1     -40.727  15.916  17.257  0.00  0.00     0.082 A 
ATOM     11  C   UNL d   1     -40.429  15.916  16.494  0.00  0.00     0.019 A 
ATOM     12  C   UNL d   1     -40.932  15.919  15.867  0.00  0.00     0.002 A 
ATOM     13  C   UNL d   1     -41.748  15.922  15.985  0.00  0.00     0.000 A 
ATOM     14  C   UNL d   1     -42.048  15.922  16.738  0.00  0.00     0.002 A 
ATOM     15  C   UNL d   1     -41.538  15.919  17.379  0.00  0.00     0.019 A 
ENDBRANCH   9  10
ENDBRANCH   7   9
ENDBRANCH   1   7
BRANCH   2  16
ATOM     16  C   UNL d   1     -38.761  14.670  20.719  0.00  0.00     0.083 A 
ATOM     17  C   UNL d   1     -38.336  13.972  20.865  0.00  0.00     0.021 A 
ATOM     18  C   UNL d   1     -38.286  13.674  21.634  0.00  0.00     0.025 A 
ATOM     19  C   UNL d   1     -38.661  14.074  22.257  0.00  0.00     0.127 A 
ATOM     20  C   UNL d   1     -39.086  14.772  22.111  0.00  0.00     0.025 A 
ATOM     21  C   UNL d   1     -39.131  15.063  21.339  0.00  0.00     0.021 A 
BRANCH  19  22
ATOM     22  N   UNL d   1     -38.612  13.777  23.026  0.00  0.00    -0.114 N 
ATOM     23  O   UNL d   1     -38.611  12.963  23.159  0.00  0.00    -0.532 OA
ATOM     24  O   UNL d   1     -38.562  14.293  23.671  0.00  0.00    -0.532 OA
ENDBRANCH  19  22
ENDBRANCH   2  16
TORSDOF 5
ENDMDL
MODEL 5
REMARK VINA RESULT:      -4.5      8.582     10.255
REMARK  5 active torsions:
REMARK  status: ('A' for Active; 'I' for Inactive)
REMARK    1  A    between atoms: C_5  and  C_1 
REMARK    2  A    between atoms: C_9  and  N_2 
REMARK    3  A    between atoms: N_8  and  C_5 
REMARK    4  A    between atoms: N_6  and  C_10 
REMARK    5  A    between atoms: C_18  and  N_8 
ROOT
ATOM      1  C   UNL d   1     -38.871  15.296  18.353  0.00  0.00     0.067 A 
ATOM      2  N   UNL d   1     -38.439  15.058  17.072  0.00  0.00    -0.230 N 
ATOM      3  C   UNL d   1     -38.938  14.760  17.698  0.00  0.00     0.087 A 
ATOM      4  N   UNL d   1     -38.068  15.775  17.345  0.00  0.00    -0.164 NA
ATOM      5  C   UNL d   1     -38.336  15.920  18.137  0.00  0.00     0.124 A 
ATOM      6  C   UNL d   1     -39.395  14.082  17.666  0.00  0.00     0.021 C 
ENDROOT
BRANCH   1   7
ATOM      7  C   UNL d   1     -39.261  15.221  19.077  0.00  0.00     0.139 C 
ATOM      8  S   UNL d   1     -39.996  15.556  19.180  0.00  0.00    -0.057 SA
BRANCH   7   9
ATOM      9  N   UNL d   1     -38.909  14.810  19.687  0.00  0.00    -0.235 NA
BRANCH   9  10
ATOM     10  C   UNL d   1     -39.138  14.952  20.453  0.00  0.00     0.082 A 
ATOM     11  C   UNL d   1     -39.552  14.384  20.872  0.00  0.00     0.019 A 
ATOM     12  C   UNL d   1     -39.777  14.530  21.630  0.00  0.00     0.002 A 
ATOM     13  C   UNL d   1     -39.594  15.249  21.990  0.00  0.00     0.000 A 
ATOM     14  C   UNL d   1     -39.184  15.814  21.579  0.00  0.00     0.002 A 
ATOM     15  C   UNL d   1     -38.953  15.669  20.807  0.00  0.00     0.019 A 
ENDBRANCH   9  10
ENDBRANCH   7   9
ENDBRANCH   1   7
BRANCH   2  16
ATOM     16  C   UNL d   1     -38.329  14.718  16.329  0.00  0.00     0.083 A 
ATOM     17  C   UNL d   1     -38.217  13.897  16.271  0.00  0.00     0.021 A 
ATOM     18  C   UNL d   1     -38.106  13.549  15.530  0.00  0.00     0.025 A 
ATOM     19  C   UNL d   1     -38.107  14.021  14.847  0.00  0.00     0.127 A 
ATOM     20  C   UNL d   1     -38.219  14.841  14.905  0.00  0.00     0.025 A 
ATOM     21  C   UNL d   1     -38.329  15.182  15.650  0.00  0.00     0.021 A 
BRANCH  19  22
ATOM     22  N   UNL d   1     -37.996  13.672  14.107  0.00  0.00    -0.114 N 
ATOM     23  O   UNL d   1     -37.940  12.853  14.036  0.00  0.00    -0.532 OA
ATOM     24  O   UNL d   1     -37.940  14.143  13.429  0.00  0.00    -0.532 OA
ENDBRANCH  19  22
ENDBRANCH   2  16
TORSDOF 5
ENDMDL
MODEL 6
REMARK VINA RESULT:      -4.4      1.275      1.532
REMARK  5 active torsions:
REMARK  status: ('A' for Active; 'I' for Inactive)
REMARK    1  A    between atoms: C_5  and  C_1 
REMARK    2  A    between atoms: C_9  and  N_2 
REMARK    3  A    between atoms: N_8  and  C_5 
REMARK    4  A    between atoms: N_6  and  C_10 
REMARK    5  A    between atoms: C_18  and  N_8 
ROOT
ATOM      1  C   UNL d   1     -47.688  13.543  22.894  0.00  0.00     0.067 A 
ATOM      2  N   UNL d   1     -46.526  12.833  23.070  0.00  0.00    -0.230 N 
ATOM      3  C   UNL d   1     -47.370  12.758  22.968  0.00  0.00     0.087 A 
ATOM      4  N   UNL d   1     -46.328  13.663  23.059  0.00  0.00    -0.164 NA
ATOM      5  C   UNL d   1     -47.047  14.099  22.950  0.00  0.00     0.124 A 
ATOM      6  C   UNL d   1     -47.791  12.058  22.946  0.00  0.00     0.021 C 
ENDROOT
BRANCH   1   7
ATOM      7  C   UNL d   1     -48.484  13.731  22.787  0.00  0.00     0.139 C 
ATOM      8  S   UNL d   1     -48.834  13.619  22.059  0.00  0.00    -0.057 SA
BRANCH   7   9
ATOM      9  N   UNL d   1     -48.919  14.027  23.409  0.00  0.00    -0.235 NA
BRANCH   9  10
ATOM     10  C   UNL d   1     -49.634  14.384  23.267  0.00  0.00     0.082 A 
ATOM     11  C   UNL d   1     -50.331  13.962  23.349  0.00  0.00     0.019 A 
ATOM     12  C   UNL d   1     -51.036  14.321  23.207  0.00  0.00     0.002 A 
ATOM     13  C   UNL d   1     -51.065  15.113  22.977  0.00  0.00     0.000 A 
ATOM     14  C   UNL d   1     -50.378  15.534  22.894  0.00  0.00     0.002 A 
ATOM     15  C   UNL d   1     -49.657  15.172  23.038  0.00  0.00     0.019 A 
ENDBRANCH   9  10
ENDBRANCH   7   9
ENDBRANCH   1   7
BRANCH   2  16
ATOM     16  C   UNL d   1     -45.987  12.216  23.165  0.00  0.00     0.083 A 
ATOM     17  C   UNL d   1     -46.212  11.544  23.597  0.00  0.00     0.021 A 
ATOM     18  C   UNL d   1     -45.679  10.921  23.696  0.00  0.00     0.025 A 
ATOM     19  C   UNL d   1     -44.920  10.971  23.364  0.00  0.00     0.127 A 
ATOM     20  C   UNL d   1     -44.694  11.643  22.932  0.00  0.00     0.025 A 
ATOM     21  C   UNL d   1     -45.234  12.261  22.837  0.00  0.00     0.021 A 
BRANCH  19  22
ATOM     22  N   UNL d   1     -44.386  10.348  23.463  0.00  0.00    -0.114 N 
ATOM     23  O   UNL d   1     -43.574  10.492  23.469  0.00  0.00    -0.532 OA
ATOM     24  O   UNL d   1     -44.662   9.573  23.557  0.00  0.00    -0.532 OA
ENDBRANCH  19  22
ENDBRANCH   2  16
TORSDOF 5
ENDMDL
