MODEL 1
REMARK VINA RESULT:      60.0      0.000      0.000
REMARK  6 active torsions:
REMARK  status: ('A' for Active; 'I' for Inactive)
REMARK    1  A    between atoms: C_8  and  C_1 
REMARK    2  A    between atoms: N_7  and  C_2 
REMARK    3  A    between atoms: C_10  and  C_4 
REMARK       I    between atoms: C_6  and  N_7 
REMARK       I    between atoms: N_9  and  C_6 
REMARK    4  A    between atoms: O_13  and  C_8 
REMARK    5  A    between atoms: C_14  and  N_9 
REMARK    6  A    between atoms: C_17  and  O_13 
ROOT
ATOM      1  C   UNL d   1      59.804  49.466  51.339  0.00  0.00     0.111 A 
ATOM      2  C   UNL d   1      59.937  49.129  50.609  0.00  0.00     0.098 A 
ATOM      3  S   UNL d   1      59.000  49.634  51.383  0.00  0.00    -0.080 SA
ATOM      4  C   UNL d   1      58.651  49.397  50.677  0.00  0.00     0.031 A 
ATOM      5  C   UNL d   1      59.244  49.080  50.194  0.00  0.00     0.026 A 
ENDROOT
BRANCH   2   6
ATOM      6  N   UNL d   1      60.688  48.886  50.369  0.00  0.00    -0.190 NA
ATOM      7  C   UNL d   1      60.835  48.105  50.256  0.00  0.00     0.369 C 
ATOM      8  N   UNL d   1      61.580  47.842  50.015  0.00  0.00    -0.191 NA
ATOM      9  O   UNL d   1      60.234  47.564  50.381  0.00  0.00    -0.242 OA
BRANCH   8  10
ATOM     10  C   UNL d   1      61.729  47.025  49.898  0.00  0.00     0.086 A 
ATOM     11  C   UNL d   1      61.300  46.477  50.356  0.00  0.00     0.019 A 
ATOM     12  C   UNL d   1      61.441  45.681  50.246  0.00  0.00     0.002 A 
ATOM     13  C   UNL d   1      61.999  45.429  49.690  0.00  0.00     0.000 A 
ATOM     14  C   UNL d   1      62.418  45.973  49.242  0.00  0.00     0.002 A 
ATOM     15  C   UNL d   1      62.284  46.766  49.345  0.00  0.00     0.019 A 
ENDBRANCH   8  10
ENDBRANCH   2   6
BRANCH   1  16
ATOM     16  C   UNL d   1      60.381  49.612  51.933  0.00  0.00     0.308 C 
ATOM     17  O   UNL d   1      60.169  49.663  52.732  0.00  0.00    -0.258 OA
BRANCH  16  18
ATOM     18  O   UNL d   1      61.160  49.707  51.723  0.00  0.00    -0.271 OA
BRANCH  18  19
ATOM     19  C   UNL d   1      61.774  49.477  52.273  0.00  0.00     0.126 C 
ATOM     20  C   UNL d   1      61.677  49.707  53.090  0.00  0.00     0.029 C 
ENDBRANCH  18  19
ENDBRANCH  16  18
ENDBRANCH   1  16
BRANCH   4  21
ATOM     21  C   UNL d   1      57.853  49.500  50.569  0.00  0.00     0.006 A 
ATOM     22  C   UNL d   1      57.326  49.513  51.223  0.00  0.00     0.001 A 
ATOM     23  C   UNL d   1      56.517  49.617  51.106  0.00  0.00     0.000 A 
ATOM     24  C   UNL d   1      56.223  49.707  50.375  0.00  0.00     0.000 A 
ATOM     25  C   UNL d   1      56.747  49.696  49.686  0.00  0.00     0.000 A 
ATOM     26  C   UNL d   1      57.546  49.593  49.808  0.00  0.00     0.001 A 
ENDBRANCH   4  21
TORSDOF 6
ENDMDL
MODEL 2
REMARK VINA RESULT:      62.4      1.033      4.341
REMARK  6 active torsions:
REMARK  status: ('A' for Active; 'I' for Inactive)
REMARK    1  A    between atoms: C_8  and  C_1 
REMARK    2  A    between atoms: N_7  and  C_2 
REMARK    3  A    between atoms: C_10  and  C_4 
REMARK       I    between atoms: C_6  and  N_7 
REMARK       I    between atoms: N_9  and  C_6 
REMARK    4  A    between atoms: O_13  and  C_8 
REMARK    5  A    between atoms: C_14  and  N_9 
REMARK    6  A    between atoms: C_17  and  O_13 
ROOT
ATOM      1  C   UNL d   1      60.909  48.525  51.214  0.00  0.00     0.111 A 
ATOM      2  C   UNL d   1      60.307  48.570  50.666  0.00  0.00     0.098 A 
ATOM      3  S   UNL d   1      61.309  47.820  51.075  0.00  0.00    -0.080 SA
ATOM      4  C   UNL d   1      60.946  47.441  50.443  0.00  0.00     0.031 A 
ATOM      5  C   UNL d   1      60.316  47.916  50.189  0.00  0.00     0.026 A 
ENDROOT
BRANCH   2   6
ATOM      6  N   UNL d   1      59.786  49.209  50.639  0.00  0.00    -0.190 NA
ATOM      7  C   UNL d   1      59.010  49.080  50.480  0.00  0.00     0.369 C 
ATOM      8  N   UNL d   1      58.472  49.707  50.448  0.00  0.00    -0.191 NA
ATOM      9  O   UNL d   1      58.751  48.316  50.348  0.00  0.00    -0.242 OA
BRANCH   8  10
ATOM     10  C   UNL d   1      57.662  49.568  50.282  0.00  0.00     0.086 A 
ATOM     11  C   UNL d   1      57.442  49.422  49.492  0.00  0.00     0.019 A 
ATOM     12  C   UNL d   1      56.655  49.286  49.325  0.00  0.00     0.002 A 
ATOM     13  C   UNL d   1      56.092  49.294  49.931  0.00  0.00     0.000 A 
ATOM     14  C   UNL d   1      56.315  49.439  50.706  0.00  0.00     0.002 A 
ATOM     15  C   UNL d   1      57.094  49.575  50.881  0.00  0.00     0.019 A 
ENDBRANCH   8  10
ENDBRANCH   2   6
BRANCH   1  16
ATOM     16  C   UNL d   1      61.086  49.094  51.807  0.00  0.00     0.308 C 
ATOM     17  O   UNL d   1      61.797  49.518  51.795  0.00  0.00    -0.258 OA
BRANCH  16  18
ATOM     18  O   UNL d   1      60.553  49.233  52.404  0.00  0.00    -0.271 OA
BRANCH  18  19
ATOM     19  C   UNL d   1      60.788  49.707  53.077  0.00  0.00     0.126 C 
ATOM     20  C   UNL d   1      60.317  49.645  53.786  0.00  0.00     0.029 C 
ENDBRANCH  18  19
ENDBRANCH  16  18
ENDBRANCH   1  16
BRANCH   4  21
ATOM     21  C   UNL d   1      61.230  46.726  50.185  0.00  0.00     0.006 A 
ATOM     22  C   UNL d   1      61.884  46.684  49.659  0.00  0.00     0.001 A 
ATOM     23  C   UNL d   1      62.167  45.954  49.402  0.00  0.00     0.000 A 
ATOM     24  C   UNL d   1      61.827  45.280  49.646  0.00  0.00     0.000 A 
ATOM     25  C   UNL d   1      61.153  45.299  50.188  0.00  0.00     0.000 A 
ATOM     26  C   UNL d   1      60.876  46.023  50.439  0.00  0.00     0.001 A 
ENDBRANCH   4  21
TORSDOF 6
ENDMDL
