MODEL 1
REMARK VINA RESULT:      -7.7      0.000      0.000
REMARK  3 active torsions:
REMARK  status: ('A' for Active; 'I' for Inactive)
REMARK    1  A    between atoms: C_24  and  N_10 
REMARK    2  A    between atoms: C_12  and  N_15 
REMARK       I    between atoms: N_15  and  C_16 
REMARK    3  A    between atoms: C_16  and  C_24 
ROOT
ATOM      1  N   UNL d   1     -40.951  14.666  19.366  0.00  0.00    -0.188 NA
ATOM      2  C   UNL d   1     -40.727  15.220  19.938  0.00  0.00     0.298 C 
ATOM      3  O   UNL d   1     -40.292  15.890  19.706  0.00  0.00    -0.263 OA
ENDROOT
BRANCH   1   4
ATOM      4  C   UNL d   1     -40.743  14.780  18.572  0.00  0.00     0.166 A 
ATOM      5  N   UNL d   1     -40.094  14.379  18.253  0.00  0.00    -0.226 NA
ATOM      6  C   UNL d   1     -39.884  14.489  17.464  0.00  0.00     0.090 A 
ATOM      7  C   UNL d   1     -39.237  14.091  17.139  0.00  0.00     0.041 A 
ATOM      8  C   UNL d   1     -40.323  15.005  16.985  0.00  0.00     0.081 A 
ATOM      9  C   UNL d   1     -39.029  14.205  16.345  0.00  0.00     0.105 A 
ATOM     10  C   UNL d   1     -38.796  13.577  17.613  0.00  0.00     0.004 A 
ATOM     11  C   UNL d   1     -38.381  13.804  16.029  0.00  0.00     0.025 A 
ATOM     12  O   UNL d   1     -39.467  14.717  15.875  0.00  0.00    -0.273 OA
ATOM     13  C   UNL d   1     -37.940  13.290  16.499  0.00  0.00     0.002 A 
ATOM     14  C   UNL d   1     -38.149  13.175  17.297  0.00  0.00     0.000 A 
ATOM     15  C   UNL d   1     -40.114  15.118  16.191  0.00  0.00     0.301 A 
ATOM     16  O   UNL d   1     -40.558  15.636  15.716  0.00  0.00    -0.259 OA
ATOM     17  C   UNL d   1     -40.972  15.406  17.305  0.00  0.00     0.010 A 
ATOM     18  C   UNL d   1     -41.181  15.296  18.091  0.00  0.00     0.039 A 
ATOM     19  C   UNL d   1     -41.410  15.922  16.822  0.00  0.00     0.000 C 
ENDBRANCH   1   4
BRANCH   2  20
ATOM     20  C   UNL d   1     -40.931  15.114  20.734  0.00  0.00     0.143 C 
BRANCH  20  21
ATOM     21  N   UNL d   1     -40.345  14.999  21.300  0.00  0.00    -0.306 N 
ATOM     22  C   UNL d   1     -40.071  15.677  21.585  0.00  0.00     0.059 A 
ATOM     23  C   UNL d   1     -39.521  15.876  22.125  0.00  0.00     0.080 A 
ATOM     24  C   UNL d   1     -39.037  15.479  22.583  0.00  0.00     0.061 A 
ATOM     25  C   UNL d   1     -39.821  14.873  21.804  0.00  0.00     0.024 A 
ATOM     26  N   UNL d   1     -38.877  14.719  22.715  0.00  0.00    -0.280 N 
ATOM     27  C   UNL d   1     -39.156  14.030  22.425  0.00  0.00     0.049 A 
ATOM     28  C   UNL d   1     -38.306  14.709  23.269  0.00  0.00     0.264 A 
ATOM     29  C   UNL d   1     -39.692  13.837  21.899  0.00  0.00     0.079 A 
ATOM     30  C   UNL d   1     -38.857  13.346  22.695  0.00  0.00     0.014 A 
ATOM     31  C   UNL d   1     -40.187  14.234  21.430  0.00  0.00     0.059 A 
ATOM     32  C   UNL d   1     -38.293  13.338  23.242  0.00  0.00     0.006 A 
ATOM     33  C   UNL d   1     -38.014  14.026  23.533  0.00  0.00     0.061 A 
ATOM     34  O   UNL d   1     -38.032  15.401  23.556  0.00  0.00    -0.267 OA
ENDBRANCH  20  21
ENDBRANCH   2  20
TORSDOF 3
ENDMDL
MODEL 2
REMARK VINA RESULT:      -6.7      7.881      9.666
REMARK  3 active torsions:
REMARK  status: ('A' for Active; 'I' for Inactive)
REMARK    1  A    between atoms: C_24  and  N_10 
REMARK    2  A    between atoms: C_12  and  N_15 
REMARK       I    between atoms: N_15  and  C_16 
REMARK    3  A    between atoms: C_16  and  C_24 
ROOT
ATOM      1  N   UNL d   1     -47.263  11.526  23.698  0.00  0.00    -0.188 NA
ATOM      2  C   UNL d   1     -47.866  11.360  23.157  0.00  0.00     0.298 C 
ATOM      3  O   UNL d   1     -47.667  11.093  22.395  0.00  0.00    -0.263 OA
ENDROOT
BRANCH   1   4
ATOM      4  C   UNL d   1     -46.469  11.426  23.480  0.00  0.00     0.166 A 
ATOM      5  N   UNL d   1     -46.083  12.013  23.044  0.00  0.00    -0.226 NA
ATOM      6  C   UNL d   1     -45.294  11.918  22.825  0.00  0.00     0.090 A 
ATOM      7  C   UNL d   1     -44.903  12.501  22.390  0.00  0.00     0.041 A 
ATOM      8  C   UNL d   1     -44.883  11.231  23.042  0.00  0.00     0.081 A 
ATOM      9  C   UNL d   1     -44.109  12.401  22.172  0.00  0.00     0.105 A 
ATOM     10  C   UNL d   1     -45.309  13.187  22.172  0.00  0.00     0.004 A 
ATOM     11  C   UNL d   1     -43.726  12.989  21.737  0.00  0.00     0.025 A 
ATOM     12  O   UNL d   1     -43.707  11.718  22.389  0.00  0.00    -0.273 OA
ATOM     13  C   UNL d   1     -44.129  13.674  21.518  0.00  0.00     0.002 A 
ATOM     14  C   UNL d   1     -44.926  13.774  21.737  0.00  0.00     0.000 A 
ATOM     15  C   UNL d   1     -44.089  11.132  22.824  0.00  0.00     0.301 A 
ATOM     16  O   UNL d   1     -43.683  10.442  23.044  0.00  0.00    -0.259 OA
ATOM     17  C   UNL d   1     -45.270  10.644  23.478  0.00  0.00     0.010 A 
ATOM     18  C   UNL d   1     -46.055  10.740  23.695  0.00  0.00     0.039 A 
ATOM     19  C   UNL d   1     -44.855   9.957  23.694  0.00  0.00     0.000 C 
ENDBRANCH   1   4
BRANCH   2  20
ATOM     20  C   UNL d   1     -48.662  11.457  23.367  0.00  0.00     0.143 C 
BRANCH  20  21
ATOM     21  N   UNL d   1     -49.089  12.101  23.084  0.00  0.00    -0.306 N 
ATOM     22  C   UNL d   1     -49.288  12.017  22.330  0.00  0.00     0.059 A 
ATOM     23  C   UNL d   1     -49.689  12.461  21.804  0.00  0.00     0.080 A 
ATOM     24  C   UNL d   1     -50.041  13.152  21.828  0.00  0.00     0.061 A 
ATOM     25  C   UNL d   1     -49.469  12.689  22.853  0.00  0.00     0.024 A 
ATOM     26  N   UNL d   1     -50.156  13.711  22.372  0.00  0.00    -0.280 N 
ATOM     27  C   UNL d   1     -49.953  13.795  23.139  0.00  0.00     0.049 A 
ATOM     28  C   UNL d   1     -50.571  14.284  22.011  0.00  0.00     0.264 A 
ATOM     29  C   UNL d   1     -49.562  13.362  23.650  0.00  0.00     0.079 A 
ATOM     30  C   UNL d   1     -50.169  14.452  23.527  0.00  0.00     0.014 A 
ATOM     31  C   UNL d   1     -49.202  12.660  23.633  0.00  0.00     0.059 A 
ATOM     32  C   UNL d   1     -50.580  15.019  23.168  0.00  0.00     0.006 A 
ATOM     33  C   UNL d   1     -50.784  14.935  22.402  0.00  0.00     0.061 A 
ATOM     34  O   UNL d   1     -50.772  14.193  21.243  0.00  0.00    -0.267 OA
ENDBRANCH  20  21
ENDBRANCH   2  20
TORSDOF 3
ENDMDL
MODEL 3
REMARK VINA RESULT:      -6.3      7.333      9.067
REMARK  3 active torsions:
REMARK  status: ('A' for Active; 'I' for Inactive)
REMARK    1  A    between atoms: C_24  and  N_10 
REMARK    2  A    between atoms: C_12  and  N_15 
REMARK       I    between atoms: N_15  and  C_16 
REMARK    3  A    between atoms: C_16  and  C_24 
ROOT
ATOM      1  N   UNL d   1     -46.392  13.690  22.212  0.00  0.00    -0.188 NA
ATOM      2  C   UNL d   1     -46.645  14.082  22.894  0.00  0.00     0.298 C 
ATOM      3  O   UNL d   1     -46.167  14.065  23.574  0.00  0.00    -0.263 OA
ENDROOT
BRANCH   1   4
ATOM      4  C   UNL d   1     -45.669  13.285  22.208  0.00  0.00     0.166 A 
ATOM      5  N   UNL d   1     -45.604  12.550  22.581  0.00  0.00    -0.226 NA
ATOM      6  C   UNL d   1     -44.887  12.144  22.579  0.00  0.00     0.090 A 
ATOM      7  C   UNL d   1     -44.817  11.409  22.950  0.00  0.00     0.041 A 
ATOM      8  C   UNL d   1     -44.225  12.472  22.204  0.00  0.00     0.081 A 
ATOM      9  C   UNL d   1     -44.093  11.004  22.946  0.00  0.00     0.105 A 
ATOM     10  C   UNL d   1     -45.475  11.078  23.326  0.00  0.00     0.004 A 
ATOM     11  C   UNL d   1     -44.032  10.271  23.319  0.00  0.00     0.025 A 
ATOM     12  O   UNL d   1     -43.440  11.334  22.572  0.00  0.00    -0.273 OA
ATOM     13  C   UNL d   1     -44.686   9.938  23.694  0.00  0.00     0.002 A 
ATOM     14  C   UNL d   1     -45.413  10.345  23.698  0.00  0.00     0.000 A 
ATOM     15  C   UNL d   1     -43.502  12.067  22.200  0.00  0.00     0.301 A 
ATOM     16  O   UNL d   1     -42.842  12.401  21.822  0.00  0.00    -0.259 OA
ATOM     17  C   UNL d   1     -44.290  13.208  21.831  0.00  0.00     0.010 A 
ATOM     18  C   UNL d   1     -45.004  13.612  21.833  0.00  0.00     0.039 A 
ATOM     19  C   UNL d   1     -43.624  13.535  21.455  0.00  0.00     0.000 C 
ENDBRANCH   1   4
BRANCH   2  20
ATOM     20  C   UNL d   1     -47.367  14.490  22.906  0.00  0.00     0.143 C 
BRANCH  20  21
ATOM     21  N   UNL d   1     -48.073  14.083  22.789  0.00  0.00    -0.306 N 
ATOM     22  C   UNL d   1     -48.394  14.242  22.091  0.00  0.00     0.059 A 
ATOM     23  C   UNL d   1     -49.053  14.007  21.711  0.00  0.00     0.080 A 
ATOM     24  C   UNL d   1     -49.639  13.528  21.880  0.00  0.00     0.061 A 
ATOM     25  C   UNL d   1     -48.704  13.710  22.705  0.00  0.00     0.024 A 
ATOM     26  N   UNL d   1     -49.840  13.071  22.490  0.00  0.00    -0.280 N 
ATOM     27  C   UNL d   1     -49.513  12.910  23.199  0.00  0.00     0.049 A 
ATOM     28  C   UNL d   1     -50.526  12.724  22.286  0.00  0.00     0.264 A 
ATOM     29  C   UNL d   1     -48.870  13.140  23.568  0.00  0.00     0.079 A 
ATOM     30  C   UNL d   1     -49.880  12.405  23.690  0.00  0.00     0.014 A 
ATOM     31  C   UNL d   1     -48.271  13.625  23.403  0.00  0.00     0.059 A 
ATOM     32  C   UNL d   1     -50.558  12.063  23.487  0.00  0.00     0.006 A 
ATOM     33  C   UNL d   1     -50.886  12.223  22.778  0.00  0.00     0.061 A 
ATOM     34  O   UNL d   1     -50.848  12.889  21.575  0.00  0.00    -0.267 OA
ENDBRANCH  20  21
ENDBRANCH   2  20
TORSDOF 3
ENDMDL
MODEL 4
REMARK VINA RESULT:      -4.7      7.169      8.820
REMARK  3 active torsions:
REMARK  status: ('A' for Active; 'I' for Inactive)
REMARK    1  A    between atoms: C_24  and  N_10 
REMARK    2  A    between atoms: C_12  and  N_15 
REMARK       I    between atoms: N_15  and  C_16 
REMARK    3  A    between atoms: C_16  and  C_24 
ROOT
ATOM      1  N   UNL d   1     -46.359  13.416  22.282  0.00  0.00    -0.188 NA
ATOM      2  C   UNL d   1     -46.651  13.845  22.926  0.00  0.00     0.298 C 
ATOM      3  O   UNL d   1     -46.276  13.774  23.665  0.00  0.00    -0.263 OA
ENDROOT
BRANCH   1   4
ATOM      4  C   UNL d   1     -45.699  12.923  22.375  0.00  0.00     0.166 A 
ATOM      5  N   UNL d   1     -44.977  13.126  22.026  0.00  0.00    -0.226 NA
ATOM      6  C   UNL d   1     -44.320  12.638  22.117  0.00  0.00     0.090 A 
ATOM      7  C   UNL d   1     -43.596  12.836  21.771  0.00  0.00     0.041 A 
ATOM      8  C   UNL d   1     -44.379  11.939  22.558  0.00  0.00     0.081 A 
ATOM      9  C   UNL d   1     -42.937  12.342  21.864  0.00  0.00     0.105 A 
ATOM     10  C   UNL d   1     -43.533  13.532  21.330  0.00  0.00     0.004 A 
ATOM     11  C   UNL d   1     -42.218  12.548  21.515  0.00  0.00     0.025 A 
ATOM     12  O   UNL d   1     -43.001  11.650  22.303  0.00  0.00    -0.273 OA
ATOM     13  C   UNL d   1     -42.152  13.241  21.075  0.00  0.00     0.002 A 
ATOM     14  C   UNL d   1     -42.814  13.737  20.981  0.00  0.00     0.000 A 
ATOM     15  C   UNL d   1     -43.719  11.445  22.651  0.00  0.00     0.301 A 
ATOM     16  O   UNL d   1     -43.785  10.746  23.095  0.00  0.00    -0.259 OA
ATOM     17  C   UNL d   1     -45.101  11.736  22.907  0.00  0.00     0.010 A 
ATOM     18  C   UNL d   1     -45.756  12.222  22.817  0.00  0.00     0.039 A 
ATOM     19  C   UNL d   1     -45.157  11.034  23.349  0.00  0.00     0.000 C 
ENDBRANCH   1   4
BRANCH   2  20
ATOM     20  C   UNL d   1     -47.310  14.341  22.841  0.00  0.00     0.143 C 
BRANCH  20  21
ATOM     21  N   UNL d   1     -48.061  14.018  22.746  0.00  0.00    -0.306 N 
ATOM     22  C   UNL d   1     -48.384  14.219  22.060  0.00  0.00     0.059 A 
ATOM     23  C   UNL d   1     -49.078  14.064  21.701  0.00  0.00     0.080 A 
ATOM     24  C   UNL d   1     -49.709  13.653  21.887  0.00  0.00     0.061 A 
ATOM     25  C   UNL d   1     -48.732  13.719  22.682  0.00  0.00     0.024 A 
ATOM     26  N   UNL d   1     -49.940  13.214  22.501  0.00  0.00    -0.280 N 
ATOM     27  C   UNL d   1     -49.610  13.011  23.198  0.00  0.00     0.049 A 
ATOM     28  C   UNL d   1     -50.667  12.949  22.318  0.00  0.00     0.264 A 
ATOM     29  C   UNL d   1     -48.934  13.163  23.546  0.00  0.00     0.079 A 
ATOM     30  C   UNL d   1     -50.015  12.546  23.697  0.00  0.00     0.014 A 
ATOM     31  C   UNL d   1     -48.289  13.579  23.364  0.00  0.00     0.059 A 
ATOM     32  C   UNL d   1     -50.734  12.285  23.516  0.00  0.00     0.006 A 
ATOM     33  C   UNL d   1     -51.064  12.488  22.819  0.00  0.00     0.061 A 
ATOM     34  O   UNL d   1     -50.992  13.157  21.619  0.00  0.00    -0.267 OA
ENDBRANCH  20  21
ENDBRANCH   2  20
TORSDOF 3
ENDMDL
