MODEL 1
REMARK VINA RESULT:      77.5      0.000      0.000
REMARK  6 active torsions:
REMARK  status: ('A' for Active; 'I' for Inactive)
REMARK    1  A    between atoms: N_6  and  C_1 
REMARK    2  A    between atoms: C_4  and  C_2 
REMARK    3  A    between atoms: C_7  and  C_4 
REMARK    4  A    between atoms: C_8  and  C_4 
REMARK    5  A    between atoms: O_12  and  C_7 
REMARK    6  A    between atoms: C_16  and  O_12 
ROOT
ATOM      1  C   UNL d   1     -58.194 -98.963 -44.675  0.00  0.00     0.166 A 
ATOM      2  C   UNL d   1     -57.558 -99.145 -45.168  0.00  0.00     0.122 A 
ATOM      3  N   UNL d   1     -58.950 -98.839 -44.994  0.00  0.00    -0.225 NA
ATOM      4  N   UNL d   1     -57.679 -99.203 -45.984  0.00  0.00    -0.241 NA
ATOM      5  C   UNL d   1     -59.063 -98.900 -45.812  0.00  0.00     0.101 A 
ATOM      6  C   UNL d   1     -58.430 -99.081 -46.302  0.00  0.00     0.099 A 
ATOM      7  C   UNL d   1     -59.808 -98.778 -46.123  0.00  0.00     0.021 A 
ATOM      8  C   UNL d   1     -58.547 -99.140 -47.117  0.00  0.00     0.021 A 
ATOM      9  C   UNL d   1     -59.294 -99.018 -47.433  0.00  0.00     0.002 A 
ATOM     10  C   UNL d   1     -59.929 -98.836 -46.939  0.00  0.00     0.002 A 
ENDROOT
BRANCH   2  11
ATOM     11  C   UNL d   1     -56.802 -99.268 -44.849  0.00  0.00     0.105 C 
BRANCH  11  12
ATOM     12  C   UNL d   1     -56.325 -99.875 -45.140  0.00  0.00     0.303 C 
ATOM     13  O   UNL d   1     -55.976 -99.802 -45.881  0.00  0.00    -0.259 OA
BRANCH  12  14
ATOM     14  O   UNL d   1     -56.199-100.550 -44.691  0.00  0.00    -0.273 OA
BRANCH  14  15
ATOM     15  C   UNL d   1     -55.710-101.170 -44.465  0.00  0.00     0.103 A 
ATOM     16  C   UNL d   1     -55.562-101.301 -43.664  0.00  0.00     0.025 A 
ATOM     17  C   UNL d   1     -55.074-101.918 -43.433  0.00  0.00     0.002 A 
ATOM     18  C   UNL d   1     -54.737-102.403 -43.997  0.00  0.00     0.000 A 
ATOM     19  C   UNL d   1     -54.882-102.277 -44.791  0.00  0.00     0.002 A 
ATOM     20  C   UNL d   1     -55.374-101.654 -45.030  0.00  0.00     0.025 A 
ENDBRANCH  14  15
ENDBRANCH  12  14
ENDBRANCH  11  12
BRANCH  11  21
ATOM     21  C   UNL d   1     -56.520 -98.783 -44.236  0.00  0.00     0.129 C 
ATOM     22  N   UNL d   1     -55.605 -98.760 -43.973  0.00  0.00    -0.146 N 
ENDBRANCH  11  21
ENDBRANCH   2  11
BRANCH   1  23
ATOM     23  N   UNL d   1     -58.080 -98.903 -43.858  0.00  0.00    -0.288 N 
ATOM     24  C   UNL d   1     -58.741 -98.909 -43.352  0.00  0.00     0.082 A 
ATOM     25  C   UNL d   1     -58.619 -98.848 -42.531  0.00  0.00     0.018 A 
ATOM     26  C   UNL d   1     -59.271 -98.853 -42.022  0.00  0.00     0.002 C 
ATOM     27  C   UNL d   1     -57.851 -98.782 -42.222  0.00  0.00     0.003 A 
ATOM     28  C   UNL d   1     -57.206 -98.778 -42.735  0.00  0.00     0.019 A 
ATOM     29  C   UNL d   1     -57.313 -98.837 -43.549  0.00  0.00     0.082 A 
ENDBRANCH   1  23
TORSDOF 6
ENDMDL
MODEL 2
REMARK VINA RESULT:      79.6      1.615      3.893
REMARK  6 active torsions:
REMARK  status: ('A' for Active; 'I' for Inactive)
REMARK    1  A    between atoms: N_6  and  C_1 
REMARK    2  A    between atoms: C_4  and  C_2 
REMARK    3  A    between atoms: C_7  and  C_4 
REMARK    4  A    between atoms: C_8  and  C_4 
REMARK    5  A    between atoms: O_12  and  C_7 
REMARK    6  A    between atoms: C_16  and  O_12 
ROOT
ATOM      1  C   UNL d   1     -57.680 -99.163 -43.805  0.00  0.00     0.166 A 
ATOM      2  C   UNL d   1     -57.602 -98.955 -44.599  0.00  0.00     0.122 A 
ATOM      3  N   UNL d   1     -57.008 -99.240 -43.325  0.00  0.00    -0.225 NA
ATOM      4  N   UNL d   1     -56.849 -98.824 -44.914  0.00  0.00    -0.241 NA
ATOM      5  C   UNL d   1     -56.258 -99.107 -43.647  0.00  0.00     0.101 A 
ATOM      6  C   UNL d   1     -56.180 -98.900 -44.438  0.00  0.00     0.099 A 
ATOM      7  C   UNL d   1     -55.597 -99.184 -43.172  0.00  0.00     0.021 A 
ATOM      8  C   UNL d   1     -55.431 -98.768 -44.756  0.00  0.00     0.021 A 
ATOM      9  C   UNL d   1     -54.766 -98.845 -44.281  0.00  0.00     0.002 A 
ATOM     10  C   UNL d   1     -54.844 -99.053 -43.487  0.00  0.00     0.002 A 
ENDROOT
BRANCH   2  11
ATOM     11  C   UNL d   1     -58.274 -98.877 -45.080  0.00  0.00     0.105 C 
BRANCH  11  12
ATOM     12  C   UNL d   1     -58.202 -98.918 -45.901  0.00  0.00     0.303 C 
ATOM     13  O   UNL d   1     -57.460 -98.855 -46.250  0.00  0.00    -0.259 OA
BRANCH  12  14
ATOM     14  O   UNL d   1     -58.869 -99.020 -46.368  0.00  0.00    -0.273 OA
BRANCH  14  15
ATOM     15  C   UNL d   1     -59.208 -99.249 -47.080  0.00  0.00     0.103 A 
ATOM     16  C   UNL d   1     -59.144 -98.755 -47.738  0.00  0.00     0.025 A 
ATOM     17  C   UNL d   1     -59.480 -98.979 -48.451  0.00  0.00     0.002 A 
ATOM     18  C   UNL d   1     -59.877 -99.690 -48.509  0.00  0.00     0.000 A 
ATOM     19  C   UNL d   1     -59.942-100.182 -47.859  0.00  0.00     0.002 A 
ATOM     20  C   UNL d   1     -59.604 -99.960 -47.136  0.00  0.00     0.025 A 
ENDBRANCH  14  15
ENDBRANCH  12  14
ENDBRANCH  11  12
BRANCH  11  21
ATOM     21  C   UNL d   1     -59.023 -98.758 -44.740  0.00  0.00     0.129 C 
ATOM     22  N   UNL d   1     -59.788 -99.271 -44.979  0.00  0.00    -0.146 N 
ENDBRANCH  11  21
ENDBRANCH   2  11
BRANCH   1  23
ATOM     23  N   UNL d   1     -58.430 -99.296 -43.483  0.00  0.00    -0.288 N 
ATOM     24  C   UNL d   1     -58.624 -98.960 -42.747  0.00  0.00     0.082 A 
ATOM     25  C   UNL d   1     -59.381 -99.098 -42.429  0.00  0.00     0.018 A 
ATOM     26  C   UNL d   1     -59.580 -98.767 -41.698  0.00  0.00     0.002 C 
ATOM     27  C   UNL d   1     -59.932 -99.562 -42.839  0.00  0.00     0.003 A 
ATOM     28  C   UNL d   1     -59.727 -99.889 -43.568  0.00  0.00     0.019 A 
ATOM     29  C   UNL d   1     -58.982 -99.760 -43.893  0.00  0.00     0.082 A 
ENDBRANCH   1  23
TORSDOF 6
ENDMDL
