MODEL 1
REMARK VINA RESULT:      28.5      0.000      0.000
REMARK  6 active torsions:
REMARK  status: ('A' for Active; 'I' for Inactive)
REMARK       I    between atoms: N_3  and  C_1 
REMARK    1  A    between atoms: O_10  and  C_1 
REMARK    2  A    between atoms: N_2  and  C_4 
REMARK    3  A    between atoms: C_9  and  N_3 
REMARK    4  A    between atoms: C_17  and  O_10 
REMARK    5  A    between atoms: C_18  and  C_17 
REMARK    6  A    between atoms: C_19  and  C_18 
ROOT
ATOM      1  C   UNL d   1      13.962  12.163  -2.314  0.00  0.00     0.064 A 
ATOM      2  C   UNL d   1      14.375  12.678  -2.818  0.00  0.00     0.020 A 
ATOM      3  C   UNL d   1      13.283  11.780  -2.583  0.00  0.00     0.020 A 
ATOM      4  C   UNL d   1      13.431  12.426  -3.859  0.00  0.00     0.137 A 
ATOM      5  C   UNL d   1      13.017  11.909  -3.352  0.00  0.00     0.034 A 
ATOM      6  C   UNL d   1      14.110  12.808  -3.587  0.00  0.00     0.034 A 
ENDROOT
BRANCH   4   7
ATOM      7  N   UNL d   1      13.171  12.558  -4.625  0.00  0.00    -0.344 NA
ATOM      8  C   UNL d   1      12.910  12.686  -5.395  0.00  0.00     0.445 C 
ATOM      9  O   UNL d   1      12.789  12.045  -5.901  0.00  0.00    -0.220 OA
BRANCH   8  10
ATOM     10  O   UNL d   1      12.769  13.454  -5.662  0.00  0.00    -0.246 OA
BRANCH  10  11
ATOM     11  C   UNL d   1      12.778  14.084  -5.131  0.00  0.00     0.129 C 
BRANCH  11  12
ATOM     12  C   UNL d   1      12.784  14.866  -5.410  0.00  0.00     0.027 C 
BRANCH  12  13
ATOM     13  C   UNL d   1      12.908  15.490  -4.889  0.00  0.00     0.002 C 
ATOM     14  C   UNL d   1      13.623  15.898  -4.899  0.00  0.00     0.000 C 
ENDBRANCH  12  13
ENDBRANCH  11  12
ENDBRANCH  10  11
ENDBRANCH   8  10
ENDBRANCH   4   7
BRANCH   1  15
ATOM     15  N   UNL d   1      14.234  12.038  -1.544  0.00  0.00    -0.300 N 
ATOM     16  C   UNL d   1      13.696  11.972  -0.922  0.00  0.00     0.107 A 
ATOM     17  C   UNL d   1      13.970  11.848  -0.160  0.00  0.00     0.142 A 
ATOM     18  O   UNL d   1      14.780  11.789  -0.015  0.00  0.00    -0.300 OA
ATOM     19  C   UNL d   1      15.318  11.855  -0.637  0.00  0.00     0.142 A 
ATOM     20  C   UNL d   1      15.043  11.980  -1.406  0.00  0.00     0.107 A 
ENDBRANCH   1  15
TORSDOF 6
ENDMDL
MODEL 2
REMARK VINA RESULT:      30.3      0.487      1.021
REMARK  6 active torsions:
REMARK  status: ('A' for Active; 'I' for Inactive)
REMARK       I    between atoms: N_3  and  C_1 
REMARK    1  A    between atoms: O_10  and  C_1 
REMARK    2  A    between atoms: N_2  and  C_4 
REMARK    3  A    between atoms: C_9  and  N_3 
REMARK    4  A    between atoms: C_17  and  O_10 
REMARK    5  A    between atoms: C_18  and  C_17 
REMARK    6  A    between atoms: C_19  and  C_18 
ROOT
ATOM      1  C   UNL d   1      14.105  12.355  -2.258  0.00  0.00     0.064 A 
ATOM      2  C   UNL d   1      13.692  11.783  -2.696  0.00  0.00     0.020 A 
ATOM      3  C   UNL d   1      14.223  13.109  -2.571  0.00  0.00     0.020 A 
ATOM      4  C   UNL d   1      13.517  12.717  -3.761  0.00  0.00     0.137 A 
ATOM      5  C   UNL d   1      13.931  13.292  -3.320  0.00  0.00     0.034 A 
ATOM      6  C   UNL d   1      13.400  11.964  -3.444  0.00  0.00     0.034 A 
ENDROOT
BRANCH   4   7
ATOM      7  N   UNL d   1      13.224  12.893  -4.506  0.00  0.00    -0.344 NA
ATOM      8  C   UNL d   1      12.930  13.064  -5.256  0.00  0.00     0.445 C 
ATOM      9  O   UNL d   1      12.795  12.454  -5.795  0.00  0.00    -0.220 OA
BRANCH   8  10
ATOM     10  O   UNL d   1      12.770  13.846  -5.469  0.00  0.00    -0.246 OA
BRANCH  10  11
ATOM     11  C   UNL d   1      13.212  14.460  -5.146  0.00  0.00     0.129 C 
BRANCH  11  12
ATOM     12  C   UNL d   1      13.620  14.988  -5.640  0.00  0.00     0.027 C 
BRANCH  12  13
ATOM     13  C   UNL d   1      14.001  15.643  -5.322  0.00  0.00     0.002 C 
ATOM     14  C   UNL d   1      14.144  16.305  -5.791  0.00  0.00     0.000 C 
ENDBRANCH  12  13
ENDBRANCH  11  12
ENDBRANCH  10  11
ENDBRANCH   8  10
ENDBRANCH   4   7
BRANCH   1  15
ATOM     15  N   UNL d   1      14.395  12.166  -1.507  0.00  0.00    -0.300 N 
ATOM     16  C   UNL d   1      15.208  12.177  -1.365  0.00  0.00     0.107 A 
ATOM     17  C   UNL d   1      15.492  11.988  -0.620  0.00  0.00     0.142 A 
ATOM     18  O   UNL d   1      14.967  11.790  -0.015  0.00  0.00    -0.300 OA
ATOM     19  C   UNL d   1      14.155  11.779  -0.157  0.00  0.00     0.142 A 
ATOM     20  C   UNL d   1      13.867  11.968  -0.908  0.00  0.00     0.107 A 
ENDBRANCH   1  15
TORSDOF 6
ENDMDL
