MODEL 1
REMARK VINA RESULT:      81.5      0.000      0.000
REMARK  2 active torsions:
REMARK  status: ('A' for Active; 'I' for Inactive)
REMARK    1  A    between atoms: C_2  and  C_1 
REMARK    2  A    between atoms: C_14  and  C_8 
ROOT
ATOM      1  C   UNL d   1     -54.733-100.284 -41.435  0.00  0.00     0.106 A 
ATOM      2  C   UNL d   1     -54.724 -99.523 -41.138  0.00  0.00     0.304 A 
ATOM      3  C   UNL d   1     -54.737-100.924 -40.911  0.00  0.00     0.011 A 
ATOM      4  C   UNL d   1     -54.732-100.804 -40.102  0.00  0.00     0.023 A 
ATOM      5  O   UNL d   1     -54.718 -99.372 -40.305  0.00  0.00    -0.273 OA
ATOM      6  C   UNL d   1     -54.723-100.043 -39.805  0.00  0.00     0.103 A 
ATOM      7  C   UNL d   1     -54.736-101.444 -39.578  0.00  0.00     0.002 A 
ATOM      8  O   UNL d   1     -54.719 -98.863 -41.682  0.00  0.00    -0.259 OA
ATOM      9  C   UNL d   1     -54.717 -99.893 -38.972  0.00  0.00     0.025 A 
ATOM     10  C   UNL d   1     -54.731-101.326 -38.764  0.00  0.00     0.000 A 
ATOM     11  C   UNL d   1     -54.722-100.565 -38.467  0.00  0.00     0.002 A 
ATOM     12  C   UNL d   1     -54.746-102.220 -39.881  0.00  0.00     0.000 A 
ATOM     13  C   UNL d   1     -54.735-101.967 -38.240  0.00  0.00     0.000 A 
ATOM     14  C   UNL d   1     -54.750-102.863 -39.364  0.00  0.00     0.000 A 
ATOM     15  C   UNL d   1     -54.745-102.748 -38.528  0.00  0.00     0.000 A 
ENDROOT
BRANCH   1  16
ATOM     16  C   UNL d   1     -54.738-100.400 -42.254  0.00  0.00     0.210 A 
ATOM     17  O   UNL d   1     -54.750-101.108 -42.679  0.00  0.00    -0.268 OA
ATOM     18  C   UNL d   1     -54.751-100.911 -43.475  0.00  0.00     0.204 A 
ATOM     19  N   UNL d   1     -54.740-100.098 -43.546  0.00  0.00    -0.121 NA
ATOM     20  N   UNL d   1     -54.732 -99.772 -42.795  0.00  0.00    -0.121 NA
BRANCH  18  21
ATOM     21  C   UNL d   1     -54.760-101.387 -44.140  0.00  0.00     0.043 A 
ATOM     22  C   UNL d   1     -54.744-102.196 -44.065  0.00  0.00     0.004 A 
ATOM     23  C   UNL d   1     -54.754-102.682 -44.736  0.00  0.00     0.000 A 
ATOM     24  C   UNL d   1     -54.779-102.348 -45.475  0.00  0.00     0.000 A 
ATOM     25  C   UNL d   1     -54.794-101.528 -45.545  0.00  0.00     0.000 A 
ATOM     26  C   UNL d   1     -54.785-101.048 -44.883  0.00  0.00     0.004 A 
ENDBRANCH  18  21
ENDBRANCH   1  16
TORSDOF 2
ENDMDL
