MODEL 1
REMARK VINA RESULT:      -4.3      0.000      0.000
REMARK  5 active torsions:
REMARK  status: ('A' for Active; 'I' for Inactive)
REMARK    1  A    between atoms: C_11  and  C_8 
REMARK       I    between atoms: N_22  and  C_11 
REMARK    2  A    between atoms: N_14  and  C_24 
REMARK    3  A    between atoms: C_27  and  N_22 
REMARK    4  A    between atoms: C_24  and  C_25 
REMARK    5  A    between atoms: C_25  and  C_27 
ROOT
ATOM      1  C   UNL d   1      59.469  -1.332  29.367  0.00  0.00     0.154 A 
ATOM      2  C   UNL d   1      58.817  -1.835  29.424  0.00  0.00     0.093 A 
ATOM      3  N   UNL d   1      60.207  -1.638  29.140  0.00  0.00    -0.210 NA
ATOM      4  N   UNL d   1      59.638  -2.942  29.027  0.00  0.00    -0.258 N 
ATOM      5  C   UNL d   1      58.904  -2.643  29.252  0.00  0.00     0.269 A 
ATOM      6  N   UNL d   1      59.224  -0.576  29.565  0.00  0.00    -0.285 N 
ATOM      7  C   UNL d   1      60.289  -2.439  28.971  0.00  0.00     0.152 A 
ATOM      8  C   UNL d   1      58.422  -0.604  29.745  0.00  0.00     0.124 A 
ATOM      9  C   UNL d   1      58.167  -1.391  29.656  0.00  0.00     0.030 A 
ATOM     10  C   UNL d   1      59.719  -3.744  28.859  0.00  0.00     0.084 A 
ATOM     11  C   UNL d   1      61.022  -2.738  28.746  0.00  0.00     0.038 A 
ATOM     12  C   UNL d   1      60.453  -4.043  28.633  0.00  0.00     0.018 A 
ATOM     13  C   UNL d   1      61.105  -3.540  28.577  0.00  0.00     0.005 A 
ATOM     14  O   UNL d   1      58.252  -3.146  29.309  0.00  0.00    -0.266 OA
ATOM     15  C   UNL d   1      59.698   0.103  29.583  0.00  0.00     0.101 C 
ATOM     16  C   UNL d   1      60.542  -4.854  28.461  0.00  0.00     0.002 C 
ENDROOT
BRANCH   8  17
ATOM     17  C   UNL d   1      57.950   0.034  29.973  0.00  0.00     0.295 C 
ATOM     18  O   UNL d   1      57.831   0.665  29.457  0.00  0.00    -0.264 OA
ATOM     19  N   UNL d   1      57.596   0.040  30.716  0.00  0.00    -0.205 NA
BRANCH  19  20
ATOM     20  C   UNL d   1      57.124   0.677  30.944  0.00  0.00     0.104 C 
BRANCH  20  21
ATOM     21  C   UNL d   1      56.583   0.590  31.559  0.00  0.00     0.040 C 
BRANCH  21  22
ATOM     22  C   UNL d   1      56.847   0.594  32.350  0.00  0.00     0.083 C 
BRANCH  22  23
ATOM     23  N   UNL d   1      56.337   0.371  32.956  0.00  0.00    -0.285 N 
ATOM     24  C   UNL d   1      55.652  -0.085  32.964  0.00  0.00     0.183 A 
ATOM     25  N   UNL d   1      55.373  -0.121  33.736  0.00  0.00    -0.222 NA
ATOM     26  C   UNL d   1      55.882   0.313  34.221  0.00  0.00     0.120 A 
ATOM     27  C   UNL d   1      56.482   0.619  33.731  0.00  0.00     0.102 A 
ENDBRANCH  22  23
ENDBRANCH  21  22
ENDBRANCH  20  21
ENDBRANCH  19  20
ENDBRANCH   8  17
TORSDOF 5
ENDMDL
MODEL 2
REMARK VINA RESULT:      -3.4      1.084      5.561
REMARK  5 active torsions:
REMARK  status: ('A' for Active; 'I' for Inactive)
REMARK    1  A    between atoms: C_11  and  C_8 
REMARK       I    between atoms: N_22  and  C_11 
REMARK    2  A    between atoms: N_14  and  C_24 
REMARK    3  A    between atoms: C_27  and  N_22 
REMARK    4  A    between atoms: C_24  and  C_25 
REMARK    5  A    between atoms: C_25  and  C_27 
ROOT
ATOM      1  C   UNL d   1      57.774   0.246  31.855  0.00  0.00     0.154 A 
ATOM      2  C   UNL d   1      57.129  -0.183  31.570  0.00  0.00     0.093 A 
ATOM      3  N   UNL d   1      57.765   0.535  32.633  0.00  0.00    -0.210 NA
ATOM      4  N   UNL d   1      56.472  -0.036  32.836  0.00  0.00    -0.258 N 
ATOM      5  C   UNL d   1      56.476  -0.324  32.064  0.00  0.00     0.269 A 
ATOM      6  N   UNL d   1      58.329   0.299  31.255  0.00  0.00    -0.285 N 
ATOM      7  C   UNL d   1      57.116   0.394  33.120  0.00  0.00     0.152 A 
ATOM      8  C   UNL d   1      58.035  -0.097  30.596  0.00  0.00     0.124 A 
ATOM      9  C   UNL d   1      57.284  -0.398  30.793  0.00  0.00     0.030 A 
ATOM     10  C   UNL d   1      55.823  -0.178  33.322  0.00  0.00     0.084 A 
ATOM     11  C   UNL d   1      57.111   0.682  33.891  0.00  0.00     0.038 A 
ATOM     12  C   UNL d   1      55.818   0.111  34.093  0.00  0.00     0.018 A 
ATOM     13  C   UNL d   1      56.463   0.540  34.378  0.00  0.00     0.005 A 
ATOM     14  O   UNL d   1      55.832  -0.754  31.779  0.00  0.00    -0.266 OA
ATOM     15  C   UNL d   1      59.062   0.682  31.298  0.00  0.00     0.101 C 
ATOM     16  C   UNL d   1      55.163  -0.030  34.591  0.00  0.00     0.002 C 
ENDROOT
BRANCH   8  17
ATOM     17  C   UNL d   1      58.413  -0.182  29.868  0.00  0.00     0.295 C 
ATOM     18  O   UNL d   1      58.502   0.469  29.370  0.00  0.00    -0.264 OA
ATOM     19  N   UNL d   1      58.703  -0.916  29.636  0.00  0.00    -0.205 NA
BRANCH  19  20
ATOM     20  C   UNL d   1      59.081  -1.001  28.908  0.00  0.00     0.104 C 
BRANCH  20  21
ATOM     21  C   UNL d   1      59.271  -1.752  28.627  0.00  0.00     0.040 C 
BRANCH  21  22
ATOM     22  C   UNL d   1      60.023  -2.077  28.780  0.00  0.00     0.083 C 
BRANCH  22  23
ATOM     23  N   UNL d   1      60.120  -2.893  28.820  0.00  0.00    -0.285 N 
ATOM     24  C   UNL d   1      59.638  -3.519  28.591  0.00  0.00     0.183 A 
ATOM     25  N   UNL d   1      60.025  -4.222  28.768  0.00  0.00    -0.222 NA
ATOM     26  C   UNL d   1      60.755  -4.043  29.110  0.00  0.00     0.120 A 
ATOM     27  C   UNL d   1      60.811  -3.213  29.141  0.00  0.00     0.102 A 
ENDBRANCH  22  23
ENDBRANCH  21  22
ENDBRANCH  20  21
ENDBRANCH  19  20
ENDBRANCH   8  17
TORSDOF 5
ENDMDL
