MODEL 1
REMARK VINA RESULT:      -0.6      0.000      0.000
REMARK  3 active torsions:
REMARK  status: ('A' for Active; 'I' for Inactive)
REMARK    1  A    between atoms: C_5  and  N_1 
REMARK    2  A    between atoms: C_8  and  C_2 
REMARK    3  A    between atoms: C_7  and  C_5 
ROOT
ATOM      1  N   UNL d   1     -41.222-122.153 -51.277  0.00  0.00    -0.287 N 
ATOM      2  C   UNL d   1     -41.191-121.369 -51.541  0.00  0.00     0.187 A 
ATOM      3  N   UNL d   1     -41.159-121.370 -52.376  0.00  0.00    -0.224 NA
ATOM      4  C   UNL d   1     -41.211-122.652 -51.946  0.00  0.00     0.083 A 
ATOM      5  C   UNL d   1     -41.172-122.166 -52.618  0.00  0.00     0.099 A 
ATOM      6  C   UNL d   1     -41.230-123.481 -52.038  0.00  0.00     0.019 A 
ATOM      7  C   UNL d   1     -41.153-122.505 -53.384  0.00  0.00     0.021 A 
ATOM      8  C   UNL d   1     -41.211-123.817 -52.792  0.00  0.00     0.002 A 
ATOM      9  C   UNL d   1     -41.172-123.330 -53.463  0.00  0.00     0.002 A 
ENDROOT
BRANCH   1  10
ATOM     10  C   UNL d   1     -41.255-122.239 -50.458  0.00  0.00     0.082 C 
BRANCH  10  11
ATOM     11  C   UNL d   1     -41.932-122.533 -50.101  0.00  0.00     0.018 A 
ATOM     12  C   UNL d   1     -41.874-123.041 -49.463  0.00  0.00     0.001 A 
ATOM     13  C   UNL d   1     -42.552-123.336 -49.105  0.00  0.00     0.000 A 
ATOM     14  C   UNL d   1     -41.128-123.255 -49.182  0.00  0.00     0.000 C 
ATOM     15  C   UNL d   1     -43.296-123.120 -49.388  0.00  0.00     0.000 A 
ATOM     16  C   UNL d   1     -43.357-122.608 -50.032  0.00  0.00     0.000 A 
ATOM     17  C   UNL d   1     -42.674-122.315 -50.387  0.00  0.00     0.002 A 
ATOM     18  C   UNL d   1     -44.100-122.390 -50.319  0.00  0.00     0.000 C 
ENDBRANCH  10  11
ENDBRANCH   1  10
BRANCH   2  19
ATOM     19  C   UNL d   1     -41.171-120.554 -51.458  0.00  0.00     0.230 C 
ATOM     20  O   UNL d   1     -41.153-120.214 -50.706  0.00  0.00    -0.283 OA
ATOM     21  C   UNL d   1     -41.170-120.072 -52.122  0.00  0.00     0.049 C 
ENDBRANCH   2  19
TORSDOF 3
ENDMDL
MODEL 2
REMARK VINA RESULT:       1.7      1.398      3.581
REMARK  3 active torsions:
REMARK  status: ('A' for Active; 'I' for Inactive)
REMARK    1  A    between atoms: C_5  and  N_1 
REMARK    2  A    between atoms: C_8  and  C_2 
REMARK    3  A    between atoms: C_7  and  C_5 
ROOT
ATOM      1  N   UNL d   1     -42.513-122.339 -49.863  0.00  0.00    -0.287 N 
ATOM      2  C   UNL d   1     -43.317-122.536 -49.864  0.00  0.00     0.187 A 
ATOM      3  N   UNL d   1     -43.450-123.110 -49.271  0.00  0.00    -0.224 NA
ATOM      4  C   UNL d   1     -42.136-122.788 -49.269  0.00  0.00     0.083 A 
ATOM      5  C   UNL d   1     -42.716-123.260 -48.909  0.00  0.00     0.099 A 
ATOM      6  C   UNL d   1     -41.345-122.834 -49.006  0.00  0.00     0.019 A 
ATOM      7  C   UNL d   1     -42.510-123.779 -48.285  0.00  0.00     0.021 A 
ATOM      8  C   UNL d   1     -41.141-123.345 -48.391  0.00  0.00     0.002 A 
ATOM      9  C   UNL d   1     -41.721-123.816 -48.031  0.00  0.00     0.002 A 
ENDROOT
BRANCH   1  10
ATOM     10  C   UNL d   1     -42.298-121.774 -50.424  0.00  0.00     0.082 C 
BRANCH  10  11
ATOM     11  C   UNL d   1     -41.909-122.001 -51.109  0.00  0.00     0.018 A 
ATOM     12  C   UNL d   1     -41.519-121.444 -51.565  0.00  0.00     0.001 A 
ATOM     13  C   UNL d   1     -41.129-121.671 -52.251  0.00  0.00     0.000 A 
ATOM     14  C   UNL d   1     -41.521-120.654 -51.328  0.00  0.00     0.000 C 
ATOM     15  C   UNL d   1     -41.128-122.462 -52.485  0.00  0.00     0.000 A 
ATOM     16  C   UNL d   1     -41.521-123.024 -52.026  0.00  0.00     0.000 A 
ATOM     17  C   UNL d   1     -41.911-122.793 -51.339  0.00  0.00     0.002 A 
ATOM     18  C   UNL d   1     -41.523-123.818 -52.257  0.00  0.00     0.000 C 
ENDBRANCH  10  11
ENDBRANCH   1  10
BRANCH   2  19
ATOM     19  C   UNL d   1     -44.095-122.497 -50.117  0.00  0.00     0.230 C 
ATOM     20  O   UNL d   1     -44.432-123.131 -50.523  0.00  0.00    -0.283 OA
ATOM     21  C   UNL d   1     -44.544-121.825 -49.969  0.00  0.00     0.049 C 
ENDBRANCH   2  19
TORSDOF 3
ENDMDL
