MODEL 1
REMARK VINA RESULT:      -3.2      0.000      0.000
REMARK  7 active torsions:
REMARK  status: ('A' for Active; 'I' for Inactive)
REMARK    1  A    between atoms: C_7  and  N_1 
REMARK    2  A    between atoms: S_15  and  C_3 
REMARK    3  A    between atoms: O_8  and  C_7 
REMARK    4  A    between atoms: C_10  and  O_8 
REMARK    5  A    between atoms: C_19  and  C_10 
REMARK    6  A    between atoms: C_13  and  O_14 
REMARK    7  A    between atoms: O_14  and  C_19 
ROOT
ATOM      1  O   UNL d   1     -42.000-122.801 -51.028  0.00  0.00    -0.251 OA
ENDROOT
BRANCH   1   2
ATOM      2  C   UNL d   1     -42.234-123.360 -50.468  0.00  0.00     0.215 C 
BRANCH   2   3
ATOM      3  N   UNL d   1     -42.349-123.138 -49.679  0.00  0.00    -0.229 N 
ATOM      4  C   UNL d   1     -41.799-123.361 -49.106  0.00  0.00     0.287 A 
ATOM      5  C   UNL d   1     -41.911-123.141 -48.318  0.00  0.00     0.159 A 
ATOM      6  O   UNL d   1     -41.137-123.805 -49.321  0.00  0.00    -0.265 OA
ATOM      7  C   UNL d   1     -41.350-123.372 -47.749  0.00  0.00     0.028 C 
ATOM      8  N   UNL d   1     -42.573-122.698 -48.104  0.00  0.00    -0.141 NA
ATOM      9  N   UNL d   1     -43.123-122.475 -48.677  0.00  0.00    -0.123 NA
ATOM     10  C   UNL d   1     -43.011-122.695 -49.465  0.00  0.00     0.200 A 
BRANCH  10  11
ATOM     11  S   UNL d   1     -43.561-122.472 -50.038  0.00  0.00    -0.074 SA
ATOM     12  C   UNL d   1     -44.211-122.008 -49.828  0.00  0.00     0.077 C 
ENDBRANCH  10  11
ENDBRANCH   2   3
ENDBRANCH   1   2
BRANCH   1  13
ATOM     13  C   UNL d   1     -41.609-123.042 -51.714  0.00  0.00     0.327 C 
ATOM     14  O   UNL d   1     -41.128-123.713 -51.701  0.00  0.00    -0.256 OA
BRANCH  13  15
ATOM     15  C   UNL d   1     -41.699-122.612 -52.413  0.00  0.00     0.191 C 
BRANCH  15  16
ATOM     16  O   UNL d   1     -41.312-122.852 -53.096  0.00  0.00    -0.299 OA
BRANCH  16  17
ATOM     17  C   UNL d   1     -41.551-122.561 -53.830  0.00  0.00     0.111 A 
ATOM     18  C   UNL d   1     -41.468-123.019 -54.503  0.00  0.00     0.081 A 
ATOM     19  C   UNL d   1     -41.706-122.728 -55.237  0.00  0.00     0.025 A 
ATOM     20 CL   UNL d   1     -41.138-123.787 -54.441  0.00  0.00    -0.080 Cl
ATOM     21  C   UNL d   1     -42.028-121.979 -55.299  0.00  0.00     0.059 A 
ATOM     22  C   UNL d   1     -42.114-121.513 -54.623  0.00  0.00     0.013 A 
ATOM     23 CL   UNL d   1     -42.265-121.692 -56.035  0.00  0.00    -0.082 Cl
ATOM     24  C   UNL d   1     -41.875-121.804 -53.889  0.00  0.00     0.026 A 
ENDBRANCH  16  17
ENDBRANCH  15  16
ENDBRANCH  13  15
ENDBRANCH   1  13
TORSDOF 7
ENDMDL
MODEL 2
REMARK VINA RESULT:      -2.3      2.902      5.345
REMARK  7 active torsions:
REMARK  status: ('A' for Active; 'I' for Inactive)
REMARK    1  A    between atoms: C_7  and  N_1 
REMARK    2  A    between atoms: S_15  and  C_3 
REMARK    3  A    between atoms: O_8  and  C_7 
REMARK    4  A    between atoms: C_10  and  O_8 
REMARK    5  A    between atoms: C_19  and  C_10 
REMARK    6  A    between atoms: C_13  and  O_14 
REMARK    7  A    between atoms: O_14  and  C_19 
ROOT
ATOM      1  O   UNL d   1     -41.768-122.665 -52.378  0.00  0.00    -0.251 OA
ENDROOT
BRANCH   1   2
ATOM      2  C   UNL d   1     -41.362-122.729 -53.094  0.00  0.00     0.215 C 
BRANCH   2   3
ATOM      3  N   UNL d   1     -41.654-122.358 -53.774  0.00  0.00    -0.229 N 
ATOM      4  C   UNL d   1     -42.012-121.617 -53.714  0.00  0.00     0.287 A 
ATOM      5  C   UNL d   1     -42.304-121.244 -54.390  0.00  0.00     0.159 A 
ATOM      6  O   UNL d   1     -42.079-121.249 -52.978  0.00  0.00    -0.265 OA
ATOM      7  C   UNL d   1     -42.664-120.497 -54.319  0.00  0.00     0.028 C 
ATOM      8  N   UNL d   1     -42.238-121.612 -55.125  0.00  0.00    -0.141 NA
ATOM      9  N   UNL d   1     -41.879-122.353 -55.185  0.00  0.00    -0.123 NA
ATOM     10  C   UNL d   1     -41.587-122.726 -54.509  0.00  0.00     0.200 A 
BRANCH  10  11
ATOM     11  S   UNL d   1     -41.228-123.467 -54.568  0.00  0.00    -0.074 SA
ATOM     12  C   UNL d   1     -41.125-123.817 -55.308  0.00  0.00     0.077 C 
ENDBRANCH  10  11
ENDBRANCH   2   3
ENDBRANCH   1   2
BRANCH   1  13
ATOM     13  C   UNL d   1     -41.520-123.100 -51.722  0.00  0.00     0.327 C 
ATOM     14  O   UNL d   1     -41.124-123.817 -51.828  0.00  0.00    -0.256 OA
BRANCH  13  15
ATOM     15  C   UNL d   1     -41.668-122.819 -50.961  0.00  0.00     0.191 C 
BRANCH  15  16
ATOM     16  O   UNL d   1     -42.332-123.073 -50.550  0.00  0.00    -0.299 OA
BRANCH  16  17
ATOM     17  C   UNL d   1     -42.335-123.070 -49.725  0.00  0.00     0.111 A 
ATOM     18  C   UNL d   1     -43.002-123.303 -49.313  0.00  0.00     0.081 A 
ATOM     19  C   UNL d   1     -43.005-123.300 -48.488  0.00  0.00     0.025 A 
ATOM     20 CL   UNL d   1     -43.685-123.545 -49.737  0.00  0.00    -0.080 Cl
ATOM     21  C   UNL d   1     -42.340-123.065 -48.075  0.00  0.00     0.059 A 
ATOM     22  C   UNL d   1     -41.664-122.829 -48.486  0.00  0.00     0.013 A 
ATOM     23 CL   UNL d   1     -42.347-123.064 -47.250  0.00  0.00    -0.082 Cl
ATOM     24  C   UNL d   1     -41.661-122.832 -49.311  0.00  0.00     0.026 A 
ENDBRANCH  16  17
ENDBRANCH  15  16
ENDBRANCH  13  15
ENDBRANCH   1  13
TORSDOF 7
ENDMDL
MODEL 3
REMARK VINA RESULT:      -2.0      2.799      5.295
REMARK  7 active torsions:
REMARK  status: ('A' for Active; 'I' for Inactive)
REMARK    1  A    between atoms: C_7  and  N_1 
REMARK    2  A    between atoms: S_15  and  C_3 
REMARK    3  A    between atoms: O_8  and  C_7 
REMARK    4  A    between atoms: C_10  and  O_8 
REMARK    5  A    between atoms: C_19  and  C_10 
REMARK    6  A    between atoms: C_13  and  O_14 
REMARK    7  A    between atoms: O_14  and  C_19 
ROOT
ATOM      1  O   UNL d   1     -41.873-122.737 -52.023  0.00  0.00    -0.251 OA
ENDROOT
BRANCH   1   2
ATOM      2  C   UNL d   1     -41.393-122.689 -52.693  0.00  0.00     0.215 C 
BRANCH   2   3
ATOM      3  N   UNL d   1     -41.664-122.302 -53.373  0.00  0.00    -0.229 N 
ATOM      4  C   UNL d   1     -41.980-122.742 -53.996  0.00  0.00     0.287 A 
ATOM      5  C   UNL d   1     -42.251-122.359 -54.676  0.00  0.00     0.159 A 
ATOM      6  O   UNL d   1     -42.026-123.564 -53.940  0.00  0.00    -0.265 OA
ATOM      7  C   UNL d   1     -42.568-122.812 -55.298  0.00  0.00     0.028 C 
ATOM      8  N   UNL d   1     -42.205-121.537 -54.732  0.00  0.00    -0.141 NA
ATOM      9  N   UNL d   1     -41.889-121.099 -54.109  0.00  0.00    -0.123 NA
ATOM     10  C   UNL d   1     -41.618-121.481 -53.429  0.00  0.00     0.200 A 
BRANCH  10  11
ATOM     11  S   UNL d   1     -41.302-121.042 -52.806  0.00  0.00    -0.074 SA
ATOM     12  C   UNL d   1     -41.360-120.219 -52.811  0.00  0.00     0.077 C 
ENDBRANCH  10  11
ENDBRANCH   2   3
ENDBRANCH   1   2
BRANCH   1  13
ATOM     13  C   UNL d   1     -41.617-123.159 -51.361  0.00  0.00     0.327 C 
ATOM     14  O   UNL d   1     -41.128-123.817 -51.456  0.00  0.00    -0.256 OA
BRANCH  13  15
ATOM     15  C   UNL d   1     -41.850-122.923 -50.606  0.00  0.00     0.191 C 
BRANCH  15  16
ATOM     16  O   UNL d   1     -42.347-123.401 -50.160  0.00  0.00    -0.299 OA
BRANCH  16  17
ATOM     17  C   UNL d   1     -42.344-123.347 -49.337  0.00  0.00     0.111 A 
ATOM     18  C   UNL d   1     -43.010-123.551 -48.907  0.00  0.00     0.081 A 
ATOM     19  C   UNL d   1     -43.007-123.496 -48.084  0.00  0.00     0.025 A 
ATOM     20 CL   UNL d   1     -43.696-123.816 -49.311  0.00  0.00    -0.080 Cl
ATOM     21  C   UNL d   1     -42.339-123.238 -47.690  0.00  0.00     0.059 A 
ATOM     22  C   UNL d   1     -41.665-123.031 -48.119  0.00  0.00     0.013 A 
ATOM     23 CL   UNL d   1     -42.341-123.186 -46.867  0.00  0.00    -0.082 Cl
ATOM     24  C   UNL d   1     -41.667-123.085 -48.942  0.00  0.00     0.026 A 
ENDBRANCH  16  17
ENDBRANCH  15  16
ENDBRANCH  13  15
ENDBRANCH   1  13
TORSDOF 7
ENDMDL
