MODEL 1
REMARK VINA RESULT:      -6.2      0.000      0.000
REMARK  10 active torsions:
REMARK  status: ('A' for Active; 'I' for Inactive)
REMARK    1  A    between atoms: C_2  and  C_1 
REMARK       I    between atoms: N_3  and  C_1 
REMARK    2  A    between atoms: C_5  and  C_2 
REMARK    3  A    between atoms: C_6  and  N_3 
REMARK    4  A    between atoms: C_4  and  C_5 
REMARK    5  A    between atoms: O_11  and  C_4 
REMARK    6  A    between atoms: N_10  and  C_5 
REMARK    7  A    between atoms: O_13  and  C_9 
REMARK    8  A    between atoms: C_14  and  N_10 
REMARK    9  A    between atoms: N_12  and  C_16 
REMARK   10  A    between atoms: C_16  and  C_14 
ROOT
ATOM      1  C   UNK d   1      51.804  33.660  52.543  0.00  0.00     0.084 C 
ENDROOT
BRANCH   1   2
ATOM      2  C   UNK d   1      52.021  32.930  52.842  0.00  0.00     0.259 C 
ATOM      3  N   UNK d   1      52.789  32.652  52.736  0.00  0.00    -0.320 N 
ATOM      4  H   UNK d   1      53.341  33.119  52.323  0.00  0.00     0.169 HD
ATOM      5  O   UNK d   1      51.464  32.469  53.253  0.00  0.00    -0.267 OA
BRANCH   3   6
ATOM      6  C   UNK d   1      53.010  31.925  53.032  0.00  0.00     0.082 A 
ATOM      7  C   UNK d   1      53.698  31.868  53.504  0.00  0.00     0.110 A 
ATOM      8  C   UNK d   1      53.928  31.128  53.809  0.00  0.00     0.026 A 
ATOM      9  C   UNK d   1      53.462  30.466  53.633  0.00  0.00     0.002 A 
ATOM     10  C   UNK d   1      52.779  30.528  53.164  0.00  0.00     0.002 A 
ATOM     11  C   UNK d   1      52.554  31.255  52.864  0.00  0.00     0.019 A 
BRANCH   7  12
ATOM     12  O   UNK d   1      54.144  32.539  53.666  0.00  0.00    -0.327 OA
ATOM     13  C   UNK d   1      54.732  32.511  54.243  0.00  0.00     0.181 C 
ENDBRANCH   7  12
ENDBRANCH   3   6
ENDBRANCH   1   2
BRANCH   1  14
ATOM     14  C   UNK d   1      51.467  34.221  53.038  0.00  0.00     0.124 C 
BRANCH  14  15
ATOM     15  C   UNK d   1      51.944  34.797  53.399  0.00  0.00     0.194 C 
ATOM     16  O   UNK d   1      52.407  35.302  52.945  0.00  0.00    -0.645 OA
BRANCH  15  17
ATOM     17  O   UNK d   1      51.959  34.870  54.224  0.00  0.00    -0.772 OA
ATOM     18  H   UNK d   1      52.603  35.230  54.584  0.00  0.00     0.167 HD
ENDBRANCH  15  17
ENDBRANCH  14  15
BRANCH  14  19
ATOM     19  N   UNK d   1      50.667  34.207  53.171  0.00  0.00    -0.346 N 
ATOM     20  H   UNK d   1      50.363  33.768  53.800  0.00  0.00     0.166 HD
BRANCH  19  21
ATOM     21  C   UNK d   0      50.151  34.628  52.685  0.00  0.00     0.092 C 
BRANCH  21  22
ATOM     22  C   UNK d   0      49.338  34.582  52.792  0.00  0.00     0.099 C 
BRANCH  22  23
ATOM     23  N   UNK d   0      48.842  35.078  52.361  0.00  0.00    -0.299 N 
ATOM     24  C   UNK d   0      48.493  35.729  52.723  0.00  0.00     0.100 C 
ATOM     25  C   UNK d   0      48.691  34.926  51.563  0.00  0.00     0.100 C 
ENDBRANCH  22  23
ENDBRANCH  21  22
ENDBRANCH  19  21
ENDBRANCH  14  19
ENDBRANCH   1  14
TORSDOF 10
ENDMDL
MODEL 2
REMARK VINA RESULT:      -6.2      1.100      4.812
REMARK  10 active torsions:
REMARK  status: ('A' for Active; 'I' for Inactive)
REMARK    1  A    between atoms: C_2  and  C_1 
REMARK       I    between atoms: N_3  and  C_1 
REMARK    2  A    between atoms: C_5  and  C_2 
REMARK    3  A    between atoms: C_6  and  N_3 
REMARK    4  A    between atoms: C_4  and  C_5 
REMARK    5  A    between atoms: O_11  and  C_4 
REMARK    6  A    between atoms: N_10  and  C_5 
REMARK    7  A    between atoms: O_13  and  C_9 
REMARK    8  A    between atoms: C_14  and  N_10 
REMARK    9  A    between atoms: N_12  and  C_16 
REMARK   10  A    between atoms: C_16  and  C_14 
ROOT
ATOM      1  C   UNK d   1      50.990  33.992  53.315  0.00  0.00     0.084 C 
ENDROOT
BRANCH   1   2
ATOM      2  C   UNK d   1      50.456  34.253  52.753  0.00  0.00     0.259 C 
ATOM      3  N   UNK d   1      49.717  34.535  52.986  0.00  0.00    -0.320 N 
ATOM      4  H   UNK d   1      49.521  34.552  53.795  0.00  0.00     0.169 HD
ATOM      5  O   UNK d   1      50.659  34.234  51.947  0.00  0.00    -0.267 OA
BRANCH   3   6
ATOM      6  C   UNK d   1      49.181  34.797  52.430  0.00  0.00     0.082 A 
ATOM      7  C   UNK d   1      48.635  35.396  52.638  0.00  0.00     0.110 A 
ATOM      8  C   UNK d   1      48.086  35.666  52.074  0.00  0.00     0.026 A 
ATOM      9  C   UNK d   1      48.098  35.330  51.317  0.00  0.00     0.002 A 
ATOM     10  C   UNK d   1      48.642  34.735  51.115  0.00  0.00     0.002 A 
ATOM     11  C   UNK d   1      49.182  34.470  51.669  0.00  0.00     0.019 A 
BRANCH   7  12
ATOM     12  O   UNK d   1      48.643  35.714  53.396  0.00  0.00    -0.327 OA
ATOM     13  C   UNK d   1      48.058  36.250  53.620  0.00  0.00     0.181 C 
ENDBRANCH   7  12
ENDBRANCH   3   6
ENDBRANCH   1   2
BRANCH   1  14
ATOM     14  C   UNK d   1      51.794  34.011  53.153  0.00  0.00     0.124 C 
BRANCH  14  15
ATOM     15  C   UNK d   1      52.250  34.664  53.392  0.00  0.00     0.194 C 
ATOM     16  O   UNK d   1      52.739  35.052  52.857  0.00  0.00    -0.645 OA
BRANCH  15  17
ATOM     17  O   UNK d   1      52.218  34.932  54.175  0.00  0.00    -0.772 OA
ATOM     18  H   UNK d   1      52.601  35.629  54.377  0.00  0.00     0.167 HD
ENDBRANCH  15  17
ENDBRANCH  14  15
BRANCH  14  19
ATOM     19  N   UNK d   1      52.139  33.391  52.760  0.00  0.00    -0.346 N 
ATOM     20  H   UNK d   1      52.194  33.407  51.938  0.00  0.00     0.166 HD
BRANCH  19  21
ATOM     21  C   UNK d   0      52.436  32.743  53.173  0.00  0.00     0.092 C 
BRANCH  21  22
ATOM     22  C   UNK d   0      52.830  32.138  52.782  0.00  0.00     0.099 C 
BRANCH  22  23
ATOM     23  N   UNK d   0      53.067  31.469  53.200  0.00  0.00    -0.299 N 
ATOM     24  C   UNK d   0      52.691  30.748  53.073  0.00  0.00     0.100 C 
ATOM     25  C   UNK d   0      53.682  31.516  53.750  0.00  0.00     0.100 C 
ENDBRANCH  22  23
ENDBRANCH  21  22
ENDBRANCH  19  21
ENDBRANCH  14  19
ENDBRANCH   1  14
TORSDOF 10
ENDMDL
MODEL 3
REMARK VINA RESULT:      -5.5      1.252      2.073
REMARK  10 active torsions:
REMARK  status: ('A' for Active; 'I' for Inactive)
REMARK    1  A    between atoms: C_2  and  C_1 
REMARK       I    between atoms: N_3  and  C_1 
REMARK    2  A    between atoms: C_5  and  C_2 
REMARK    3  A    between atoms: C_6  and  N_3 
REMARK    4  A    between atoms: C_4  and  C_5 
REMARK    5  A    between atoms: O_11  and  C_4 
REMARK    6  A    between atoms: N_10  and  C_5 
REMARK    7  A    between atoms: O_13  and  C_9 
REMARK    8  A    between atoms: C_14  and  N_10 
REMARK    9  A    between atoms: N_12  and  C_16 
REMARK   10  A    between atoms: C_16  and  C_14 
ROOT
ATOM      1  C   UNK d   1      50.852  33.844  53.487  0.00  0.00     0.084 C 
ENDROOT
BRANCH   1   2
ATOM      2  C   UNK d   1      51.636  33.917  53.709  0.00  0.00     0.259 C 
ATOM      3  N   UNK d   1      52.056  33.256  53.964  0.00  0.00    -0.320 N 
ATOM      4  H   UNK d   1      51.676  32.516  53.995  0.00  0.00     0.169 HD
ATOM      5  O   UNK d   1      52.008  34.660  53.676  0.00  0.00    -0.267 OA
BRANCH   3   6
ATOM      6  C   UNK d   1      52.838  33.324  54.187  0.00  0.00     0.082 A 
ATOM      7  C   UNK d   1      53.375  32.716  53.983  0.00  0.00     0.110 A 
ATOM      8  C   UNK d   1      54.174  32.781  54.207  0.00  0.00     0.026 A 
ATOM      9  C   UNK d   1      54.413  33.452  54.629  0.00  0.00     0.002 A 
ATOM     10  C   UNK d   1      53.876  34.053  54.829  0.00  0.00     0.002 A 
ATOM     11  C   UNK d   1      53.091  33.989  54.609  0.00  0.00     0.019 A 
BRANCH   7  12
ATOM     12  O   UNK d   1      53.114  32.059  53.563  0.00  0.00    -0.327 OA
ATOM     13  C   UNK d   1      53.595  31.392  53.508  0.00  0.00     0.181 C 
ENDBRANCH   7  12
ENDBRANCH   3   6
ENDBRANCH   1   2
BRANCH   1  14
ATOM     14  C   UNK d   1      50.550  34.319  52.890  0.00  0.00     0.124 C 
BRANCH  14  15
ATOM     15  C   UNK d   1      50.602  34.075  52.098  0.00  0.00     0.194 C 
ATOM     16  O   UNK d   1      50.152  33.444  51.824  0.00  0.00    -0.645 OA
BRANCH  15  17
ATOM     17  O   UNK d   1      51.109  34.465  51.572  0.00  0.00    -0.772 OA
ATOM     18  H   UNK d   1      51.293  34.111  50.855  0.00  0.00     0.167 HD
ENDBRANCH  15  17
ENDBRANCH  14  15
BRANCH  14  19
ATOM     19  N   UNK d   1      50.203  35.027  53.080  0.00  0.00    -0.346 N 
ATOM     20  H   UNK d   1      50.673  35.686  53.236  0.00  0.00     0.166 HD
BRANCH  19  21
ATOM     21  C   UNK d   0      49.382  35.097  53.119  0.00  0.00     0.092 C 
BRANCH  21  22
ATOM     22  C   UNK d   0      49.029  35.801  53.353  0.00  0.00     0.099 C 
BRANCH  22  23
ATOM     23  N   UNK d   0      48.210  35.876  53.320  0.00  0.00    -0.299 N 
ATOM     24  C   UNK d   0      47.767  35.870  54.013  0.00  0.00     0.100 C 
ATOM     25  C   UNK d   0      47.827  35.958  52.593  0.00  0.00     0.100 C 
ENDBRANCH  22  23
ENDBRANCH  21  22
ENDBRANCH  19  21
ENDBRANCH  14  19
ENDBRANCH   1  14
TORSDOF 10
ENDMDL
MODEL 4
REMARK VINA RESULT:      -5.5      2.227      3.172
REMARK  10 active torsions:
REMARK  status: ('A' for Active; 'I' for Inactive)
REMARK    1  A    between atoms: C_2  and  C_1 
REMARK       I    between atoms: N_3  and  C_1 
REMARK    2  A    between atoms: C_5  and  C_2 
REMARK    3  A    between atoms: C_6  and  N_3 
REMARK    4  A    between atoms: C_4  and  C_5 
REMARK    5  A    between atoms: O_11  and  C_4 
REMARK    6  A    between atoms: N_10  and  C_5 
REMARK    7  A    between atoms: O_13  and  C_9 
REMARK    8  A    between atoms: C_14  and  N_10 
REMARK    9  A    between atoms: N_12  and  C_16 
REMARK   10  A    between atoms: C_16  and  C_14 
ROOT
ATOM      1  C   UNK d   1      54.011  32.526  54.890  0.00  0.00     0.084 C 
ENDROOT
BRANCH   1   2
ATOM      2  C   UNK d   1      53.864  31.974  54.304  0.00  0.00     0.259 C 
ATOM      3  N   UNK d   1      53.369  31.333  54.455  0.00  0.00    -0.320 N 
ATOM      4  H   UNK d   1      53.021  31.253  55.207  0.00  0.00     0.169 HD
ATOM      5  O   UNK d   1      54.216  32.062  53.555  0.00  0.00    -0.267 OA
BRANCH   3   6
ATOM      6  C   UNK d   1      53.220  30.781  53.874  0.00  0.00     0.082 A 
ATOM      7  C   UNK d   1      53.217  29.969  54.073  0.00  0.00     0.110 A 
ATOM      8  C   UNK d   1      53.066  29.401  53.484  0.00  0.00     0.026 A 
ATOM      9  C   UNK d   1      52.921  29.662  52.711  0.00  0.00     0.002 A 
ATOM     10  C   UNK d   1      52.925  30.470  52.518  0.00  0.00     0.002 A 
ATOM     11  C   UNK d   1      53.074  31.027  53.097  0.00  0.00     0.019 A 
BRANCH   7  12
ATOM     12  O   UNK d   1      53.364  29.734  54.847  0.00  0.00    -0.327 OA
ATOM     13  C   UNK d   1      53.343  28.933  55.042  0.00  0.00     0.181 C 
ENDBRANCH   7  12
ENDBRANCH   3   6
ENDBRANCH   1   2
BRANCH   1  14
ATOM     14  C   UNK d   1      54.330  33.256  54.693  0.00  0.00     0.124 C 
BRANCH  14  15
ATOM     15  C   UNK d   1      55.038  33.509  55.047  0.00  0.00     0.194 C 
ATOM     16  O   UNK d   1      55.080  33.633  55.858  0.00  0.00    -0.645 OA
BRANCH  15  17
ATOM     17  O   UNK d   1      55.713  33.640  54.584  0.00  0.00    -0.772 OA
ATOM     18  H   UNK d   1      56.106  32.998  54.257  0.00  0.00     0.167 HD
ENDBRANCH  15  17
ENDBRANCH  14  15
BRANCH  14  19
ATOM     19  N   UNK d   1      53.949  33.726  54.153  0.00  0.00    -0.346 N 
ATOM     20  H   UNK d   1      54.061  33.598  53.346  0.00  0.00     0.166 HD
BRANCH  19  21
ATOM     21  C   UNK d   0      53.450  34.334  54.400  0.00  0.00     0.092 C 
BRANCH  21  22
ATOM     22  C   UNK d   0      53.117  34.853  53.859  0.00  0.00     0.099 C 
BRANCH  22  23
ATOM     23  N   UNK d   0      52.409  35.233  54.041  0.00  0.00    -0.299 N 
ATOM     24  C   UNK d   0      51.713  35.011  53.662  0.00  0.00     0.100 C 
ATOM     25  C   UNK d   0      52.392  35.838  54.603  0.00  0.00     0.100 C 
ENDBRANCH  22  23
ENDBRANCH  21  22
ENDBRANCH  19  21
ENDBRANCH  14  19
ENDBRANCH   1  14
TORSDOF 10
ENDMDL
MODEL 5
REMARK VINA RESULT:      -5.3      2.028      4.892
REMARK  10 active torsions:
REMARK  status: ('A' for Active; 'I' for Inactive)
REMARK    1  A    between atoms: C_2  and  C_1 
REMARK       I    between atoms: N_3  and  C_1 
REMARK    2  A    between atoms: C_5  and  C_2 
REMARK    3  A    between atoms: C_6  and  N_3 
REMARK    4  A    between atoms: C_4  and  C_5 
REMARK    5  A    between atoms: O_11  and  C_4 
REMARK    6  A    between atoms: N_10  and  C_5 
REMARK    7  A    between atoms: O_13  and  C_9 
REMARK    8  A    between atoms: C_14  and  N_10 
REMARK    9  A    between atoms: N_12  and  C_16 
REMARK   10  A    between atoms: C_16  and  C_14 
ROOT
ATOM      1  C   UNK d   1      53.752  31.668  53.517  0.00  0.00     0.084 C 
ENDROOT
BRANCH   1   2
ATOM      2  C   UNK d   1      53.654  32.363  53.937  0.00  0.00     0.259 C 
ATOM      3  N   UNK d   1      53.606  33.082  53.539  0.00  0.00    -0.320 N 
ATOM      4  H   UNK d   1      53.658  33.095  52.709  0.00  0.00     0.169 HD
ATOM      5  O   UNK d   1      53.603  32.342  54.767  0.00  0.00    -0.267 OA
BRANCH   3   6
ATOM      6  C   UNK d   1      53.508  33.778  53.954  0.00  0.00     0.082 A 
ATOM      7  C   UNK d   1      52.982  34.358  53.662  0.00  0.00     0.110 A 
ATOM      8  C   UNK d   1      52.878  35.069  54.081  0.00  0.00     0.026 A 
ATOM      9  C   UNK d   1      53.305  35.181  54.782  0.00  0.00     0.002 A 
ATOM     10  C   UNK d   1      53.828  34.602  55.068  0.00  0.00     0.002 A 
ATOM     11  C   UNK d   1      53.929  33.903  54.656  0.00  0.00     0.019 A 
BRANCH   7  12
ATOM     12  O   UNK d   1      52.569  34.224  52.963  0.00  0.00    -0.327 OA
ATOM     13  C   UNK d   1      51.940  34.717  52.759  0.00  0.00     0.181 C 
ENDBRANCH   7  12
ENDBRANCH   3   6
ENDBRANCH   1   2
BRANCH   1  14
ATOM     14  C   UNK d   1      53.163  31.096  53.530  0.00  0.00     0.124 C 
BRANCH  14  15
ATOM     15  C   UNK d   1      52.645  31.020  52.885  0.00  0.00     0.194 C 
ATOM     16  O   UNK d   1      52.930  30.829  52.138  0.00  0.00    -0.645 OA
BRANCH  15  17
ATOM     17  O   UNK d   1      51.831  31.137  52.986  0.00  0.00    -0.772 OA
ATOM     18  H   UNK d   1      51.343  31.162  52.327  0.00  0.00     0.167 HD
ENDBRANCH  15  17
ENDBRANCH  14  15
BRANCH  14  19
ATOM     19  N   UNK d   1      53.092  30.609  54.174  0.00  0.00    -0.346 N 
ATOM     20  H   UNK d   1      52.734  30.888  54.862  0.00  0.00     0.166 HD
BRANCH  19  21
ATOM     21  C   UNK d   0      53.374  29.835  54.150  0.00  0.00     0.092 C 
BRANCH  21  22
ATOM     22  C   UNK d   0      52.992  29.234  54.559  0.00  0.00     0.099 C 
BRANCH  22  23
ATOM     23  N   UNK d   0      53.436  28.678  54.974  0.00  0.00    -0.299 N 
ATOM     24  C   UNK d   0      53.413  28.663  55.797  0.00  0.00     0.100 C 
ATOM     25  C   UNK d   0      53.905  28.132  54.570  0.00  0.00     0.100 C 
ENDBRANCH  22  23
ENDBRANCH  21  22
ENDBRANCH  19  21
ENDBRANCH  14  19
ENDBRANCH   1  14
TORSDOF 10
ENDMDL
MODEL 6
REMARK VINA RESULT:      -5.2      1.435      3.091
REMARK  10 active torsions:
REMARK  status: ('A' for Active; 'I' for Inactive)
REMARK    1  A    between atoms: C_2  and  C_1 
REMARK       I    between atoms: N_3  and  C_1 
REMARK    2  A    between atoms: C_5  and  C_2 
REMARK    3  A    between atoms: C_6  and  N_3 
REMARK    4  A    between atoms: C_4  and  C_5 
REMARK    5  A    between atoms: O_11  and  C_4 
REMARK    6  A    between atoms: N_10  and  C_5 
REMARK    7  A    between atoms: O_13  and  C_9 
REMARK    8  A    between atoms: C_14  and  N_10 
REMARK    9  A    between atoms: N_12  and  C_16 
REMARK   10  A    between atoms: C_16  and  C_14 
ROOT
ATOM      1  C   UNK d   1      53.199  32.370  52.945  0.00  0.00     0.084 C 
ENDROOT
BRANCH   1   2
ATOM      2  C   UNK d   1      53.591  32.624  53.616  0.00  0.00     0.259 C 
ATOM      3  N   UNK d   1      53.821  33.412  53.686  0.00  0.00    -0.320 N 
ATOM      4  H   UNK d   1      53.651  33.945  53.069  0.00  0.00     0.169 HD
ATOM      5  O   UNK d   1      53.758  32.086  54.228  0.00  0.00    -0.267 OA
BRANCH   3   6
ATOM      6  C   UNK d   1      54.213  33.670  54.353  0.00  0.00     0.082 A 
ATOM      7  C   UNK d   1      53.994  34.399  54.700  0.00  0.00     0.110 A 
ATOM      8  C   UNK d   1      54.390  34.667  55.380  0.00  0.00     0.026 A 
ATOM      9  C   UNK d   1      54.996  34.198  55.696  0.00  0.00     0.002 A 
ATOM     10  C   UNK d   1      55.210  33.474  55.348  0.00  0.00     0.002 A 
ATOM     11  C   UNK d   1      54.820  33.211  54.679  0.00  0.00     0.019 A 
BRANCH   7  12
ATOM     12  O   UNK d   1      53.390  34.847  54.368  0.00  0.00    -0.327 OA
ATOM     13  C   UNK d   1      53.188  35.573  54.703  0.00  0.00     0.181 C 
ENDBRANCH   7  12
ENDBRANCH   3   6
ENDBRANCH   1   2
BRANCH   1  14
ATOM     14  C   UNK d   1      52.500  31.944  53.017  0.00  0.00     0.124 C 
BRANCH  14  15
ATOM     15  C   UNK d   1      52.487  31.134  52.835  0.00  0.00     0.194 C 
ATOM     16  O   UNK d   1      52.076  30.604  53.310  0.00  0.00    -0.645 OA
BRANCH  15  17
ATOM     17  O   UNK d   1      52.889  30.848  52.169  0.00  0.00    -0.772 OA
ATOM     18  H   UNK d   1      52.660  30.133  51.837  0.00  0.00     0.167 HD
ENDBRANCH  15  17
ENDBRANCH  14  15
BRANCH  14  19
ATOM     19  N   UNK d   1      51.826  32.321  53.266  0.00  0.00    -0.346 N 
ATOM     20  H   UNK d   1      51.551  32.203  54.034  0.00  0.00     0.166 HD
BRANCH  19  21
ATOM     21  C   UNK d   0      51.411  32.821  52.760  0.00  0.00     0.092 C 
BRANCH  21  22
ATOM     22  C   UNK d   0      50.700  33.161  52.992  0.00  0.00     0.099 C 
BRANCH  22  23
ATOM     23  N   UNK d   0      50.462  33.875  52.657  0.00  0.00    -0.299 N 
ATOM     24  C   UNK d   0      50.523  33.990  51.845  0.00  0.00     0.100 C 
ATOM     25  C   UNK d   0      50.161  34.479  53.133  0.00  0.00     0.100 C 
ENDBRANCH  22  23
ENDBRANCH  21  22
ENDBRANCH  19  21
ENDBRANCH  14  19
ENDBRANCH   1  14
TORSDOF 10
ENDMDL
MODEL 7
REMARK VINA RESULT:      -5.1      1.330      4.758
REMARK  10 active torsions:
REMARK  status: ('A' for Active; 'I' for Inactive)
REMARK    1  A    between atoms: C_2  and  C_1 
REMARK       I    between atoms: N_3  and  C_1 
REMARK    2  A    between atoms: C_5  and  C_2 
REMARK    3  A    between atoms: C_6  and  N_3 
REMARK    4  A    between atoms: C_4  and  C_5 
REMARK    5  A    between atoms: O_11  and  C_4 
REMARK    6  A    between atoms: N_10  and  C_5 
REMARK    7  A    between atoms: O_13  and  C_9 
REMARK    8  A    between atoms: C_14  and  N_10 
REMARK    9  A    between atoms: N_12  and  C_16 
REMARK   10  A    between atoms: C_16  and  C_14 
ROOT
ATOM      1  C   UNK d   1      52.099  33.270  52.766  0.00  0.00     0.084 C 
ENDROOT
BRANCH   1   2
ATOM      2  C   UNK d   1      51.399  33.646  52.957  0.00  0.00     0.259 C 
ATOM      3  N   UNK d   1      50.993  34.079  52.386  0.00  0.00    -0.320 N 
ATOM      4  H   UNK d   1      51.301  34.130  51.615  0.00  0.00     0.169 HD
ATOM      5  O   UNK d   1      51.097  33.591  53.731  0.00  0.00    -0.267 OA
BRANCH   3   6
ATOM      6  C   UNK d   1      50.294  34.456  52.573  0.00  0.00     0.082 A 
ATOM      7  C   UNK d   1      49.689  34.503  51.998  0.00  0.00     0.110 A 
ATOM      8  C   UNK d   1      48.973  34.886  52.183  0.00  0.00     0.026 A 
ATOM      9  C   UNK d   1      48.884  35.212  52.940  0.00  0.00     0.002 A 
ATOM     10  C   UNK d   1      49.488  35.163  53.508  0.00  0.00     0.002 A 
ATOM     11  C   UNK d   1      50.191  34.786  53.325  0.00  0.00     0.019 A 
BRANCH   7  12
ATOM     12  O   UNK d   1      49.801  34.172  51.254  0.00  0.00    -0.327 OA
ATOM     13  C   UNK d   1      49.224  34.268  50.673  0.00  0.00     0.181 C 
ENDBRANCH   7  12
ENDBRANCH   3   6
ENDBRANCH   1   2
BRANCH   1  14
ATOM     14  C   UNK d   1      52.346  32.619  53.200  0.00  0.00     0.124 C 
BRANCH  14  15
ATOM     15  C   UNK d   1      52.209  31.852  52.913  0.00  0.00     0.194 C 
ATOM     16  O   UNK d   1      52.635  31.562  52.273  0.00  0.00    -0.645 OA
BRANCH  15  17
ATOM     17  O   UNK d   1      51.640  31.367  53.269  0.00  0.00    -0.772 OA
ATOM     18  H   UNK d   1      51.688  30.553  53.175  0.00  0.00     0.167 HD
ENDBRANCH  15  17
ENDBRANCH  14  15
BRANCH  14  19
ATOM     19  N   UNK d   1      52.723  32.731  53.909  0.00  0.00    -0.346 N 
ATOM     20  H   UNK d   1      52.296  32.684  54.613  0.00  0.00     0.166 HD
BRANCH  19  21
ATOM     21  C   UNK d   0      53.531  32.892  53.937  0.00  0.00     0.092 C 
BRANCH  21  22
ATOM     22  C   UNK d   0      53.954  32.809  54.636  0.00  0.00     0.099 C 
BRANCH  22  23
ATOM     23  N   UNK d   0      54.651  33.235  54.743  0.00  0.00    -0.299 N 
ATOM     24  C   UNK d   0      55.196  33.296  54.128  0.00  0.00     0.100 C 
ATOM     25  C   UNK d   0      54.809  33.602  55.465  0.00  0.00     0.100 C 
ENDBRANCH  22  23
ENDBRANCH  21  22
ENDBRANCH  19  21
ENDBRANCH  14  19
ENDBRANCH   1  14
TORSDOF 10
ENDMDL
MODEL 8
REMARK VINA RESULT:      -5.1      1.504      4.552
REMARK  10 active torsions:
REMARK  status: ('A' for Active; 'I' for Inactive)
REMARK    1  A    between atoms: C_2  and  C_1 
REMARK       I    between atoms: N_3  and  C_1 
REMARK    2  A    between atoms: C_5  and  C_2 
REMARK    3  A    between atoms: C_6  and  N_3 
REMARK    4  A    between atoms: C_4  and  C_5 
REMARK    5  A    between atoms: O_11  and  C_4 
REMARK    6  A    between atoms: N_10  and  C_5 
REMARK    7  A    between atoms: O_13  and  C_9 
REMARK    8  A    between atoms: C_14  and  N_10 
REMARK    9  A    between atoms: N_12  and  C_16 
REMARK   10  A    between atoms: C_16  and  C_14 
ROOT
ATOM      1  C   UNK d   1      53.288  32.380  54.124  0.00  0.00     0.084 C 
ENDROOT
BRANCH   1   2
ATOM      2  C   UNK d   1      52.721  32.782  53.694  0.00  0.00     0.259 C 
ATOM      3  N   UNK d   1      52.291  33.391  54.045  0.00  0.00    -0.320 N 
ATOM      4  H   UNK d   1      52.439  33.592  54.839  0.00  0.00     0.169 HD
ATOM      5  O   UNK d   1      52.578  32.575  52.901  0.00  0.00    -0.267 OA
BRANCH   3   6
ATOM      6  C   UNK d   1      51.723  33.794  53.619  0.00  0.00     0.082 A 
ATOM      7  C   UNK d   1      51.780  34.625  53.548  0.00  0.00     0.110 A 
ATOM      8  C   UNK d   1      51.205  35.042  53.115  0.00  0.00     0.026 A 
ATOM      9  C   UNK d   1      50.587  34.615  52.765  0.00  0.00     0.002 A 
ATOM     10  C   UNK d   1      50.535  33.789  52.838  0.00  0.00     0.002 A 
ATOM     11  C   UNK d   1      51.101  33.380  53.264  0.00  0.00     0.019 A 
BRANCH   7  12
ATOM     12  O   UNK d   1      52.403  35.028  53.905  0.00  0.00    -0.327 OA
ATOM     13  C   UNK d   1      52.266  35.758  54.262  0.00  0.00     0.181 C 
ENDBRANCH   7  12
ENDBRANCH   3   6
ENDBRANCH   1   2
BRANCH   1  14
ATOM     14  C   UNK d   1      53.937  32.054  53.741  0.00  0.00     0.124 C 
BRANCH  14  15
ATOM     15  C   UNK d   1      54.643  32.486  53.680  0.00  0.00     0.194 C 
ATOM     16  O   UNK d   1      54.987  32.824  54.346  0.00  0.00    -0.645 OA
BRANCH  15  17
ATOM     17  O   UNK d   1      55.012  32.583  52.945  0.00  0.00    -0.772 OA
ATOM     18  H   UNK d   1      55.832  32.583  52.903  0.00  0.00     0.167 HD
ENDBRANCH  15  17
ENDBRANCH  14  15
BRANCH  14  19
ATOM     19  N   UNK d   1      53.882  31.309  53.425  0.00  0.00    -0.346 N 
ATOM     20  H   UNK d   1      54.032  31.193  52.622  0.00  0.00     0.166 HD
BRANCH  19  21
ATOM     21  C   UNK d   0      53.677  30.665  53.895  0.00  0.00     0.092 C 
BRANCH  21  22
ATOM     22  C   UNK d   0      53.712  29.899  53.601  0.00  0.00     0.099 C 
BRANCH  22  23
ATOM     23  N   UNK d   0      53.245  29.311  53.939  0.00  0.00    -0.299 N 
ATOM     24  C   UNK d   0      52.531  29.099  53.589  0.00  0.00     0.100 C 
ATOM     25  C   UNK d   0      53.489  28.930  54.630  0.00  0.00     0.100 C 
ENDBRANCH  22  23
ENDBRANCH  21  22
ENDBRANCH  19  21
ENDBRANCH  14  19
ENDBRANCH   1  14
TORSDOF 10
ENDMDL
MODEL 9
REMARK VINA RESULT:      -5.0      1.303      2.317
REMARK  10 active torsions:
REMARK  status: ('A' for Active; 'I' for Inactive)
REMARK    1  A    between atoms: C_2  and  C_1 
REMARK       I    between atoms: N_3  and  C_1 
REMARK    2  A    between atoms: C_5  and  C_2 
REMARK    3  A    between atoms: C_6  and  N_3 
REMARK    4  A    between atoms: C_4  and  C_5 
REMARK    5  A    between atoms: O_11  and  C_4 
REMARK    6  A    between atoms: N_10  and  C_5 
REMARK    7  A    between atoms: O_13  and  C_9 
REMARK    8  A    between atoms: C_14  and  N_10 
REMARK    9  A    between atoms: N_12  and  C_16 
REMARK   10  A    between atoms: C_16  and  C_14 
ROOT
ATOM      1  C   UNK d   1      51.741  33.460  52.534  0.00  0.00     0.084 C 
ENDROOT
BRANCH   1   2
ATOM      2  C   UNK d   1      51.947  32.724  52.825  0.00  0.00     0.259 C 
ATOM      3  N   UNK d   1      52.702  32.423  52.690  0.00  0.00    -0.320 N 
ATOM      4  H   UNK d   1      53.251  32.873  52.256  0.00  0.00     0.169 HD
ATOM      5  O   UNK d   1      51.393  32.279  53.257  0.00  0.00    -0.267 OA
BRANCH   3   6
ATOM      6  C   UNK d   1      52.912  31.689  52.978  0.00  0.00     0.082 A 
ATOM      7  C   UNK d   1      53.635  31.602  53.388  0.00  0.00     0.110 A 
ATOM      8  C   UNK d   1      53.854  30.856  53.684  0.00  0.00     0.026 A 
ATOM      9  C   UNK d   1      53.342  30.216  53.561  0.00  0.00     0.002 A 
ATOM     10  C   UNK d   1      52.624  30.307  53.154  0.00  0.00     0.002 A 
ATOM     11  C   UNK d   1      52.409  31.041  52.863  0.00  0.00     0.019 A 
BRANCH   7  12
ATOM     12  O   UNK d   1      54.127  32.252  53.497  0.00  0.00    -0.327 OA
ATOM     13  C   UNK d   1      54.779  32.191  53.998  0.00  0.00     0.181 C 
ENDBRANCH   7  12
ENDBRANCH   3   6
ENDBRANCH   1   2
BRANCH   1  14
ATOM     14  C   UNK d   1      51.303  33.975  52.999  0.00  0.00     0.124 C 
BRANCH  14  15
ATOM     15  C   UNK d   1      50.553  34.228  52.746  0.00  0.00     0.194 C 
ATOM     16  O   UNK d   1      50.412  34.391  51.953  0.00  0.00    -0.645 OA
BRANCH  15  17
ATOM     17  O   UNK d   1      49.936  34.318  53.291  0.00  0.00    -0.772 OA
ATOM     18  H   UNK d   1      49.752  33.698  53.796  0.00  0.00     0.167 HD
ENDBRANCH  15  17
ENDBRANCH  14  15
BRANCH  14  19
ATOM     19  N   UNK d   1      51.607  34.234  53.705  0.00  0.00    -0.346 N 
ATOM     20  H   UNK d   1      51.395  33.857  54.406  0.00  0.00     0.166 HD
BRANCH  19  21
ATOM     21  C   UNK d   0      52.127  34.873  53.731  0.00  0.00     0.092 C 
BRANCH  21  22
ATOM     22  C   UNK d   0      52.284  35.262  54.437  0.00  0.00     0.099 C 
BRANCH  22  23
ATOM     23  N   UNK d   0      53.061  35.450  54.635  0.00  0.00    -0.299 N 
ATOM     24  C   UNK d   0      53.413  35.109  55.296  0.00  0.00     0.100 C 
ATOM     25  C   UNK d   0      53.492  35.981  54.173  0.00  0.00     0.100 C 
ENDBRANCH  22  23
ENDBRANCH  21  22
ENDBRANCH  19  21
ENDBRANCH  14  19
ENDBRANCH   1  14
TORSDOF 10
ENDMDL
