MODEL 1
REMARK VINA RESULT:      -5.8      0.000      0.000
REMARK  5 active torsions:
REMARK  status: ('A' for Active; 'I' for Inactive)
REMARK    1  A    between atoms: N_2  and  S_1 
REMARK    2  A    between atoms: C_3  and  S_1 
REMARK    3  A    between atoms: C_4  and  N_2 
REMARK    4  A    between atoms: C_5  and  C_4 
REMARK       I    between atoms: C_8  and  N_9 
REMARK    5  A    between atoms: N_9  and  C_14 
ROOT
ATOM      1  C   UNL d   1     -41.498-122.974 -51.985  0.00  0.00     0.105 A 
ATOM      2  C   UNL d   1     -41.497-123.555 -52.582  0.00  0.00     0.015 A 
ATOM      3  C   UNL d   1     -41.411-122.180 -52.182  0.00  0.00     0.015 A 
ATOM      4  C   UNL d   1     -41.321-122.541 -53.568  0.00  0.00     0.085 A 
ATOM      5  C   UNL d   1     -41.322-121.966 -52.977  0.00  0.00     0.020 A 
ATOM      6  C   UNL d   1     -41.408-123.336 -53.371  0.00  0.00     0.020 A 
ENDROOT
BRANCH   1   7
ATOM      7  S   UNL d   1     -41.587-123.194 -51.196  0.00  0.00     0.285 S 
ATOM      8  O   UNL d   1     -41.126-123.802 -50.883  0.00  0.00    -0.198 OA
ATOM      9  O   UNL d   1     -42.131-122.581 -51.303  0.00  0.00    -0.198 OA
BRANCH   7  10
ATOM     10  N   UNL d   1     -42.138-122.808 -50.712  0.00  0.00    -0.150 NA
BRANCH  10  11
ATOM     11  C   UNL d   1     -42.304-123.095 -49.960  0.00  0.00     0.182 C 
BRANCH  11  12
ATOM     12  C   UNL d   1     -42.919-122.775 -49.516  0.00  0.00     0.232 C 
ATOM     13  O   UNL d   1     -43.699-122.932 -49.733  0.00  0.00    -0.643 OA
ATOM     14  O   UNL d   1     -42.759-122.302 -48.862  0.00  0.00    -0.643 OA
ENDBRANCH  11  12
ENDBRANCH  10  11
ENDBRANCH   7  10
ENDBRANCH   1   7
BRANCH   4  15
ATOM     15  N   UNL d   1     -41.231-122.319 -54.360  0.00  0.00    -0.208 NA
ATOM     16  C   UNL d   1     -41.896-122.170 -54.823  0.00  0.00     0.279 C 
ATOM     17  O   UNL d   1     -42.651-122.242 -54.498  0.00  0.00    -0.265 OA
ATOM     18  C   UNL d   1     -41.808-121.947 -55.618  0.00  0.00     0.068 C 
ENDBRANCH   4  15
TORSDOF 5
ENDMDL
MODEL 2
REMARK VINA RESULT:      -5.6      1.349      4.468
REMARK  5 active torsions:
REMARK  status: ('A' for Active; 'I' for Inactive)
REMARK    1  A    between atoms: N_2  and  S_1 
REMARK    2  A    between atoms: C_3  and  S_1 
REMARK    3  A    between atoms: C_4  and  N_2 
REMARK    4  A    between atoms: C_5  and  C_4 
REMARK       I    between atoms: C_8  and  N_9 
REMARK    5  A    between atoms: N_9  and  C_14 
ROOT
ATOM      1  C   UNL d   1     -41.748-122.565 -50.569  0.00  0.00     0.105 A 
ATOM      2  C   UNL d   1     -41.218-123.056 -50.154  0.00  0.00     0.015 A 
ATOM      3  C   UNL d   1     -42.510-122.447 -50.283  0.00  0.00     0.015 A 
ATOM      4  C   UNL d   1     -42.219-123.305 -49.171  0.00  0.00     0.085 A 
ATOM      5  C   UNL d   1     -42.744-122.819 -49.582  0.00  0.00     0.020 A 
ATOM      6  C   UNL d   1     -41.455-123.423 -49.457  0.00  0.00     0.020 A 
ENDROOT
BRANCH   1   7
ATOM      7  S   UNL d   1     -41.509-122.198 -51.266  0.00  0.00     0.285 S 
ATOM      8  O   UNL d   1     -41.123-121.470 -51.238  0.00  0.00    -0.198 OA
ATOM      9  O   UNL d   1     -41.869-122.899 -51.514  0.00  0.00    -0.198 OA
BRANCH   7  10
ATOM     10  N   UNL d   1     -41.655-122.554 -52.000  0.00  0.00    -0.150 NA
BRANCH  10  11
ATOM     11  C   UNL d   1     -41.298-122.264 -52.682  0.00  0.00     0.182 C 
BRANCH  11  12
ATOM     12  C   UNL d   1     -41.559-122.504 -53.425  0.00  0.00     0.232 C 
ATOM     13  O   UNL d   1     -41.736-121.935 -53.995  0.00  0.00    -0.643 OA
ATOM     14  O   UNL d   1     -41.644-123.304 -53.599  0.00  0.00    -0.643 OA
ENDBRANCH  11  12
ENDBRANCH  10  11
ENDBRANCH   7  10
ENDBRANCH   1   7
BRANCH   4  15
ATOM     15  N   UNL d   1     -42.460-123.673 -48.470  0.00  0.00    -0.208 NA
ATOM     16  C   UNL d   1     -42.371-123.285 -47.750  0.00  0.00     0.279 C 
ATOM     17  O   UNL d   1     -42.042-122.529 -47.725  0.00  0.00    -0.265 OA
ATOM     18  C   UNL d   1     -42.612-123.654 -47.045  0.00  0.00     0.068 C 
ENDBRANCH   4  15
TORSDOF 5
ENDMDL
