MODEL 1
REMARK VINA RESULT:      -7.1      0.000      0.000
REMARK  5 active torsions:
REMARK  status: ('A' for Active; 'I' for Inactive)
REMARK    1  A    between atoms: C_2  and  S_1 
REMARK    2  A    between atoms: N_3  and  S_1 
REMARK    3  A    between atoms: C_10  and  N_3 
REMARK    4  A    between atoms: C_9  and  C_5 
REMARK    5  A    between atoms: O_14  and  C_8 
ROOT
ATOM      1  C   UNL d   1     -48.819  14.146  22.758  0.00  0.00     0.127 A 
ATOM      2  C   UNL d   1     -49.027  13.440  22.384  0.00  0.00     0.011 A 
ATOM      3  C   UNL d   1     -49.815  13.288  22.199  0.00  0.00    -0.022 A 
ATOM      4  C   UNL d   1     -49.402  14.691  22.943  0.00  0.00     0.106 A 
ATOM      5  C   UNL d   1     -50.395  13.840  22.387  0.00  0.00    -0.002 A 
ATOM      6  C   UNL d   1     -50.187  14.546  22.761  0.00  0.00     0.025 A 
ENDROOT
BRANCH   1   7
ATOM      7  S   UNL d   1     -48.034  14.291  22.939  0.00  0.00     0.287 S 
ATOM      8  O   UNL d   1     -48.138  13.911  23.662  0.00  0.00    -0.198 OA
ATOM      9  O   UNL d   1     -47.927  14.669  22.224  0.00  0.00    -0.198 OA
BRANCH   7  10
ATOM     10  N   UNL d   1     -47.245  14.434  23.128  0.00  0.00    -0.157 NA
BRANCH  10  11
ATOM     11  C   UNL d   1     -46.680  13.851  22.994  0.00  0.00     0.113 A 
ATOM     12  C   UNL d   1     -46.573  13.251  23.537  0.00  0.00     0.119 A 
ATOM     13  N   UNL d   1     -46.008  12.668  23.402  0.00  0.00    -0.241 NA
ATOM     14  C   UNL d   1     -45.544  12.687  22.713  0.00  0.00     0.099 A 
ATOM     15  C   UNL d   1     -45.659  13.297  22.169  0.00  0.00     0.022 A 
ATOM     16  C   UNL d   1     -46.224  13.879  22.304  0.00  0.00     0.023 A 
ENDBRANCH  10  11
ENDBRANCH   7  10
ENDBRANCH   1   7
BRANCH   4  17
ATOM     17  O   UNL d   1     -49.195  15.397  23.316  0.00  0.00    -0.327 OA
ATOM     18  C   UNL d   1     -49.780  15.922  23.563  0.00  0.00     0.181 C 
ENDBRANCH   4  17
BRANCH   3  19
ATOM     19  C   UNL d   1     -50.022  12.582  21.825  0.00  0.00     0.019 C 
ATOM     20  C   UNL d   1     -50.230  11.877  21.451  0.00  0.00     0.004 C 
ATOM     21  C   UNL d   1     -49.855  12.922  21.092  0.00  0.00     0.004 C 
ATOM     22  C   UNL d   1     -50.190  12.243  22.558  0.00  0.00     0.004 C 
ENDBRANCH   3  19
TORSDOF 5
ENDMDL
MODEL 2
REMARK VINA RESULT:      -6.9      1.365      2.210
REMARK  5 active torsions:
REMARK  status: ('A' for Active; 'I' for Inactive)
REMARK    1  A    between atoms: C_2  and  S_1 
REMARK    2  A    between atoms: N_3  and  S_1 
REMARK    3  A    between atoms: C_10  and  N_3 
REMARK    4  A    between atoms: C_9  and  C_5 
REMARK    5  A    between atoms: O_14  and  C_8 
ROOT
ATOM      1  C   UNL d   1     -49.197  12.970  23.053  0.00  0.00     0.127 A 
ATOM      2  C   UNL d   1     -49.242  13.782  22.916  0.00  0.00     0.011 A 
ATOM      3  C   UNL d   1     -49.943  14.187  23.066  0.00  0.00    -0.022 A 
ATOM      4  C   UNL d   1     -49.854  12.571  23.339  0.00  0.00     0.106 A 
ATOM      5  C   UNL d   1     -50.598  13.781  23.353  0.00  0.00    -0.002 A 
ATOM      6  C   UNL d   1     -50.553  12.969  23.490  0.00  0.00     0.025 A 
ENDROOT
BRANCH   1   7
ATOM      7  S   UNL d   1     -48.497  12.572  22.902  0.00  0.00     0.287 S 
ATOM      8  O   UNL d   1     -48.294  12.643  23.697  0.00  0.00    -0.198 OA
ATOM      9  O   UNL d   1     -48.695  12.500  22.114  0.00  0.00    -0.198 OA
BRANCH   7  10
ATOM     10  N   UNL d   1     -47.791  12.173  22.758  0.00  0.00    -0.157 NA
BRANCH  10  11
ATOM     11  C   UNL d   1     -47.085  12.594  22.714  0.00  0.00     0.113 A 
ATOM     12  C   UNL d   1     -46.615  12.674  23.377  0.00  0.00     0.119 A 
ATOM     13  N   UNL d   1     -45.909  13.095  23.333  0.00  0.00    -0.241 NA
ATOM     14  C   UNL d   1     -45.672  13.439  22.614  0.00  0.00     0.099 A 
ATOM     15  C   UNL d   1     -46.152  13.352  21.949  0.00  0.00     0.022 A 
ATOM     16  C   UNL d   1     -46.858  12.932  21.993  0.00  0.00     0.023 A 
ENDBRANCH  10  11
ENDBRANCH   7  10
ENDBRANCH   1   7
BRANCH   4  17
ATOM     17  O   UNL d   1     -49.809  11.759  23.476  0.00  0.00    -0.327 OA
ATOM     18  C   UNL d   1     -50.483  11.340  23.696  0.00  0.00     0.181 C 
ENDBRANCH   4  17
BRANCH   3  19
ATOM     19  C   UNL d   1     -49.988  14.999  22.929  0.00  0.00     0.019 C 
ATOM     20  C   UNL d   1     -50.032  15.812  22.791  0.00  0.00     0.004 C 
ATOM     21  C   UNL d   1     -50.253  14.855  22.161  0.00  0.00     0.004 C 
ATOM     22  C   UNL d   1     -49.722  15.144  23.696  0.00  0.00     0.004 C 
ENDBRANCH   3  19
TORSDOF 5
ENDMDL
MODEL 3
REMARK VINA RESULT:      -6.8      1.422      3.255
REMARK  5 active torsions:
REMARK  status: ('A' for Active; 'I' for Inactive)
REMARK    1  A    between atoms: C_2  and  S_1 
REMARK    2  A    between atoms: N_3  and  S_1 
REMARK    3  A    between atoms: C_10  and  N_3 
REMARK    4  A    between atoms: C_9  and  C_5 
REMARK    5  A    between atoms: O_14  and  C_8 
ROOT
ATOM      1  C   UNL d   1     -47.916  13.779  22.654  0.00  0.00     0.127 A 
ATOM      2  C   UNL d   1     -48.357  13.087  22.739  0.00  0.00     0.011 A 
ATOM      3  C   UNL d   1     -47.976  12.362  22.820  0.00  0.00    -0.022 A 
ATOM      4  C   UNL d   1     -47.097  13.738  22.651  0.00  0.00     0.106 A 
ATOM      5  C   UNL d   1     -47.154  12.328  22.817  0.00  0.00    -0.002 A 
ATOM      6  C   UNL d   1     -46.712  13.020  22.732  0.00  0.00     0.025 A 
ENDROOT
BRANCH   1   7
ATOM      7  S   UNL d   1     -48.301  14.497  22.574  0.00  0.00     0.287 S 
ATOM      8  O   UNL d   1     -48.235  14.615  23.386  0.00  0.00    -0.198 OA
ATOM      9  O   UNL d   1     -48.369  14.383  21.768  0.00  0.00    -0.198 OA
BRANCH   7  10
ATOM     10  N   UNL d   1     -48.688  15.220  22.500  0.00  0.00    -0.157 NA
BRANCH  10  11
ATOM     11  C   UNL d   1     -49.472  15.291  22.742  0.00  0.00     0.113 A 
ATOM     12  C   UNL d   1     -49.650  15.642  23.457  0.00  0.00     0.119 A 
ATOM     13  N   UNL d   1     -50.435  15.713  23.698  0.00  0.00    -0.241 NA
ATOM     14  C   UNL d   1     -51.047  15.427  23.214  0.00  0.00     0.099 A 
ATOM     15  C   UNL d   1     -50.858  15.074  22.493  0.00  0.00     0.022 A 
ATOM     16  C   UNL d   1     -50.075  15.004  22.252  0.00  0.00     0.023 A 
ENDBRANCH  10  11
ENDBRANCH   7  10
ENDBRANCH   1   7
BRANCH   4  17
ATOM     17  O   UNL d   1     -46.656  14.430  22.566  0.00  0.00    -0.327 OA
ATOM     18  C   UNL d   1     -45.840  14.415  22.680  0.00  0.00     0.181 C 
ENDBRANCH   4  17
BRANCH   3  19
ATOM     19  C   UNL d   1     -48.417  11.670  22.905  0.00  0.00     0.019 C 
ATOM     20  C   UNL d   1     -48.858  10.978  22.990  0.00  0.00     0.004 C 
ATOM     21  C   UNL d   1     -48.193  11.624  23.698  0.00  0.00     0.004 C 
ATOM     22  C   UNL d   1     -48.641  11.716  22.113  0.00  0.00     0.004 C 
ENDBRANCH   3  19
TORSDOF 5
ENDMDL
MODEL 4
REMARK VINA RESULT:      -6.0      8.502      9.837
REMARK  5 active torsions:
REMARK  status: ('A' for Active; 'I' for Inactive)
REMARK    1  A    between atoms: C_2  and  S_1 
REMARK    2  A    between atoms: N_3  and  S_1 
REMARK    3  A    between atoms: C_10  and  N_3 
REMARK    4  A    between atoms: C_9  and  C_5 
REMARK    5  A    between atoms: O_14  and  C_8 
ROOT
ATOM      1  C   UNL d   1     -40.179  14.981  18.193  0.00  0.00     0.127 A 
ATOM      2  C   UNL d   1     -39.528  14.476  18.166  0.00  0.00     0.011 A 
ATOM      3  C   UNL d   1     -39.243  14.209  17.441  0.00  0.00    -0.022 A 
ATOM      4  C   UNL d   1     -40.539  15.214  17.495  0.00  0.00     0.106 A 
ATOM      5  C   UNL d   1     -39.609  14.447  16.744  0.00  0.00    -0.002 A 
ATOM      6  C   UNL d   1     -40.261  14.952  16.771  0.00  0.00     0.025 A 
ENDROOT
BRANCH   1   7
ATOM      7  S   UNL d   1     -40.458  15.243  18.917  0.00  0.00     0.287 S 
ATOM      8  O   UNL d   1     -39.995  15.920  18.843  0.00  0.00    -0.198 OA
ATOM      9  O   UNL d   1     -40.917  14.573  18.996  0.00  0.00    -0.198 OA
BRANCH   7  10
ATOM     10  N   UNL d   1     -40.734  15.512  19.645  0.00  0.00    -0.157 NA
BRANCH  10  11
ATOM     11  C   UNL d   1     -40.330  15.314  20.335  0.00  0.00     0.113 A 
ATOM     12  C   UNL d   1     -39.718  15.784  20.601  0.00  0.00     0.119 A 
ATOM     13  N   UNL d   1     -39.315  15.584  21.291  0.00  0.00    -0.241 NA
ATOM     14  C   UNL d   1     -39.529  14.905  21.718  0.00  0.00     0.099 A 
ATOM     15  C   UNL d   1     -40.149  14.435  21.442  0.00  0.00     0.022 A 
ATOM     16  C   UNL d   1     -40.552  14.635  20.753  0.00  0.00     0.023 A 
ENDBRANCH  10  11
ENDBRANCH   7  10
ENDBRANCH   1   7
BRANCH   4  17
ATOM     17  O   UNL d   1     -41.191  15.719  17.522  0.00  0.00    -0.327 OA
ATOM     18  C   UNL d   1     -41.589  15.918  16.829  0.00  0.00     0.181 C 
ENDBRANCH   4  17
BRANCH   3  19
ATOM     19  C   UNL d   1     -38.591  13.704  17.414  0.00  0.00     0.019 C 
ATOM     20  C   UNL d   1     -37.940  13.199  17.386  0.00  0.00     0.004 C 
ATOM     21  C   UNL d   1     -38.109  14.338  17.197  0.00  0.00     0.004 C 
ATOM     22  C   UNL d   1     -39.073  13.071  17.630  0.00  0.00     0.004 C 
ENDBRANCH   3  19
TORSDOF 5
ENDMDL
MODEL 5
REMARK VINA RESULT:      -5.3      8.947     10.198
REMARK  5 active torsions:
REMARK  status: ('A' for Active; 'I' for Inactive)
REMARK    1  A    between atoms: C_2  and  S_1 
REMARK    2  A    between atoms: N_3  and  S_1 
REMARK    3  A    between atoms: C_10  and  N_3 
REMARK    4  A    between atoms: C_9  and  C_5 
REMARK    5  A    between atoms: O_14  and  C_8 
ROOT
ATOM      1  C   UNL d   1     -39.226  14.181  18.424  0.00  0.00     0.127 A 
ATOM      2  C   UNL d   1     -39.761  14.747  18.152  0.00  0.00     0.011 A 
ATOM      3  C   UNL d   1     -39.943  14.790  17.350  0.00  0.00    -0.022 A 
ATOM      4  C   UNL d   1     -38.879  13.664  17.892  0.00  0.00     0.106 A 
ATOM      5  C   UNL d   1     -39.591  14.267  16.821  0.00  0.00    -0.002 A 
ATOM      6  C   UNL d   1     -39.056  13.701  17.093  0.00  0.00     0.025 A 
ENDROOT
BRANCH   1   7
ATOM      7  S   UNL d   1     -39.050  14.143  19.223  0.00  0.00     0.287 S 
ATOM      8  O   UNL d   1     -38.403  14.637  19.097  0.00  0.00    -0.198 OA
ATOM      9  O   UNL d   1     -39.689  13.653  19.353  0.00  0.00    -0.198 OA
BRANCH   7  10
ATOM     10  N   UNL d   1     -38.866  14.110  20.025  0.00  0.00    -0.157 NA
BRANCH  10  11
ATOM     11  C   UNL d   1     -39.193  14.659  20.543  0.00  0.00     0.113 A 
ATOM     12  C   UNL d   1     -38.817  15.372  20.675  0.00  0.00     0.119 A 
ATOM     13  N   UNL d   1     -39.145  15.922  21.193  0.00  0.00    -0.241 NA
ATOM     14  C   UNL d   1     -39.859  15.753  21.584  0.00  0.00     0.099 A 
ATOM     15  C   UNL d   1     -40.232  15.031  21.445  0.00  0.00     0.022 A 
ATOM     16  C   UNL d   1     -39.905  14.482  20.927  0.00  0.00     0.023 A 
ENDBRANCH  10  11
ENDBRANCH   7  10
ENDBRANCH   1   7
BRANCH   4  17
ATOM     17  O   UNL d   1     -38.344  13.098  18.164  0.00  0.00    -0.327 OA
ATOM     18  C   UNL d   1     -38.008  12.560  17.638  0.00  0.00     0.181 C 
ENDBRANCH   4  17
BRANCH   3  19
ATOM     19  C   UNL d   1     -40.478  15.356  17.078  0.00  0.00     0.019 C 
ATOM     20  C   UNL d   1     -41.012  15.922  16.805  0.00  0.00     0.004 C 
ATOM     21  C   UNL d   1     -39.851  15.860  16.895  0.00  0.00     0.004 C 
ATOM     22  C   UNL d   1     -41.104  14.852  17.260  0.00  0.00     0.004 C 
ENDBRANCH   3  19
TORSDOF 5
ENDMDL
MODEL 6
REMARK VINA RESULT:      -5.1      7.298      9.647
REMARK  5 active torsions:
REMARK  status: ('A' for Active; 'I' for Inactive)
REMARK    1  A    between atoms: C_2  and  S_1 
REMARK    2  A    between atoms: N_3  and  S_1 
REMARK    3  A    between atoms: C_10  and  N_3 
REMARK    4  A    between atoms: C_9  and  C_5 
REMARK    5  A    between atoms: O_14  and  C_8 
ROOT
ATOM      1  C   UNL d   1     -40.345  14.448  19.798  0.00  0.00     0.127 A 
ATOM      2  C   UNL d   1     -39.614  14.776  19.997  0.00  0.00     0.011 A 
ATOM      3  C   UNL d   1     -39.400  14.854  20.789  0.00  0.00    -0.022 A 
ATOM      4  C   UNL d   1     -40.853  14.202  20.392  0.00  0.00     0.106 A 
ATOM      5  C   UNL d   1     -39.915  14.605  21.380  0.00  0.00    -0.002 A 
ATOM      6  C   UNL d   1     -40.646  14.277  21.180  0.00  0.00     0.025 A 
ENDROOT
BRANCH   1   7
ATOM      7  S   UNL d   1     -40.552  14.373  19.010  0.00  0.00     0.287 S 
ATOM      8  O   UNL d   1     -40.876  15.130  19.029  0.00  0.00    -0.198 OA
ATOM      9  O   UNL d   1     -40.232  13.622  18.985  0.00  0.00    -0.198 OA
BRANCH   7  10
ATOM     10  N   UNL d   1     -40.764  14.304  18.216  0.00  0.00    -0.157 NA
BRANCH  10  11
ATOM     11  C   UNL d   1     -40.241  14.551  17.630  0.00  0.00     0.113 A 
ATOM     12  C   UNL d   1     -40.290  15.308  17.330  0.00  0.00     0.119 A 
ATOM     13  N   UNL d   1     -39.767  15.555  16.744  0.00  0.00    -0.241 NA
ATOM     14  C   UNL d   1     -39.187  15.034  16.456  0.00  0.00     0.099 A 
ATOM     15  C   UNL d   1     -39.144  14.270  16.765  0.00  0.00     0.022 A 
ATOM     16  C   UNL d   1     -39.667  14.024  17.351  0.00  0.00     0.023 A 
ENDBRANCH  10  11
ENDBRANCH   7  10
ENDBRANCH   1   7
BRANCH   4  17
ATOM     17  O   UNL d   1     -41.583  13.874  20.192  0.00  0.00    -0.327 OA
ATOM     18  C   UNL d   1     -42.087  13.598  20.783  0.00  0.00     0.181 C 
ENDBRANCH   4  17
BRANCH   3  19
ATOM     19  C   UNL d   1     -38.670  15.182  20.988  0.00  0.00     0.019 C 
ATOM     20  C   UNL d   1     -37.940  15.510  21.188  0.00  0.00     0.004 C 
ATOM     21  C   UNL d   1     -38.313  14.444  20.894  0.00  0.00     0.004 C 
ATOM     22  C   UNL d   1     -39.027  15.920  21.083  0.00  0.00     0.004 C 
ENDBRANCH   3  19
TORSDOF 5
ENDMDL
MODEL 7
REMARK VINA RESULT:      -4.5      1.879      4.054
REMARK  5 active torsions:
REMARK  status: ('A' for Active; 'I' for Inactive)
REMARK    1  A    between atoms: C_2  and  S_1 
REMARK    2  A    between atoms: N_3  and  S_1 
REMARK    3  A    between atoms: C_10  and  N_3 
REMARK    4  A    between atoms: C_9  and  C_5 
REMARK    5  A    between atoms: O_14  and  C_8 
ROOT
ATOM      1  C   UNL d   1     -47.841  12.284  22.944  0.00  0.00     0.127 A 
ATOM      2  C   UNL d   1     -47.582  13.044  22.754  0.00  0.00     0.011 A 
ATOM      3  C   UNL d   1     -46.817  13.279  22.948  0.00  0.00    -0.022 A 
ATOM      4  C   UNL d   1     -47.332  11.767  23.326  0.00  0.00     0.106 A 
ATOM      5  C   UNL d   1     -46.311  12.755  23.331  0.00  0.00    -0.002 A 
ATOM      6  C   UNL d   1     -46.570  11.995  23.521  0.00  0.00     0.025 A 
ENDROOT
BRANCH   1   7
ATOM      7  S   UNL d   1     -48.602  12.056  22.748  0.00  0.00     0.287 S 
ATOM      8  O   UNL d   1     -48.354  11.914  21.976  0.00  0.00    -0.198 OA
ATOM      9  O   UNL d   1     -48.853  12.196  23.513  0.00  0.00    -0.198 OA
BRANCH   7  10
ATOM     10  N   UNL d   1     -49.367  11.825  22.545  0.00  0.00    -0.157 NA
BRANCH  10  11
ATOM     11  C   UNL d   1     -49.933  12.396  22.369  0.00  0.00     0.113 A 
ATOM     12  C   UNL d   1     -50.409  12.696  22.960  0.00  0.00     0.119 A 
ATOM     13  N   UNL d   1     -50.976  13.268  22.783  0.00  0.00    -0.241 NA
ATOM     14  C   UNL d   1     -51.065  13.539  22.003  0.00  0.00     0.099 A 
ATOM     15  C   UNL d   1     -50.579  13.230  21.412  0.00  0.00     0.022 A 
ATOM     16  C   UNL d   1     -50.013  12.660  21.588  0.00  0.00     0.023 A 
ENDBRANCH  10  11
ENDBRANCH   7  10
ENDBRANCH   1   7
BRANCH   4  17
ATOM     17  O   UNL d   1     -47.591  11.007  23.516  0.00  0.00    -0.327 OA
ATOM     18  C   UNL d   1     -47.044  10.418  23.698  0.00  0.00     0.181 C 
ENDBRANCH   4  17
BRANCH   3  19
ATOM     19  C   UNL d   1     -46.558  14.039  22.758  0.00  0.00     0.019 C 
ATOM     20  C   UNL d   1     -46.299  14.799  22.568  0.00  0.00     0.004 C 
ATOM     21  C   UNL d   1     -47.095  14.357  23.297  0.00  0.00     0.004 C 
ATOM     22  C   UNL d   1     -46.021  13.721  22.218  0.00  0.00     0.004 C 
ENDBRANCH   3  19
TORSDOF 5
ENDMDL
