MODEL 1
REMARK VINA RESULT:      40.6      0.000      0.000
REMARK  8 active torsions:
REMARK  status: ('A' for Active; 'I' for Inactive)
REMARK    1  A    between atoms: N_5  and  C_1 
REMARK    2  A    between atoms: C_2  and  N_5 
REMARK    3  A    between atoms: N_3  and  C_2 
REMARK       I    between atoms: C_6  and  N_3 
REMARK    4  A    between atoms: C_13  and  C_6 
REMARK    5  A    between atoms: C_9  and  C_7 
REMARK    6  A    between atoms: C_11  and  C_9 
REMARK    7  A    between atoms: O_18  and  C_11 
REMARK    8  A    between atoms: C_22  and  O_18 
ROOT
ATOM      1  C   UNL d   1     -55.386-102.444 -42.009  0.00  0.00     0.225 C 
ATOM      2  S   UNL d   1     -56.142-102.765 -42.101  0.00  0.00    -0.037 SA
ENDROOT
BRANCH   1   3
ATOM      3  N   UNL d   1     -54.825-102.773 -41.505  0.00  0.00    -0.192 NA
BRANCH   3   4
ATOM      4  C   UNL d   1     -54.792-102.517 -40.737  0.00  0.00     0.196 A 
ATOM      5  N   UNL d   1     -54.771-102.874 -39.999  0.00  0.00    -0.220 NA
ATOM      6  C   UNL d   1     -54.740-102.326 -39.429  0.00  0.00     0.095 A 
ATOM      7  C   UNL d   1     -54.739-101.586 -39.754  0.00  0.00     0.058 A 
ATOM      8  S   UNL d   1     -54.771-101.674 -40.567  0.00  0.00    -0.046 SA
BRANCH   6   9
ATOM      9  C   UNL d   1     -54.711-102.481 -38.568  0.00  0.00     0.088 C 
BRANCH   9  10
ATOM     10  C   UNL d   1     -55.266-102.158 -38.074  0.00  0.00     0.302 C 
ATOM     11  O   UNL d   1     -56.003-101.933 -38.360  0.00  0.00    -0.259 OA
BRANCH  10  12
ATOM     12  O   UNL d   1     -55.088-102.051 -37.262  0.00  0.00    -0.271 OA
BRANCH  12  13
ATOM     13  C   UNL d   1     -55.131-102.697 -36.739  0.00  0.00     0.126 C 
ATOM     14  C   UNL d   1     -55.098-102.582 -35.934  0.00  0.00     0.029 C 
ENDBRANCH  12  13
ENDBRANCH  10  12
ENDBRANCH   9  10
ENDBRANCH   6   9
ENDBRANCH   3   4
ENDBRANCH   1   3
BRANCH   1  15
ATOM     15  N   UNL d   1     -55.182-101.756 -42.450  0.00  0.00    -0.179 NA
ATOM     16  C   UNL d   1     -55.482-101.669 -43.182  0.00  0.00     0.281 C 
ATOM     17  O   UNL d   1     -55.987-102.243 -43.513  0.00  0.00    -0.265 OA
BRANCH  16  18
ATOM     18  C   UNL d   1     -55.285-100.978 -43.639  0.00  0.00     0.058 A 
ATOM     19  C   UNL d   1     -55.488-100.226 -43.366  0.00  0.00     0.005 A 
ATOM     20  C   UNL d   1     -55.312 -99.553 -43.782  0.00  0.00     0.000 A 
ATOM     21  C   UNL d   1     -54.911 -99.627 -44.515  0.00  0.00     0.000 A 
ATOM     22  C   UNL d   1     -54.711-100.368 -44.785  0.00  0.00     0.000 A 
ATOM     23  C   UNL d   1     -54.714 -98.966 -44.969  0.00  0.00     0.000 C 
ATOM     24  C   UNL d   1     -54.886-101.061 -44.367  0.00  0.00     0.005 A 
ENDBRANCH  16  18
ENDBRANCH   1  15
TORSDOF 8
ENDMDL
