MODEL 1
REMARK VINA RESULT:      31.7      0.000      0.000
REMARK  3 active torsions:
REMARK  status: ('A' for Active; 'I' for Inactive)
REMARK    1  A    between atoms: C_2  and  C_1 
REMARK       I    between atoms: N_5  and  C_2 
REMARK    2  A    between atoms: C_10  and  N_5 
REMARK    3  A    between atoms: O_16  and  C_11 
ROOT
ATOM      1  C   UNL d   1     -54.828-102.014 -41.758  0.00  0.00     0.281 C 
ATOM      2  N   UNL d   1     -54.729-101.500 -41.124  0.00  0.00    -0.208 NA
ATOM      3  O   UNL d   1     -54.957-102.818 -41.622  0.00  0.00    -0.265 OA
ENDROOT
BRANCH   1   4
ATOM      4  C   UNL d   1     -54.799-101.735 -42.534  0.00  0.00     0.083 A 
ATOM      5  C   UNL d   1     -54.827-100.922 -42.690  0.00  0.00     0.009 A 
ATOM      6  C   UNL d   1     -54.797-100.651 -43.477  0.00  0.00     0.023 A 
ATOM      7  C   UNL d   1     -54.825 -99.843 -43.634  0.00  0.00     0.002 A 
ATOM      8  C   UNL d   1     -54.740-101.199 -44.107  0.00  0.00     0.100 A 
ATOM      9  C   UNL d   1     -54.795 -99.582 -44.418  0.00  0.00     0.000 A 
ATOM     10  C   UNL d   1     -54.739-100.122 -45.039  0.00  0.00     0.002 A 
ATOM     11  C   UNL d   1     -54.711-100.929 -44.882  0.00  0.00     0.025 A 
ATOM     12  O   UNL d   1     -54.713-102.006 -43.950  0.00  0.00    -0.305 OA
ATOM     13  C   UNL d   1     -54.742-102.283 -43.164  0.00  0.00     0.127 A 
ENDBRANCH   1   4
BRANCH   2  14
ATOM     14  C   UNL d   1     -54.759-101.787 -40.349  0.00  0.00     0.085 A 
ATOM     15  C   UNL d   1     -54.838-102.596 -40.214  0.00  0.00     0.021 A 
ATOM     16  C   UNL d   1     -54.867-102.880 -39.442  0.00  0.00     0.026 A 
ATOM     17  C   UNL d   1     -54.819-102.361 -38.814  0.00  0.00     0.094 A 
ATOM     18  C   UNL d   1     -54.740-101.548 -38.945  0.00  0.00     0.026 A 
ATOM     19  C   UNL d   1     -54.711-101.270 -39.724  0.00  0.00     0.021 A 
BRANCH  17  20
ATOM     20  O   UNL d   1     -54.848-102.638 -38.036  0.00  0.00    -0.328 OA
ATOM     21  C   UNL d   1     -55.558-102.862 -37.701  0.00  0.00     0.181 C 
ENDBRANCH  17  20
ENDBRANCH   2  14
TORSDOF 3
ENDMDL
