MODEL 1
REMARK VINA RESULT:      15.3      0.000      0.000
REMARK  6 active torsions:
REMARK  status: ('A' for Active; 'I' for Inactive)
REMARK    1  A    between atoms: C_4  and  S_1 
REMARK    2  A    between atoms: C_5  and  S_1 
REMARK    3  A    between atoms: C_2  and  N_7 
REMARK    4  A    between atoms: N_3  and  C_2 
REMARK    5  A    between atoms: C_17  and  N_6 
REMARK    6  A    between atoms: N_7  and  C_12 
ROOT
ATOM      1  C   UNL d   1      45.709 -15.187  44.613  0.00  0.00     0.206 C 
ATOM      2  S   UNL d   1      44.980 -14.949  44.913  0.00  0.00    -0.038 SA
ENDROOT
BRANCH   1   3
ATOM      3  N   UNL d   1      46.315 -14.631  44.513  0.00  0.00    -0.218 NA
BRANCH   3   4
ATOM      4  C   UNL d   1      46.132 -13.836  44.385  0.00  0.00     0.085 A 
ATOM      5  C   UNL d   1      45.759 -13.612  43.683  0.00  0.00     0.031 A 
ATOM      6  C   UNL d   1      45.579 -12.821  43.557  0.00  0.00     0.094 A 
ATOM      7  C   UNL d   1      45.771 -12.253  44.133  0.00  0.00     0.012 A 
ATOM      8  C   UNL d   1      46.143 -12.486  44.831  0.00  0.00     0.002 A 
ATOM      9  C   UNL d   1      46.322 -13.282  44.952  0.00  0.00     0.019 A 
BRANCH   6  10
ATOM     10  S   UNL d   1      45.208 -12.592  42.861  0.00  0.00     0.262 S 
ATOM     11  O   UNL d   1      44.576 -12.289  43.303  0.00  0.00    -0.213 OA
ATOM     12  O   UNL d   1      45.836 -12.894  42.427  0.00  0.00    -0.213 OA
BRANCH  10  13
ATOM     13  C   UNL d   1      44.836 -12.363  42.165  0.00  0.00     0.364 C 
ATOM     14  F   UNL d   1      45.277 -12.259  41.477  0.00  0.00    -0.159 F 
ATOM     15  F   UNL d   1      44.018 -12.236  42.152  0.00  0.00    -0.159 F 
ENDBRANCH  10  13
ENDBRANCH   6  10
ENDBRANCH   3   4
ENDBRANCH   1   3
BRANCH   1  16
ATOM     16  N   UNL d   1      45.835 -15.974  44.414  0.00  0.00    -0.278 N 
ATOM     17  C   UNL d   1      46.188 -16.485  44.954  0.00  0.00     0.101 A 
ATOM     18  C   UNL d   1      46.314 -17.271  44.755  0.00  0.00     0.100 A 
ATOM     19  N   UNL d   1      46.087 -17.547  44.016  0.00  0.00    -0.301 N 
ATOM     20  C   UNL d   1      45.734 -17.040  43.473  0.00  0.00     0.100 A 
ATOM     21  C   UNL d   1      45.608 -16.249  43.675  0.00  0.00     0.101 A 
BRANCH  19  22
ATOM     22  C   UNL d   1      46.217 -18.339  43.822  0.00  0.00     0.064 A 
ATOM     23  C   UNL d   1      46.262 -18.902  44.424  0.00  0.00     0.018 A 
ATOM     24  C   UNL d   1      46.391 -19.692  44.238  0.00  0.00     0.002 A 
ATOM     25  C   UNL d   1      46.475 -19.924  43.448  0.00  0.00     0.000 A 
ATOM     26  C   UNL d   1      46.430 -19.364  42.849  0.00  0.00     0.002 A 
ATOM     27  C   UNL d   1      46.300 -18.571  43.033  0.00  0.00     0.018 A 
ENDBRANCH  19  22
ENDBRANCH   1  16
TORSDOF 6
ENDMDL
