MODEL 1
REMARK VINA RESULT:      46.8      0.000      0.000
REMARK  6 active torsions:
REMARK  status: ('A' for Active; 'I' for Inactive)
REMARK    1  A    between atoms: C_12  and  C_3 
REMARK    2  A    between atoms: N_16  and  C_4 
REMARK    3  A    between atoms: N_11  and  C_23 
REMARK    4  A    between atoms: C_26  and  N_16 
REMARK    5  A    between atoms: C_23  and  C_24 
REMARK    6  A    between atoms: C_24  and  C_26 
ROOT
ATOM      1  C   UNL d   1     -54.749-100.987 -38.586  0.00  0.00     0.168 A 
ATOM      2  N   UNL d   1     -54.759-101.286 -39.383  0.00  0.00    -0.184 N 
ATOM      3  C   UNL d   1     -54.751-100.187 -38.451  0.00  0.00     0.057 A 
ATOM      4  C   UNL d   1     -54.757-102.085 -39.498  0.00  0.00     0.218 A 
ATOM      5  N   UNL d   1     -54.773 -99.948 -39.869  0.00  0.00    -0.160 NA
ATOM      6  N   UNL d   1     -54.737-101.508 -37.957  0.00  0.00    -0.227 NA
ATOM      7  C   UNL d   1     -54.745-102.619 -38.871  0.00  0.00     0.071 A 
ATOM      8  C   UNL d   1     -54.764 -99.659 -39.097  0.00  0.00     0.124 A 
ATOM      9  C   UNL d   1     -54.735-102.325 -38.086  0.00  0.00     0.087 A 
ATOM     10  C   UNL d   1     -54.722-102.874 -37.424  0.00  0.00     0.021 C 
ENDROOT
BRANCH   4  11
ATOM     11  N   UNL d   1     -54.767-102.390 -40.302  0.00  0.00    -0.380 NA
BRANCH  11  12
ATOM     12  C   UNL d   1     -54.721-102.649 -41.120  0.00  0.00     0.164 C 
BRANCH  12  13
ATOM     13  C   UNL d   1     -54.721-102.068 -41.740  0.00  0.00     0.054 C 
BRANCH  13  14
ATOM     14  C   UNL d   1     -54.724-102.322 -42.555  0.00  0.00     0.084 C 
BRANCH  14  15
ATOM     15  N   UNL d   1     -54.726-101.737 -43.189  0.00  0.00    -0.285 N 
ATOM     16  C   UNL d   1     -54.722-100.887 -43.096  0.00  0.00     0.183 A 
ATOM     17  N   UNL d   1     -54.726-100.534 -43.872  0.00  0.00    -0.222 NA
ATOM     18  C   UNL d   1     -54.731-101.171 -44.447  0.00  0.00     0.120 A 
ATOM     19  C   UNL d   1     -54.731-101.910 -44.028  0.00  0.00     0.102 A 
ENDBRANCH  14  15
ENDBRANCH  13  14
ENDBRANCH  12  13
ENDBRANCH  11  12
ENDBRANCH   4  11
BRANCH   3  20
ATOM     20  C   UNL d   1     -54.741 -99.898 -37.678  0.00  0.00     0.005 A 
ATOM     21  C   UNL d   1     -54.751-100.418 -37.051  0.00  0.00     0.001 A 
ATOM     22  C   UNL d   1     -54.741-100.129 -36.278  0.00  0.00     0.011 A 
ATOM     23  C   UNL d   1     -54.722 -99.325 -36.146  0.00  0.00     0.058 A 
ATOM     24  C   UNL d   1     -54.712 -98.810 -36.786  0.00  0.00     0.011 A 
ATOM     25 CL   UNL d   1     -54.711 -99.022 -35.336  0.00  0.00    -0.082 Cl
ATOM     26  C   UNL d   1     -54.722 -99.094 -37.546  0.00  0.00     0.001 A 
ENDBRANCH   3  20
TORSDOF 6
ENDMDL
MODEL 2
REMARK VINA RESULT:      48.9      2.926      5.894
REMARK  6 active torsions:
REMARK  status: ('A' for Active; 'I' for Inactive)
REMARK    1  A    between atoms: C_12  and  C_3 
REMARK    2  A    between atoms: N_16  and  C_4 
REMARK    3  A    between atoms: N_11  and  C_23 
REMARK    4  A    between atoms: C_26  and  N_16 
REMARK    5  A    between atoms: C_23  and  C_24 
REMARK    6  A    between atoms: C_24  and  C_26 
ROOT
ATOM      1  C   UNL d   1     -54.832-101.048 -43.142  0.00  0.00     0.168 A 
ATOM      2  N   UNL d   1     -54.778-101.403 -42.370  0.00  0.00    -0.184 N 
ATOM      3  C   UNL d   1     -54.835-100.241 -43.219  0.00  0.00     0.057 A 
ATOM      4  C   UNL d   1     -54.776-102.209 -42.313  0.00  0.00     0.218 A 
ATOM      5  N   UNL d   1     -54.733-100.104 -41.791  0.00  0.00    -0.160 NA
ATOM      6  N   UNL d   1     -54.880-101.522 -43.806  0.00  0.00    -0.227 NA
ATOM      7  C   UNL d   1     -54.825-102.696 -42.976  0.00  0.00     0.071 A 
ATOM      8  C   UNL d   1     -54.785 -99.760 -42.539  0.00  0.00     0.124 A 
ATOM      9  C   UNL d   1     -54.878-102.346 -43.736  0.00  0.00     0.087 A 
ATOM     10  C   UNL d   1     -54.928-102.846 -44.434  0.00  0.00     0.021 C 
ENDROOT
BRANCH   4  11
ATOM     11  N   UNL d   1     -54.722-102.571 -41.535  0.00  0.00    -0.380 NA
BRANCH  11  12
ATOM     12  C   UNL d   1     -54.712-102.878 -40.733  0.00  0.00     0.164 C 
BRANCH  12  13
ATOM     13  C   UNL d   1     -54.935-102.368 -40.091  0.00  0.00     0.054 C 
BRANCH  13  14
ATOM     14  C   UNL d   1     -55.594-102.584 -39.592  0.00  0.00     0.084 C 
BRANCH  14  15
ATOM     15  N   UNL d   1     -55.480-102.670 -38.741  0.00  0.00    -0.285 N 
ATOM     16  C   UNL d   1     -54.734-102.771 -38.336  0.00  0.00     0.183 A 
ATOM     17  N   UNL d   1     -54.891-102.833 -37.500  0.00  0.00    -0.222 NA
ATOM     18  C   UNL d   1     -55.739-102.770 -37.389  0.00  0.00     0.120 A 
ATOM     19  C   UNL d   1     -56.102-102.670 -38.151  0.00  0.00     0.102 A 
ENDBRANCH  14  15
ENDBRANCH  13  14
ENDBRANCH  12  13
ENDBRANCH  11  12
ENDBRANCH   4  11
BRANCH   3  20
ATOM     20  C   UNL d   1     -54.886 -99.897 -43.967  0.00  0.00     0.005 A 
ATOM     21  C   UNL d   1     -55.086 -99.110 -44.038  0.00  0.00     0.001 A 
ATOM     22  C   UNL d   1     -55.138 -98.766 -44.786  0.00  0.00     0.011 A 
ATOM     23  C   UNL d   1     -54.989 -99.214 -45.451  0.00  0.00     0.058 A 
ATOM     24  C   UNL d   1     -54.789-100.007 -45.367  0.00  0.00     0.011 A 
ATOM     25 CL   UNL d   1     -55.044 -98.854 -46.235  0.00  0.00    -0.082 Cl
ATOM     26  C   UNL d   1     -54.737-100.346 -44.631  0.00  0.00     0.001 A 
ENDBRANCH   3  20
TORSDOF 6
ENDMDL
