MODEL 1
REMARK VINA RESULT:      58.8      0.000      0.000
REMARK  4 active torsions:
REMARK  status: ('A' for Active; 'I' for Inactive)
REMARK    1  A    between atoms: C_2  and  S_1 
REMARK    2  A    between atoms: N_3  and  S_1 
REMARK    3  A    between atoms: C_7  and  N_4 
REMARK    4  A    between atoms: O_16  and  C_13 
ROOT
ATOM      1  N   UNL d   1     -51.766  25.724  33.618  0.00  0.00    -0.226 N 
ATOM      2  N   UNL d   1     -50.582  26.837  33.930  0.00  0.00    -0.300 N 
ATOM      3  C   UNL d   1     -51.115  25.507  34.096  0.00  0.00     0.111 A 
ATOM      4  C   UNL d   1     -51.821  26.479  33.306  0.00  0.00     0.111 A 
ATOM      5  C   UNL d   1     -51.227  27.037  33.462  0.00  0.00     0.100 A 
ATOM      6  C   UNL d   1     -50.534  26.083  34.238  0.00  0.00     0.100 A 
ENDROOT
BRANCH   1   7
ATOM      7  S   UNL d   1     -52.357  25.169  33.463  0.00  0.00     0.274 S 
ATOM      8  O   UNL d   1     -52.941  25.787  33.477  0.00  0.00    -0.200 OA
ATOM      9  O   UNL d   1     -52.951  24.611  33.306  0.00  0.00    -0.200 OA
BRANCH   7  10
ATOM     10  C   UNL d   1     -51.787  24.566  33.449  0.00  0.00     0.131 A 
ATOM     11  C   UNL d   1     -52.010  23.788  33.566  0.00  0.00     0.152 A 
ATOM     12  F   UNL d   1     -52.812  23.591  33.700  0.00  0.00    -0.203 F 
ATOM     13  C   UNL d   1     -51.443  23.189  33.552  0.00  0.00     0.030 A 
ATOM     14  C   UNL d   1     -50.650  23.364  33.422  0.00  0.00     0.002 A 
ATOM     15  C   UNL d   1     -50.436  24.147  33.306  0.00  0.00     0.001 A 
ATOM     16  C   UNL d   1     -51.003  24.746  33.319  0.00  0.00     0.015 A 
ENDBRANCH   7  10
ENDBRANCH   1   7
BRANCH   2  17
ATOM     17  C   UNL d   1     -50.007  27.406  34.071  0.00  0.00     0.086 A 
ATOM     18  C   UNL d   1     -49.695  27.471  34.849  0.00  0.00     0.110 A 
ATOM     19  C   UNL d   1     -49.117  28.045  34.986  0.00  0.00     0.026 A 
ATOM     20  C   UNL d   1     -48.846  28.537  34.403  0.00  0.00     0.002 A 
ATOM     21  C   UNL d   1     -49.151  28.471  33.650  0.00  0.00     0.002 A 
ATOM     22  C   UNL d   1     -49.729  27.907  33.485  0.00  0.00     0.019 A 
BRANCH  18  23
ATOM     23  O   UNL d   1     -49.973  26.963  35.458  0.00  0.00    -0.327 OA
ATOM     24  C   UNL d   1     -50.164  27.282  36.184  0.00  0.00     0.181 C 
ENDBRANCH  18  23
ENDBRANCH   2  17
TORSDOF 4
ENDMDL
