MODEL 1
REMARK VINA RESULT:      40.0      0.000      0.000
REMARK  4 active torsions:
REMARK  status: ('A' for Active; 'I' for Inactive)
REMARK    1  A    between atoms: S_11  and  C_2 
REMARK    2  A    between atoms: C_7  and  C_3 
REMARK    3  A    between atoms: C_17  and  S_11 
REMARK    4  A    between atoms: C_13  and  C_17 
ROOT
ATOM      1  C   UNL d   1     -56.870 -98.762 -44.358  0.00  0.00     0.092 A 
ATOM      2  C   UNL d   1     -56.256 -98.764 -43.826  0.00  0.00     0.124 A 
ATOM      3  C   UNL d   1     -57.657 -98.764 -44.083  0.00  0.00     0.017 A 
ATOM      4  N   UNL d   1     -56.418 -98.767 -43.008  0.00  0.00    -0.201 NA
ATOM      5  C   UNL d   1     -57.198 -98.769 -42.740  0.00  0.00     0.280 A 
ATOM      6  C   UNL d   1     -56.711 -98.759 -45.173  0.00  0.00     0.103 C 
ATOM      7  N   UNL d   1     -56.545 -98.756 -45.987  0.00  0.00    -0.191 NA
ATOM      8  C   UNL d   1     -57.812 -98.767 -43.272  0.00  0.00     0.063 A 
ATOM      9  O   UNL d   1     -57.357 -98.772 -41.926  0.00  0.00    -0.265 OA
ENDROOT
BRANCH   2  10
ATOM     10  S   UNL d   1     -55.472 -98.762 -44.098  0.00  0.00    -0.067 SA
BRANCH  10  11
ATOM     11  C   UNL d   1     -55.147 -99.445 -44.448  0.00  0.00     0.037 C 
BRANCH  11  12
ATOM     12  C   UNL d   1     -55.169-100.283 -44.069  0.00  0.00     0.007 C 
ATOM     13  C   UNL d   1     -55.031-101.161 -44.544  0.00  0.00     0.001 C 
ENDBRANCH  11  12
ENDBRANCH  10  11
ENDBRANCH   2  10
BRANCH   3  14
ATOM     14  C   UNL d   1     -58.278 -98.763 -44.621  0.00  0.00     0.011 A 
ATOM     15  C   UNL d   1     -59.044 -98.761 -44.354  0.00  0.00     0.058 A 
ATOM     16 CL   UNL d   1     -59.402 -98.760 -43.419  0.00  0.00    -0.082 Cl
ATOM     17  C   UNL d   1     -59.666 -98.760 -44.915  0.00  0.00     0.011 A 
ATOM     18  C   UNL d   1     -59.500 -98.760 -45.723  0.00  0.00     0.001 A 
ATOM     19  C   UNL d   1     -58.729 -98.762 -45.972  0.00  0.00     0.000 A 
ATOM     20  C   UNL d   1     -58.107 -98.763 -45.417  0.00  0.00     0.001 A 
ENDBRANCH   3  14
TORSDOF 4
ENDMDL
MODEL 2
REMARK VINA RESULT:      42.0      1.711      3.276
REMARK  4 active torsions:
REMARK  status: ('A' for Active; 'I' for Inactive)
REMARK    1  A    between atoms: S_11  and  C_2 
REMARK    2  A    between atoms: C_7  and  C_3 
REMARK    3  A    between atoms: C_17  and  S_11 
REMARK    4  A    between atoms: C_13  and  C_17 
ROOT
ATOM      1  C   UNL d   1     -58.455 -98.906 -45.107  0.00  0.00     0.092 A 
ATOM      2  C   UNL d   1     -59.259 -98.823 -45.033  0.00  0.00     0.124 A 
ATOM      3  C   UNL d   1     -57.981 -98.974 -44.424  0.00  0.00     0.017 A 
ATOM      4  N   UNL d   1     -59.605 -98.806 -44.274  0.00  0.00    -0.201 NA
ATOM      5  C   UNL d   1     -59.132 -98.873 -43.601  0.00  0.00     0.280 A 
ATOM      6  C   UNL d   1     -58.108 -98.924 -45.860  0.00  0.00     0.103 C 
ATOM      7  N   UNL d   1     -57.767 -98.940 -46.618  0.00  0.00    -0.191 NA
ATOM      8  C   UNL d   1     -58.328 -98.957 -43.675  0.00  0.00     0.063 A 
ATOM      9  O   UNL d   1     -59.479 -98.856 -42.848  0.00  0.00    -0.265 OA
ENDROOT
BRANCH   2  10
ATOM     10  S   UNL d   1     -59.732 -98.755 -45.711  0.00  0.00    -0.067 SA
BRANCH  10  11
ATOM     11  C   UNL d   1     -59.959 -99.436 -46.135  0.00  0.00     0.037 C 
BRANCH  11  12
ATOM     12  C   UNL d   1     -59.839 -99.545 -47.041  0.00  0.00     0.007 C 
ATOM     13  C   UNL d   1     -59.956 -98.840 -47.752  0.00  0.00     0.001 C 
ENDBRANCH  11  12
ENDBRANCH  10  11
ENDBRANCH   2  10
BRANCH   3  14
ATOM     14  C   UNL d   1     -57.167 -99.059 -44.499  0.00  0.00     0.011 A 
ATOM     15  C   UNL d   1     -56.745 -99.439 -43.919  0.00  0.00     0.058 A 
ATOM     16 CL   UNL d   1     -57.054 -99.857 -43.063  0.00  0.00    -0.082 Cl
ATOM     17  C   UNL d   1     -55.916 -99.517 -44.009  0.00  0.00     0.011 A 
ATOM     18  C   UNL d   1     -55.538 -99.213 -44.676  0.00  0.00     0.001 A 
ATOM     19  C   UNL d   1     -55.974 -98.836 -45.245  0.00  0.00     0.000 A 
ATOM     20  C   UNL d   1     -56.799 -98.756 -45.159  0.00  0.00     0.001 A 
ENDBRANCH   3  14
TORSDOF 4
ENDMDL
MODEL 3
REMARK VINA RESULT:      42.5      1.979      4.019
REMARK  4 active torsions:
REMARK  status: ('A' for Active; 'I' for Inactive)
REMARK    1  A    between atoms: S_11  and  C_2 
REMARK    2  A    between atoms: C_7  and  C_3 
REMARK    3  A    between atoms: C_17  and  S_11 
REMARK    4  A    between atoms: C_13  and  C_17 
ROOT
ATOM      1  C   UNL d   1     -56.159 -99.802 -44.270  0.00  0.00     0.092 A 
ATOM      2  C   UNL d   1     -56.399 -99.114 -44.630  0.00  0.00     0.124 A 
ATOM      3  C   UNL d   1     -55.434-100.152 -44.488  0.00  0.00     0.017 A 
ATOM      4  N   UNL d   1     -55.918 -98.763 -45.214  0.00  0.00    -0.201 NA
ATOM      5  C   UNL d   1     -55.202 -99.113 -45.426  0.00  0.00     0.280 A 
ATOM      6  C   UNL d   1     -56.636-100.153 -43.689  0.00  0.00     0.103 C 
ATOM      7  N   UNL d   1     -57.118-100.499 -43.107  0.00  0.00    -0.191 NA
ATOM      8  C   UNL d   1     -54.962 -99.801 -45.067  0.00  0.00     0.063 A 
ATOM      9  O   UNL d   1     -54.725 -98.762 -46.008  0.00  0.00    -0.265 OA
ENDROOT
BRANCH   2  10
ATOM     10  S   UNL d   1     -57.120 -98.764 -44.415  0.00  0.00    -0.067 SA
BRANCH  10  11
ATOM     11  C   UNL d   1     -57.831 -99.197 -44.469  0.00  0.00     0.037 C 
BRANCH  11  12
ATOM     12  C   UNL d   1     -58.655 -98.871 -44.225  0.00  0.00     0.007 C 
ATOM     13  C   UNL d   1     -59.553 -99.256 -44.478  0.00  0.00     0.001 C 
ENDBRANCH  11  12
ENDBRANCH  10  11
ENDBRANCH   2  10
BRANCH   3  14
ATOM     14  C   UNL d   1     -55.192-100.848 -44.125  0.00  0.00     0.011 A 
ATOM     15  C   UNL d   1     -54.966-101.483 -44.577  0.00  0.00     0.058 A 
ATOM     16 CL   UNL d   1     -54.923-101.584 -45.572  0.00  0.00    -0.082 Cl
ATOM     17  C   UNL d   1     -54.721-102.185 -44.192  0.00  0.00     0.011 A 
ATOM     18  C   UNL d   1     -54.711-102.228 -43.369  0.00  0.00     0.001 A 
ATOM     19  C   UNL d   1     -54.940-101.585 -42.933  0.00  0.00     0.000 A 
ATOM     20  C   UNL d   1     -55.184-100.885 -43.311  0.00  0.00     0.001 A 
ENDBRANCH   3  14
TORSDOF 4
ENDMDL
