MODEL 1
REMARK VINA RESULT:      12.4      0.000      0.000
REMARK  3 active torsions:
REMARK  status: ('A' for Active; 'I' for Inactive)
REMARK    1  A    between atoms: C_17  and  N_4 
REMARK    2  A    between atoms: C_11  and  C_5 
REMARK       I    between atoms: N_13  and  C_11 
REMARK    3  A    between atoms: C_21  and  N_13 
ROOT
ATOM      1  C   UNL d   1     -41.455-121.652 -51.570  0.00  0.00     0.155 A 
ATOM      2  C   UNL d   1     -41.574-122.406 -51.877  0.00  0.00     0.091 A 
ATOM      3  N   UNL d   1     -41.366-121.559 -50.752  0.00  0.00    -0.210 NA
ATOM      4  N   UNL d   1     -41.426-121.014 -52.064  0.00  0.00    -0.275 N 
ATOM      5  C   UNL d   1     -41.632-121.855 -53.184  0.00  0.00     0.094 A 
ATOM      6  C   UNL d   1     -41.514-121.106 -52.878  0.00  0.00     0.175 A 
ATOM      7  N   UNL d   1     -41.516-122.966 -50.557  0.00  0.00    -0.258 N 
ATOM      8  C   UNL d   1     -41.395-122.202 -50.245  0.00  0.00     0.152 A 
ATOM      9  C   UNL d   1     -41.606-123.072 -51.370  0.00  0.00     0.269 A 
ATOM     10  C   UNL d   1     -41.664-122.510 -52.690  0.00  0.00     0.016 A 
ATOM     11  C   UNL d   1     -41.307-122.102 -49.443  0.00  0.00     0.035 A 
ATOM     12  N   UNL d   1     -41.484-120.453 -53.382  0.00  0.00    -0.128 N 
ATOM     13  C   UNL d   1     -41.546-123.616 -50.061  0.00  0.00     0.084 A 
ATOM     14  O   UNL d   1     -41.725-123.817 -51.686  0.00  0.00    -0.266 OA
ATOM     15  C   UNL d   1     -41.457-123.510 -49.247  0.00  0.00     0.019 A 
ATOM     16  C   UNL d   1     -41.336-122.746 -48.935  0.00  0.00     0.005 A 
ATOM     17  C   UNL d   1     -41.188-121.347 -49.135  0.00  0.00     0.003 C 
ENDROOT
BRANCH   5  18
ATOM     18  C   UNL d   1     -41.721-121.956 -53.995  0.00  0.00     0.282 C 
ATOM     19  N   UNL d   1     -42.400-121.680 -54.383  0.00  0.00    -0.208 NA
ATOM     20  O   UNL d   1     -41.123-122.340 -54.436  0.00  0.00    -0.265 OA
BRANCH  19  21
ATOM     21  C   UNL d   1     -42.481-121.786 -55.197  0.00  0.00     0.085 A 
ATOM     22  C   UNL d   1     -43.121-122.138 -55.567  0.00  0.00     0.019 A 
ATOM     23  C   UNL d   1     -42.966-122.126 -56.383  0.00  0.00     0.002 A 
ATOM     24  C   UNL d   1     -42.232-121.767 -56.502  0.00  0.00     0.002 A 
ATOM     25  C   UNL d   1     -41.933-121.558 -55.774  0.00  0.00     0.019 A 
ENDBRANCH  19  21
ENDBRANCH   5  18
BRANCH   4  26
ATOM     26  C   UNL d   1     -41.306-120.258 -51.756  0.00  0.00     0.067 A 
ATOM     27  C   UNL d   1     -41.235-119.565 -52.200  0.00  0.00     0.018 A 
ATOM     28  C   UNL d   1     -41.123-118.946 -51.673  0.00  0.00     0.002 A 
ATOM     29  C   UNL d   1     -41.123-119.247 -50.895  0.00  0.00     0.002 A 
ATOM     30  C   UNL d   1     -41.237-120.061 -50.956  0.00  0.00     0.018 A 
ENDBRANCH   4  26
TORSDOF 3
ENDMDL
MODEL 2
REMARK VINA RESULT:      13.6      2.149      2.948
REMARK  3 active torsions:
REMARK  status: ('A' for Active; 'I' for Inactive)
REMARK    1  A    between atoms: C_17  and  N_4 
REMARK    2  A    between atoms: C_11  and  C_5 
REMARK       I    between atoms: N_13  and  C_11 
REMARK    3  A    between atoms: C_21  and  N_13 
ROOT
ATOM      1  C   UNL d   1     -42.956-122.719 -49.740  0.00  0.00     0.155 A 
ATOM      2  C   UNL d   1     -42.224-123.084 -49.832  0.00  0.00     0.091 A 
ATOM      3  N   UNL d   1     -43.320-122.723 -48.997  0.00  0.00    -0.210 NA
ATOM      4  N   UNL d   1     -43.311-122.362 -50.372  0.00  0.00    -0.275 N 
ATOM      5  C   UNL d   1     -42.222-122.719 -51.203  0.00  0.00     0.094 A 
ATOM      6  C   UNL d   1     -42.950-122.357 -51.112  0.00  0.00     0.175 A 
ATOM      7  N   UNL d   1     -42.223-123.454 -48.445  0.00  0.00    -0.258 N 
ATOM      8  C   UNL d   1     -42.965-123.084 -48.352  0.00  0.00     0.152 A 
ATOM      9  C   UNL d   1     -41.851-123.456 -49.180  0.00  0.00     0.269 A 
ATOM     10  C   UNL d   1     -41.853-123.085 -50.568  0.00  0.00     0.016 A 
ATOM     11  C   UNL d   1     -43.329-123.084 -47.625  0.00  0.00     0.035 A 
ATOM     12  N   UNL d   1     -43.314-121.991 -51.757  0.00  0.00    -0.128 N 
ATOM     13  C   UNL d   1     -41.860-123.817 -47.808  0.00  0.00     0.084 A 
ATOM     14  O   UNL d   1     -41.123-123.816 -49.282  0.00  0.00    -0.266 OA
ATOM     15  C   UNL d   1     -42.232-123.815 -47.072  0.00  0.00     0.019 A 
ATOM     16  C   UNL d   1     -42.974-123.445 -46.979  0.00  0.00     0.005 A 
ATOM     17  C   UNL d   1     -44.062-122.718 -47.533  0.00  0.00     0.003 C 
ENDROOT
BRANCH   5  18
ATOM     18  C   UNL d   1     -41.854-122.719 -51.939  0.00  0.00     0.282 C 
ATOM     19  N   UNL d   1     -42.162-123.168 -52.564  0.00  0.00    -0.208 NA
ATOM     20  O   UNL d   1     -41.164-122.263 -52.059  0.00  0.00    -0.265 OA
BRANCH  19  21
ATOM     21  C   UNL d   1     -41.785-123.162 -53.298  0.00  0.00     0.085 A 
ATOM     22  C   UNL d   1     -41.440-123.812 -53.659  0.00  0.00     0.019 A 
ATOM     23  C   UNL d   1     -41.131-123.550 -54.384  0.00  0.00     0.002 A 
ATOM     24  C   UNL d   1     -41.291-122.743 -54.458  0.00  0.00     0.002 A 
ATOM     25  C   UNL d   1     -41.692-122.504 -53.792  0.00  0.00     0.019 A 
ENDBRANCH  19  21
ENDBRANCH   5  18
BRANCH   4  26
ATOM     26  C   UNL d   1     -44.045-121.996 -50.281  0.00  0.00     0.067 A 
ATOM     27  C   UNL d   1     -44.777-122.346 -50.432  0.00  0.00     0.018 A 
ATOM     28  C   UNL d   1     -45.355-121.788 -50.269  0.00  0.00     0.002 A 
ATOM     29  C   UNL d   1     -44.990-121.083 -50.013  0.00  0.00     0.002 A 
ATOM     30  C   UNL d   1     -44.177-121.221 -50.024  0.00  0.00     0.018 A 
ENDBRANCH   4  26
TORSDOF 3
ENDMDL
