MODEL 1
REMARK VINA RESULT:      -7.5      0.000      0.000
REMARK  5 active torsions:
REMARK  status: ('A' for Active; 'I' for Inactive)
REMARK    1  A    between atoms: C_3  and  C_1 
REMARK    2  A    between atoms: C_9  and  N_2 
REMARK    3  A    between atoms: C_7  and  C_3 
REMARK    4  A    between atoms: C_8  and  C_3 
REMARK    5  A    between atoms: C_20  and  C_6 
ROOT
ATOM      1  C   UNL d   1     -49.449  13.402  22.869  0.00  0.00     0.103 A 
ATOM      2  N   UNL d   1     -48.635  13.532  22.834  0.00  0.00    -0.269 N 
ATOM      3  S   UNL d   1     -49.826  14.129  23.006  0.00  0.00    -0.064 SA
ATOM      4  C   UNL d   1     -48.503  14.338  22.948  0.00  0.00     0.271 A 
ATOM      5  C   UNL d   1     -49.233  14.710  23.054  0.00  0.00     0.087 A 
ATOM      6  O   UNL d   1     -47.764  14.717  22.956  0.00  0.00    -0.266 OA
ENDROOT
BRANCH   2   7
ATOM      7  C   UNL d   1     -47.824  13.397  22.759  0.00  0.00     0.068 A 
ATOM      8  C   UNL d   1     -47.384  13.197  23.425  0.00  0.00     0.020 A 
ATOM      9  C   UNL d   1     -46.574  13.063  23.351  0.00  0.00     0.031 A 
ATOM     10  C   UNL d   1     -46.219  13.129  22.611  0.00  0.00     0.140 A 
ATOM     11  C   UNL d   1     -46.664  13.328  21.951  0.00  0.00     0.031 A 
ATOM     12  F   UNL d   1     -45.402  12.993  22.536  0.00  0.00    -0.204 F 
ATOM     13  C   UNL d   1     -47.473  13.463  22.022  0.00  0.00     0.020 A 
ENDBRANCH   2   7
BRANCH   1  14
ATOM     14  C   UNL d   1     -49.836  12.673  22.784  0.00  0.00     0.103 C 
BRANCH  14  15
ATOM     15  C   UNL d   1     -50.276  12.528  22.099  0.00  0.00     0.300 C 
ATOM     16  O   UNL d   1     -49.944  12.103  21.468  0.00  0.00    -0.264 OA
ATOM     17  N   UNL d   1     -51.055  12.809  22.041  0.00  0.00    -0.102 N 
ENDBRANCH  14  15
BRANCH  14  18
ATOM     18  C   UNL d   1     -49.784  12.104  23.370  0.00  0.00     0.129 C 
ATOM     19  N   UNL d   1     -50.462  11.696  23.614  0.00  0.00    -0.146 N 
ENDBRANCH  14  18
ENDBRANCH   1  14
BRANCH   5  20
ATOM     20  C   UNL d   1     -49.355  15.515  23.186  0.00  0.00     0.011 C 
ATOM     21  C   UNL d   1     -50.039  15.768  23.580  0.00  0.00     0.001 C 
ENDBRANCH   5  20
TORSDOF 5
ENDMDL
MODEL 2
REMARK VINA RESULT:      -7.2      1.260      2.118
REMARK  5 active torsions:
REMARK  status: ('A' for Active; 'I' for Inactive)
REMARK    1  A    between atoms: C_3  and  C_1 
REMARK    2  A    between atoms: C_9  and  N_2 
REMARK    3  A    between atoms: C_7  and  C_3 
REMARK    4  A    between atoms: C_8  and  C_3 
REMARK    5  A    between atoms: C_20  and  C_6 
ROOT
ATOM      1  C   UNL d   1     -49.218  13.681  22.998  0.00  0.00     0.103 A 
ATOM      2  N   UNL d   1     -48.434  13.439  22.909  0.00  0.00    -0.269 N 
ATOM      3  S   UNL d   1     -49.662  13.039  23.279  0.00  0.00    -0.064 SA
ATOM      4  C   UNL d   1     -48.388  12.647  23.135  0.00  0.00     0.271 A 
ATOM      5  C   UNL d   1     -49.141  12.395  23.364  0.00  0.00     0.087 A 
ATOM      6  O   UNL d   1     -47.703  12.177  23.134  0.00  0.00    -0.266 OA
ENDROOT
BRANCH   2   7
ATOM      7  C   UNL d   1     -47.626  13.451  22.739  0.00  0.00     0.068 A 
ATOM      8  C   UNL d   1     -47.095  13.680  23.325  0.00  0.00     0.020 A 
ATOM      9  C   UNL d   1     -46.288  13.692  23.156  0.00  0.00     0.031 A 
ATOM     10  C   UNL d   1     -46.027  13.476  22.406  0.00  0.00     0.140 A 
ATOM     11  C   UNL d   1     -46.563  13.249  21.827  0.00  0.00     0.031 A 
ATOM     12  F   UNL d   1     -45.213  13.489  22.236  0.00  0.00    -0.204 F 
ATOM     13  C   UNL d   1     -47.369  13.236  21.993  0.00  0.00     0.020 A 
ENDBRANCH   2   7
BRANCH   1  14
ATOM     14  C   UNL d   1     -49.522  14.435  22.836  0.00  0.00     0.103 C 
BRANCH  14  15
ATOM     15  C   UNL d   1     -50.010  14.541  22.177  0.00  0.00     0.300 C 
ATOM     16  O   UNL d   1     -49.698  14.835  21.465  0.00  0.00    -0.264 OA
ATOM     17  N   UNL d   1     -50.817  14.352  22.226  0.00  0.00    -0.102 N 
ENDBRANCH  14  15
BRANCH  14  18
ATOM     18  C   UNL d   1     -49.342  15.069  23.322  0.00  0.00     0.129 C 
ATOM     19  N   UNL d   1     -49.912  15.649  23.476  0.00  0.00    -0.146 N 
ENDBRANCH  14  18
ENDBRANCH   1  14
BRANCH   5  20
ATOM     20  C   UNL d   1     -49.343  11.641  23.629  0.00  0.00     0.011 C 
ATOM     21  C   UNL d   1     -50.142  11.430  23.698  0.00  0.00     0.001 C 
ENDBRANCH   5  20
TORSDOF 5
ENDMDL
MODEL 3
REMARK VINA RESULT:      -5.7      1.811      3.360
REMARK  5 active torsions:
REMARK  status: ('A' for Active; 'I' for Inactive)
REMARK    1  A    between atoms: C_3  and  C_1 
REMARK    2  A    between atoms: C_9  and  N_2 
REMARK    3  A    between atoms: C_7  and  C_3 
REMARK    4  A    between atoms: C_8  and  C_3 
REMARK    5  A    between atoms: C_20  and  C_6 
ROOT
ATOM      1  C   UNL d   1     -48.180  14.213  22.905  0.00  0.00     0.103 A 
ATOM      2  N   UNL d   1     -48.526  13.464  22.941  0.00  0.00    -0.269 N 
ATOM      3  S   UNL d   1     -47.355  14.125  22.938  0.00  0.00    -0.064 SA
ATOM      4  C   UNL d   1     -47.918  12.909  22.997  0.00  0.00     0.271 A 
ATOM      5  C   UNL d   1     -47.195  13.310  22.995  0.00  0.00     0.087 A 
ATOM      6  O   UNL d   1     -48.011  12.085  23.046  0.00  0.00    -0.266 OA
ENDROOT
BRANCH   2   7
ATOM      7  C   UNL d   1     -49.093  12.865  22.960  0.00  0.00     0.068 A 
ATOM      8  C   UNL d   1     -49.360  12.539  22.253  0.00  0.00     0.020 A 
ATOM      9  C   UNL d   1     -49.927  11.941  22.272  0.00  0.00     0.031 A 
ATOM     10  C   UNL d   1     -50.215  11.678  22.997  0.00  0.00     0.140 A 
ATOM     11  C   UNL d   1     -49.944  12.008  23.698  0.00  0.00     0.031 A 
ATOM     12  F   UNL d   1     -50.787  11.075  23.015  0.00  0.00    -0.204 F 
ATOM     13  C   UNL d   1     -49.378  12.606  23.682  0.00  0.00     0.020 A 
ENDBRANCH   2   7
BRANCH   1  14
ATOM     14  C   UNL d   1     -48.579  14.937  22.845  0.00  0.00     0.103 C 
BRANCH  14  15
ATOM     15  C   UNL d   1     -48.427  15.430  22.199  0.00  0.00     0.300 C 
ATOM     16  O   UNL d   1     -47.751  15.913  22.188  0.00  0.00    -0.264 OA
ATOM     17  N   UNL d   1     -48.952  15.443  21.556  0.00  0.00    -0.102 N 
ENDBRANCH  14  15
BRANCH  14  18
ATOM     18  C   UNL d   1     -49.118  15.163  23.419  0.00  0.00     0.129 C 
ATOM     19  N   UNL d   1     -49.533  15.876  23.342  0.00  0.00    -0.146 N 
ENDBRANCH  14  18
ENDBRANCH   1  14
BRANCH   5  20
ATOM     20  C   UNL d   1     -46.448  12.966  23.042  0.00  0.00     0.011 C 
ATOM     21  C   UNL d   1     -45.817  13.293  22.613  0.00  0.00     0.001 C 
ENDBRANCH   5  20
TORSDOF 5
ENDMDL
MODEL 4
REMARK VINA RESULT:      -5.6      1.947      3.258
REMARK  5 active torsions:
REMARK  status: ('A' for Active; 'I' for Inactive)
REMARK    1  A    between atoms: C_3  and  C_1 
REMARK    2  A    between atoms: C_9  and  N_2 
REMARK    3  A    between atoms: C_7  and  C_3 
REMARK    4  A    between atoms: C_8  and  C_3 
REMARK    5  A    between atoms: C_20  and  C_6 
ROOT
ATOM      1  C   UNL d   1     -47.332  13.328  22.955  0.00  0.00     0.103 A 
ATOM      2  N   UNL d   1     -48.131  13.123  22.955  0.00  0.00    -0.269 N 
ATOM      3  S   UNL d   1     -47.271  14.155  22.909  0.00  0.00    -0.064 SA
ATOM      4  C   UNL d   1     -48.570  13.821  22.910  0.00  0.00     0.271 A 
ATOM      5  C   UNL d   1     -48.045  14.459  22.882  0.00  0.00     0.087 A 
ATOM      6  O   UNL d   1     -49.398  13.879  22.895  0.00  0.00    -0.266 OA
ENDROOT
BRANCH   2   7
ATOM      7  C   UNL d   1     -48.823  12.674  22.970  0.00  0.00     0.068 A 
ATOM      8  C   UNL d   1     -49.129  12.379  22.265  0.00  0.00     0.020 A 
ATOM      9  C   UNL d   1     -49.820  11.930  22.280  0.00  0.00     0.031 A 
ATOM     10  C   UNL d   1     -50.194  11.784  22.999  0.00  0.00     0.140 A 
ATOM     11  C   UNL d   1     -49.883  12.082  23.698  0.00  0.00     0.031 A 
ATOM     12  F   UNL d   1     -50.891  11.332  23.013  0.00  0.00    -0.204 F 
ATOM     13  C   UNL d   1     -49.193  12.530  23.686  0.00  0.00     0.020 A 
ENDBRANCH   2   7
BRANCH   1  14
ATOM     14  C   UNL d   1     -46.689  12.805  22.993  0.00  0.00     0.103 C 
BRANCH  14  15
ATOM     15  C   UNL d   1     -46.042  12.924  22.493  0.00  0.00     0.300 C 
ATOM     16  O   UNL d   1     -45.387  13.365  22.751  0.00  0.00    -0.264 OA
ATOM     17  N   UNL d   1     -46.045  12.602  21.728  0.00  0.00    -0.102 N 
ENDBRANCH  14  15
BRANCH  14  18
ATOM     18  C   UNL d   1     -46.696  12.177  23.519  0.00  0.00     0.129 C 
ATOM     19  N   UNL d   1     -46.008  11.733  23.642  0.00  0.00    -0.146 N 
ENDBRANCH  14  18
ENDBRANCH   1  14
BRANCH   5  20
ATOM     20  C   UNL d   1     -48.250  15.256  22.834  0.00  0.00     0.011 C 
ATOM     21  C   UNL d   1     -48.045  15.694  22.160  0.00  0.00     0.001 C 
ENDBRANCH   5  20
TORSDOF 5
ENDMDL
MODEL 5
REMARK VINA RESULT:      -5.6      9.070     10.261
REMARK  5 active torsions:
REMARK  status: ('A' for Active; 'I' for Inactive)
REMARK    1  A    between atoms: C_3  and  C_1 
REMARK    2  A    between atoms: C_9  and  N_2 
REMARK    3  A    between atoms: C_7  and  C_3 
REMARK    4  A    between atoms: C_8  and  C_3 
REMARK    5  A    between atoms: C_20  and  C_6 
ROOT
ATOM      1  C   UNL d   1     -39.861  14.722  17.571  0.00  0.00     0.103 A 
ATOM      2  N   UNL d   1     -40.088  15.010  18.310  0.00  0.00    -0.269 N 
ATOM      3  S   UNL d   1     -40.379  15.025  16.998  0.00  0.00    -0.064 SA
ATOM      4  C   UNL d   1     -40.748  15.494  18.199  0.00  0.00     0.271 A 
ATOM      5  C   UNL d   1     -40.932  15.506  17.393  0.00  0.00     0.087 A 
ATOM      6  O   UNL d   1     -41.162  15.901  18.793  0.00  0.00    -0.266 OA
ENDROOT
BRANCH   2   7
ATOM      7  C   UNL d   1     -40.105  15.151  19.122  0.00  0.00     0.068 A 
ATOM      8  C   UNL d   1     -39.675  15.781  19.432  0.00  0.00     0.020 A 
ATOM      9  C   UNL d   1     -39.692  15.922  20.244  0.00  0.00     0.031 A 
ATOM     10  C   UNL d   1     -40.138  15.431  20.732  0.00  0.00     0.140 A 
ATOM     11  C   UNL d   1     -40.564  14.805  20.416  0.00  0.00     0.031 A 
ATOM     12  F   UNL d   1     -40.155  15.574  21.551  0.00  0.00    -0.204 F 
ATOM     13  C   UNL d   1     -40.549  14.662  19.605  0.00  0.00     0.020 A 
ENDBRANCH   2   7
BRANCH   1  14
ATOM     14  C   UNL d   1     -39.224  14.214  17.415  0.00  0.00     0.103 C 
BRANCH  14  15
ATOM     15  C   UNL d   1     -38.576  14.499  16.988  0.00  0.00     0.300 C 
ATOM     16  O   UNL d   1     -37.957  14.893  17.377  0.00  0.00    -0.264 OA
ATOM     17  N   UNL d   1     -38.543  14.391  16.166  0.00  0.00    -0.102 N 
ENDBRANCH  14  15
BRANCH  14  18
ATOM     18  C   UNL d   1     -39.236  13.439  17.680  0.00  0.00     0.129 C 
ATOM     19  N   UNL d   1     -38.667  12.900  17.412  0.00  0.00    -0.146 N 
ENDBRANCH  14  18
ENDBRANCH   1  14
BRANCH   5  20
ATOM     20  C   UNL d   1     -41.551  15.921  17.042  0.00  0.00     0.011 C 
ATOM     21  C   UNL d   1     -41.731  15.791  16.242  0.00  0.00     0.001 C 
ENDBRANCH   5  20
TORSDOF 5
ENDMDL
MODEL 6
REMARK VINA RESULT:      -5.6      2.069      3.727
REMARK  5 active torsions:
REMARK  status: ('A' for Active; 'I' for Inactive)
REMARK    1  A    between atoms: C_3  and  C_1 
REMARK    2  A    between atoms: C_9  and  N_2 
REMARK    3  A    between atoms: C_7  and  C_3 
REMARK    4  A    between atoms: C_8  and  C_3 
REMARK    5  A    between atoms: C_20  and  C_6 
ROOT
ATOM      1  C   UNL d   1     -47.520  13.200  22.929  0.00  0.00     0.103 A 
ATOM      2  N   UNL d   1     -48.298  13.448  22.809  0.00  0.00    -0.269 N 
ATOM      3  S   UNL d   1     -47.532  12.418  23.206  0.00  0.00    -0.064 SA
ATOM      4  C   UNL d   1     -48.796  12.822  23.010  0.00  0.00     0.271 A 
ATOM      5  C   UNL d   1     -48.329  12.185  23.256  0.00  0.00     0.087 A 
ATOM      6  O   UNL d   1     -49.625  12.824  22.974  0.00  0.00    -0.266 OA
ENDROOT
BRANCH   2   7
ATOM      7  C   UNL d   1     -48.948  13.919  22.614  0.00  0.00     0.068 A 
ATOM      8  C   UNL d   1     -49.241  13.904  21.846  0.00  0.00     0.020 A 
ATOM      9  C   UNL d   1     -49.890  14.374  21.651  0.00  0.00     0.031 A 
ATOM     10  C   UNL d   1     -50.234  14.850  22.228  0.00  0.00     0.140 A 
ATOM     11  C   UNL d   1     -49.935  14.859  22.993  0.00  0.00     0.031 A 
ATOM     12  F   UNL d   1     -50.888  15.323  22.031  0.00  0.00    -0.204 F 
ATOM     13  C   UNL d   1     -49.288  14.391  23.190  0.00  0.00     0.020 A 
ENDBRANCH   2   7
BRANCH   1  14
ATOM     14  C   UNL d   1     -46.835  13.649  22.799  0.00  0.00     0.103 C 
BRANCH  14  15
ATOM     15  C   UNL d   1     -46.155  13.273  22.516  0.00  0.00     0.300 C 
ATOM     16  O   UNL d   1     -45.577  12.995  23.045  0.00  0.00    -0.264 OA
ATOM     17  N   UNL d   1     -46.047  13.172  21.699  0.00  0.00    -0.102 N 
ENDBRANCH  14  15
BRANCH  14  18
ATOM     18  C   UNL d   1     -46.831  14.454  22.947  0.00  0.00     0.129 C 
ATOM     19  N   UNL d   1     -46.132  14.890  22.853  0.00  0.00    -0.146 N 
ENDBRANCH  14  18
ENDBRANCH   1  14
BRANCH   5  20
ATOM     20  C   UNL d   1     -48.603  11.449  23.506  0.00  0.00     0.011 C 
ATOM     21  C   UNL d   1     -48.060  10.852  23.698  0.00  0.00     0.001 C 
ENDBRANCH   5  20
TORSDOF 5
ENDMDL
MODEL 7
REMARK VINA RESULT:      -5.0      9.101     10.340
REMARK  5 active torsions:
REMARK  status: ('A' for Active; 'I' for Inactive)
REMARK    1  A    between atoms: C_3  and  C_1 
REMARK    2  A    between atoms: C_9  and  N_2 
REMARK    3  A    between atoms: C_7  and  C_3 
REMARK    4  A    between atoms: C_8  and  C_3 
REMARK    5  A    between atoms: C_20  and  C_6 
ROOT
ATOM      1  C   UNL d   1     -39.570  14.662  18.103  0.00  0.00     0.103 A 
ATOM      2  N   UNL d   1     -39.561  14.744  18.924  0.00  0.00    -0.269 N 
ATOM      3  S   UNL d   1     -39.126  13.992  17.900  0.00  0.00    -0.064 SA
ATOM      4  C   UNL d   1     -39.110  14.126  19.234  0.00  0.00     0.271 A 
ATOM      5  C   UNL d   1     -38.840  13.660  18.607  0.00  0.00     0.087 A 
ATOM      6  O   UNL d   1     -38.952  13.991  20.038  0.00  0.00    -0.266 OA
ENDROOT
BRANCH   2   7
ATOM      7  C   UNL d   1     -39.702  15.039  19.682  0.00  0.00     0.068 A 
ATOM      8  C   UNL d   1     -40.324  14.731  20.125  0.00  0.00     0.020 A 
ATOM      9  C   UNL d   1     -40.465  15.025  20.882  0.00  0.00     0.031 A 
ATOM     10  C   UNL d   1     -39.983  15.620  21.183  0.00  0.00     0.140 A 
ATOM     11  C   UNL d   1     -39.365  15.922  20.735  0.00  0.00     0.031 A 
ATOM     12  F   UNL d   1     -40.126  15.916  21.947  0.00  0.00    -0.204 F 
ATOM     13  C   UNL d   1     -39.221  15.631  19.979  0.00  0.00     0.020 A 
ENDBRANCH   2   7
BRANCH   1  14
ATOM     14  C   UNL d   1     -39.956  15.159  17.562  0.00  0.00     0.103 C 
BRANCH  14  15
ATOM     15  C   UNL d   1     -40.731  14.982  17.334  0.00  0.00     0.300 C 
ATOM     16  O   UNL d   1     -40.937  14.209  17.108  0.00  0.00    -0.264 OA
ATOM     17  N   UNL d   1     -41.307  15.579  17.328  0.00  0.00    -0.102 N 
ENDBRANCH  14  15
BRANCH  14  18
ATOM     18  C   UNL d   1     -39.576  15.818  17.259  0.00  0.00     0.129 C 
ATOM     19  N   UNL d   1     -39.518  15.922  16.439  0.00  0.00    -0.146 N 
ENDBRANCH  14  18
ENDBRANCH   1  14
BRANCH   5  20
ATOM     20  C   UNL d   1     -38.371  12.985  18.670  0.00  0.00     0.011 C 
ATOM     21  C   UNL d   1     -38.140  12.579  17.985  0.00  0.00     0.001 C 
ENDBRANCH   5  20
TORSDOF 5
ENDMDL
MODEL 8
REMARK VINA RESULT:      -5.0      1.626      2.664
REMARK  5 active torsions:
REMARK  status: ('A' for Active; 'I' for Inactive)
REMARK    1  A    between atoms: C_3  and  C_1 
REMARK    2  A    between atoms: C_9  and  N_2 
REMARK    3  A    between atoms: C_7  and  C_3 
REMARK    4  A    between atoms: C_8  and  C_3 
REMARK    5  A    between atoms: C_20  and  C_6 
ROOT
ATOM      1  C   UNL d   1     -48.374  12.071  22.844  0.00  0.00     0.103 A 
ATOM      2  N   UNL d   1     -47.913  12.754  22.822  0.00  0.00    -0.269 N 
ATOM      3  S   UNL d   1     -47.924  11.457  23.173  0.00  0.00    -0.064 SA
ATOM      4  C   UNL d   1     -47.173  12.568  23.139  0.00  0.00     0.271 A 
ATOM      5  C   UNL d   1     -47.175  11.771  23.356  0.00  0.00     0.087 A 
ATOM      6  O   UNL d   1     -46.533  13.089  23.226  0.00  0.00    -0.266 OA
ENDROOT
BRANCH   2   7
ATOM      7  C   UNL d   1     -47.676  13.534  22.694  0.00  0.00     0.068 A 
ATOM      8  C   UNL d   1     -47.182  13.707  22.058  0.00  0.00     0.020 A 
ATOM      9  C   UNL d   1     -46.945  14.486  21.929  0.00  0.00     0.031 A 
ATOM     10  C   UNL d   1     -47.205  15.078  22.438  0.00  0.00     0.140 A 
ATOM     11  C   UNL d   1     -47.698  14.898  23.070  0.00  0.00     0.031 A 
ATOM     12  F   UNL d   1     -46.966  15.864  22.308  0.00  0.00    -0.204 F 
ATOM     13  C   UNL d   1     -47.936  14.122  23.201  0.00  0.00     0.020 A 
ENDBRANCH   2   7
BRANCH   1  14
ATOM     14  C   UNL d   1     -49.158  11.998  22.582  0.00  0.00     0.103 C 
BRANCH  14  15
ATOM     15  C   UNL d   1     -49.755  11.846  23.134  0.00  0.00     0.300 C 
ATOM     16  O   UNL d   1     -49.840  11.088  23.463  0.00  0.00    -0.264 OA
ATOM     17  N   UNL d   1     -50.273  12.453  23.361  0.00  0.00    -0.102 N 
ENDBRANCH  14  15
BRANCH  14  18
ATOM     18  C   UNL d   1     -49.340  12.076  21.787  0.00  0.00     0.129 C 
ATOM     19  N   UNL d   1     -50.129  12.159  21.548  0.00  0.00    -0.146 N 
ENDBRANCH  14  18
ENDBRANCH   1  14
BRANCH   5  20
ATOM     20  C   UNL d   1     -46.547  11.358  23.695  0.00  0.00     0.011 C 
ATOM     21  C   UNL d   1     -46.353  10.602  23.414  0.00  0.00     0.001 C 
ENDBRANCH   5  20
TORSDOF 5
ENDMDL
