MODEL 1
REMARK VINA RESULT:      -5.9      0.000      0.000
REMARK  5 active torsions:
REMARK  status: ('A' for Active; 'I' for Inactive)
REMARK    1  A    between atoms: C_2  and  C_1 
REMARK    2  A    between atoms: C_3  and  C_1 
REMARK    3  A    between atoms: C_4  and  C_2 
REMARK    4  A    between atoms: C_6  and  C_3 
REMARK    5  A    between atoms: P_5  and  C_4 
ROOT
ATOM      1  C   UNL d   1     -41.870-122.317 -54.130  0.00  0.00     0.389 C 
ATOM      2  F   UNL d   1     -41.185-122.690 -54.385  0.00  0.00    -0.191 F 
ATOM      3  F   UNL d   1     -42.571-121.935 -53.865  0.00  0.00    -0.191 F 
ENDROOT
BRANCH   1   4
ATOM      4  C   UNL d   1     -41.677-122.509 -53.326  0.00  0.00     0.387 C 
ATOM      5  F   UNL d   1     -41.125-123.059 -53.599  0.00  0.00    -0.190 F 
ATOM      6  F   UNL d   1     -42.244-121.945 -53.055  0.00  0.00    -0.190 F 
BRANCH   4   7
ATOM      7  C   UNL d   1     -41.484-122.701 -52.550  0.00  0.00     0.329 C 
ATOM      8  O   UNL d   1     -41.123-123.423 -52.370  0.00  0.00    -0.275 OA
BRANCH   7   9
ATOM      9  P   UNL d   1     -41.652-122.165 -51.926  0.00  0.00     0.339 P 
ATOM     10  O   UNL d   1     -41.122-121.621 -52.238  0.00  0.00    -0.634 OA
ATOM     11  O   UNL d   1     -42.189-122.712 -51.606  0.00  0.00    -0.634 OA
ATOM     12  O   UNL d   1     -41.826-121.656 -51.312  0.00  0.00    -0.634 OA
ENDBRANCH   7   9
ENDBRANCH   4   7
ENDBRANCH   1   4
BRANCH   1  13
ATOM     13  C   UNL d   1     -42.064-122.127 -54.905  0.00  0.00     0.393 C 
ATOM     14  F   UNL d   1     -41.337-121.747 -54.994  0.00  0.00    -0.188 F 
ATOM     15  F   UNL d   1     -42.807-122.513 -54.822  0.00  0.00    -0.188 F 
BRANCH  13  16
ATOM     16  C   UNL d   1     -42.256-121.934 -55.684  0.00  0.00     0.322 C 
ATOM     17  F   UNL d   1     -41.944-121.249 -56.024  0.00  0.00    -0.171 F 
ATOM     18  F   UNL d   1     -42.756-122.421 -56.127  0.00  0.00    -0.171 F 
ENDBRANCH  13  16
ENDBRANCH   1  13
TORSDOF 5
ENDMDL
MODEL 2
REMARK VINA RESULT:      -5.1      1.226      1.903
REMARK  5 active torsions:
REMARK  status: ('A' for Active; 'I' for Inactive)
REMARK    1  A    between atoms: C_2  and  C_1 
REMARK    2  A    between atoms: C_3  and  C_1 
REMARK    3  A    between atoms: C_4  and  C_2 
REMARK    4  A    between atoms: C_6  and  C_3 
REMARK    5  A    between atoms: P_5  and  C_4 
ROOT
ATOM      1  C   UNL d   1     -41.404-122.686 -52.858  0.00  0.00     0.389 C 
ATOM      2  F   UNL d   1     -41.610-121.908 -53.016  0.00  0.00    -0.191 F 
ATOM      3  F   UNL d   1     -41.192-123.483 -52.692  0.00  0.00    -0.191 F 
ENDROOT
BRANCH   1   4
ATOM      4  C   UNL d   1     -41.465-122.535 -52.025  0.00  0.00     0.387 C 
ATOM      5  F   UNL d   1     -41.799-121.798 -52.192  0.00  0.00    -0.190 F 
ATOM      6  F   UNL d   1     -41.123-123.290 -51.863  0.00  0.00    -0.190 F 
BRANCH   4   7
ATOM      7  C   UNL d   1     -41.528-122.380 -51.220  0.00  0.00     0.329 C 
ATOM      8  O   UNL d   1     -41.123-121.745 -50.878  0.00  0.00    -0.275 OA
BRANCH   7   9
ATOM      9  P   UNL d   1     -42.007-122.866 -50.731  0.00  0.00     0.339 P 
ATOM     10  O   UNL d   1     -41.345-123.281 -50.480  0.00  0.00    -0.634 OA
ATOM     11  O   UNL d   1     -42.680-122.449 -50.982  0.00  0.00    -0.634 OA
ATOM     12  O   UNL d   1     -42.487-123.330 -50.260  0.00  0.00    -0.634 OA
ENDBRANCH   7   9
ENDBRANCH   4   7
ENDBRANCH   1   4
BRANCH   1  13
ATOM     13  C   UNL d   1     -41.342-122.841 -53.663  0.00  0.00     0.393 C 
ATOM     14  F   UNL d   1     -41.512-123.637 -53.521  0.00  0.00    -0.188 F 
ATOM     15  F   UNL d   1     -41.168-122.033 -53.814  0.00  0.00    -0.188 F 
BRANCH  13  16
ATOM     16  C   UNL d   1     -41.281-123.002 -54.470  0.00  0.00     0.322 C 
ATOM     17  F   UNL d   1     -41.307-122.380 -55.014  0.00  0.00    -0.171 F 
ATOM     18  F   UNL d   1     -41.195-123.778 -54.737  0.00  0.00    -0.171 F 
ENDBRANCH  13  16
ENDBRANCH   1  13
TORSDOF 5
ENDMDL
MODEL 3
REMARK VINA RESULT:      -5.1      3.080      4.526
REMARK  5 active torsions:
REMARK  status: ('A' for Active; 'I' for Inactive)
REMARK    1  A    between atoms: C_2  and  C_1 
REMARK    2  A    between atoms: C_3  and  C_1 
REMARK    3  A    between atoms: C_4  and  C_2 
REMARK    4  A    between atoms: C_6  and  C_3 
REMARK    5  A    between atoms: P_5  and  C_4 
ROOT
ATOM      1  C   UNL d   1     -42.234-122.588 -50.045  0.00  0.00     0.389 C 
ATOM      2  F   UNL d   1     -42.865-122.074 -50.142  0.00  0.00    -0.191 F 
ATOM      3  F   UNL d   1     -41.585-123.115 -49.948  0.00  0.00    -0.191 F 
ENDROOT
BRANCH   1   4
ATOM      4  C   UNL d   1     -41.898-122.318 -50.776  0.00  0.00     0.387 C 
ATOM      5  F   UNL d   1     -41.247-122.809 -50.648  0.00  0.00    -0.190 F 
ATOM      6  F   UNL d   1     -42.568-121.818 -50.899  0.00  0.00    -0.190 F 
BRANCH   4   7
ATOM      7  C   UNL d   1     -41.565-122.062 -51.482  0.00  0.00     0.329 C 
ATOM      8  O   UNL d   1     -41.123-121.363 -51.513  0.00  0.00    -0.275 OA
BRANCH   7   9
ATOM      9  P   UNL d   1     -41.669-122.507 -52.187  0.00  0.00     0.339 P 
ATOM     10  O   UNL d   1     -41.124-123.062 -51.927  0.00  0.00    -0.634 OA
ATOM     11  O   UNL d   1     -42.222-121.947 -52.454  0.00  0.00    -0.634 OA
ATOM     12  O   UNL d   1     -41.782-122.928 -52.877  0.00  0.00    -0.634 OA
ENDBRANCH   7   9
ENDBRANCH   4   7
ENDBRANCH   1   4
BRANCH   1  13
ATOM     13  C   UNL d   1     -42.552-122.856 -49.336  0.00  0.00     0.393 C 
ATOM     14  F   UNL d   1     -41.826-122.728 -48.963  0.00  0.00    -0.188 F 
ATOM     15  F   UNL d   1     -43.293-122.989 -49.709  0.00  0.00    -0.188 F 
BRANCH  13  16
ATOM     16  C   UNL d   1     -42.867-123.125 -48.622  0.00  0.00     0.322 C 
ATOM     17  F   UNL d   1     -43.360-123.788 -48.616  0.00  0.00    -0.171 F 
ATOM     18  F   UNL d   1     -42.692-122.736 -47.914  0.00  0.00    -0.171 F 
ENDBRANCH  13  16
ENDBRANCH   1  13
TORSDOF 5
ENDMDL
MODEL 4
REMARK VINA RESULT:      -5.0      2.957      3.869
REMARK  5 active torsions:
REMARK  status: ('A' for Active; 'I' for Inactive)
REMARK    1  A    between atoms: C_2  and  C_1 
REMARK    2  A    between atoms: C_3  and  C_1 
REMARK    3  A    between atoms: C_4  and  C_2 
REMARK    4  A    between atoms: C_6  and  C_3 
REMARK    5  A    between atoms: P_5  and  C_4 
ROOT
ATOM      1  C   UNL d   1     -41.995-122.605 -50.514  0.00  0.00     0.389 C 
ATOM      2  F   UNL d   1     -42.601-122.053 -50.550  0.00  0.00    -0.191 F 
ATOM      3  F   UNL d   1     -41.374-123.171 -50.475  0.00  0.00    -0.191 F 
ENDROOT
BRANCH   1   4
ATOM      4  C   UNL d   1     -42.346-122.950 -49.824  0.00  0.00     0.387 C 
ATOM      5  F   UNL d   1     -42.962-122.402 -49.874  0.00  0.00    -0.190 F 
ATOM      6  F   UNL d   1     -41.713-123.507 -49.779  0.00  0.00    -0.190 F 
BRANCH   4   7
ATOM      7  C   UNL d   1     -42.694-123.278 -49.155  0.00  0.00     0.329 C 
ATOM      8  O   UNL d   1     -43.317-123.817 -49.223  0.00  0.00    -0.275 OA
BRANCH   7   9
ATOM      9  P   UNL d   1     -42.420-123.071 -48.389  0.00  0.00     0.339 P 
ATOM     10  O   UNL d   1     -42.953-122.448 -48.357  0.00  0.00    -0.634 OA
ATOM     11  O   UNL d   1     -41.878-123.700 -48.416  0.00  0.00    -0.634 OA
ATOM     12  O   UNL d   1     -42.142-122.883 -47.644  0.00  0.00    -0.634 OA
ENDBRANCH   7   9
ENDBRANCH   4   7
ENDBRANCH   1   4
BRANCH   1  13
ATOM     13  C   UNL d   1     -41.647-122.276 -51.183  0.00  0.00     0.393 C 
ATOM     14  F   UNL d   1     -41.606-121.545 -50.802  0.00  0.00    -0.188 F 
ATOM     15  F   UNL d   1     -41.685-123.018 -51.577  0.00  0.00    -0.188 F 
BRANCH  13  16
ATOM     16  C   UNL d   1     -41.298-121.943 -51.852  0.00  0.00     0.322 C 
ATOM     17  F   UNL d   1     -41.123-121.135 -51.863  0.00  0.00    -0.171 F 
ATOM     18  F   UNL d   1     -41.123-122.410 -52.511  0.00  0.00    -0.171 F 
ENDBRANCH  13  16
ENDBRANCH   1  13
TORSDOF 5
ENDMDL
