MODEL 1
REMARK VINA RESULT:      -8.8      0.000      0.000
REMARK  7 active torsions:
REMARK  status: ('A' for Active; 'I' for Inactive)
REMARK    1  A    between atoms: N_3  and  S_1 
REMARK    2  A    between atoms: C_6  and  S_1 
REMARK    3  A    between atoms: N_2  and  C_5 
REMARK    4  A    between atoms: C_4  and  N_3 
REMARK    5  A    between atoms: C_5  and  C_4 
REMARK    6  A    between atoms: C_10  and  C_5 
REMARK    7  A    between atoms: O_26  and  C_20 
ROOT
ATOM      1  C   UNL d   1      53.085  32.738  53.341  0.00  0.00     0.084 C 
ENDROOT
BRANCH   1   2
ATOM      2  N   UNL d   1      52.400  33.187  53.247  0.00  0.00    -0.300 N 
ATOM      3  C   UNL d   1      51.746  33.033  53.711  0.00  0.00     0.100 A 
ATOM      4  C   UNL d   1      51.061  33.482  53.616  0.00  0.00     0.100 A 
ATOM      5  N   UNL d   1      51.038  34.085  53.054  0.00  0.00    -0.299 N 
ATOM      6  C   UNL d   1      51.701  34.238  52.587  0.00  0.00     0.100 A 
ATOM      7  C   UNL d   1      50.349  34.536  52.960  0.00  0.00     0.100 C 
ATOM      8  C   UNL d   1      52.377  33.791  52.684  0.00  0.00     0.100 A 
ENDBRANCH   1   2
BRANCH   1   9
ATOM      9  C   UNL d   1      53.215  32.078  52.865  0.00  0.00     0.130 C 
BRANCH   9  10
ATOM     10  N   UNL d   1      53.020  31.325  53.140  0.00  0.00    -0.155 NA
BRANCH  10  11
ATOM     11  S   UNL d   1      52.975  30.691  52.613  0.00  0.00     0.285 S 
ATOM     12  O   UNL d   1      52.906  31.224  51.984  0.00  0.00    -0.198 OA
ATOM     13  O   UNL d   1      52.930  30.058  52.086  0.00  0.00    -0.198 OA
BRANCH  11  14
ATOM     14  C   UNL d   1      53.045  30.160  53.256  0.00  0.00     0.105 A 
ATOM     15  C   UNL d   1      52.380  29.907  53.650  0.00  0.00     0.015 A 
ATOM     16  C   UNL d   1      52.451  29.379  54.289  0.00  0.00     0.025 A 
ATOM     17  C   UNL d   1      53.197  29.116  54.519  0.00  0.00     0.094 A 
ATOM     18  C   UNL d   1      53.873  29.381  54.110  0.00  0.00     0.025 A 
ATOM     19  C   UNL d   1      53.791  29.897  53.486  0.00  0.00     0.015 A 
BRANCH  17  20
ATOM     20  O   UNL d   1      53.280  28.587  55.158  0.00  0.00    -0.328 OA
ATOM     21  C   UNL d   1      53.280  28.866  55.934  0.00  0.00     0.181 C 
ENDBRANCH  17  20
ENDBRANCH  11  14
ENDBRANCH  10  11
ENDBRANCH   9  10
ENDBRANCH   1   9
BRANCH   1  22
ATOM     22  C   UNL d   1      53.647  32.951  53.920  0.00  0.00     0.018 A 
ATOM     23  C   UNL d   1      53.450  32.911  54.720  0.00  0.00     0.004 A 
ATOM     24  C   UNL d   1      54.005  33.122  55.291  0.00  0.00     0.030 A 
ATOM     25  C   UNL d   1      54.757  33.374  55.064  0.00  0.00     0.140 A 
ATOM     26  C   UNL d   1      54.953  33.415  54.263  0.00  0.00     0.030 A 
ATOM     27  F   UNL d   1      55.311  33.585  55.635  0.00  0.00    -0.204 F 
ATOM     28  C   UNL d   1      54.398  33.204  53.691  0.00  0.00     0.004 A 
ENDBRANCH   1  22
TORSDOF 7
ENDMDL
MODEL 2
REMARK VINA RESULT:      -8.0      1.304      2.582
REMARK  7 active torsions:
REMARK  status: ('A' for Active; 'I' for Inactive)
REMARK    1  A    between atoms: N_3  and  S_1 
REMARK    2  A    between atoms: C_6  and  S_1 
REMARK    3  A    between atoms: N_2  and  C_5 
REMARK    4  A    between atoms: C_4  and  N_3 
REMARK    5  A    between atoms: C_5  and  C_4 
REMARK    6  A    between atoms: C_10  and  C_5 
REMARK    7  A    between atoms: O_26  and  C_20 
ROOT
ATOM      1  C   UNL d   1      52.910  32.836  53.229  0.00  0.00     0.084 C 
ENDROOT
BRANCH   1   2
ATOM      2  N   UNL d   1      53.467  33.055  53.797  0.00  0.00    -0.300 N 
ATOM      3  C   UNL d   1      53.257  33.071  54.586  0.00  0.00     0.100 A 
ATOM      4  C   UNL d   1      53.814  33.290  55.154  0.00  0.00     0.100 A 
ATOM      5  N   UNL d   1      54.580  33.492  54.923  0.00  0.00    -0.299 N 
ATOM      6  C   UNL d   1      54.788  33.475  54.125  0.00  0.00     0.100 A 
ATOM      7  C   UNL d   1      55.138  33.711  55.495  0.00  0.00     0.100 C 
ATOM      8  C   UNL d   1      54.233  33.257  53.567  0.00  0.00     0.100 A 
ENDBRANCH   1   2
BRANCH   1   9
ATOM      9  C   UNL d   1      53.042  32.175  52.755  0.00  0.00     0.130 C 
BRANCH   9  10
ATOM     10  N   UNL d   1      52.904  31.418  53.054  0.00  0.00    -0.155 NA
BRANCH  10  11
ATOM     11  S   UNL d   1      52.912  30.766  52.548  0.00  0.00     0.285 S 
ATOM     12  O   UNL d   1      52.892  31.276  51.897  0.00  0.00    -0.198 OA
ATOM     13  O   UNL d   1      52.919  30.115  52.042  0.00  0.00    -0.198 OA
BRANCH  11  14
ATOM     14  C   UNL d   1      52.931  30.259  53.213  0.00  0.00     0.105 A 
ATOM     15  C   UNL d   1      53.644  30.005  53.511  0.00  0.00     0.015 A 
ATOM     16  C   UNL d   1      53.662  29.500  54.173  0.00  0.00     0.025 A 
ATOM     17  C   UNL d   1      52.955  29.261  54.522  0.00  0.00     0.094 A 
ATOM     18  C   UNL d   1      52.229  29.526  54.209  0.00  0.00     0.025 A 
ATOM     19  C   UNL d   1      52.224  30.019  53.562  0.00  0.00     0.015 A 
BRANCH  17  20
ATOM     20  O   UNL d   1      52.961  28.756  55.185  0.00  0.00    -0.328 OA
ATOM     21  C   UNL d   1      53.657  28.381  55.417  0.00  0.00     0.181 C 
ENDBRANCH  17  20
ENDBRANCH  11  14
ENDBRANCH  10  11
ENDBRANCH   9  10
ENDBRANCH   1   9
BRANCH   1  22
ATOM     22  C   UNL d   1      52.213  33.284  53.135  0.00  0.00     0.018 A 
ATOM     23  C   UNL d   1      51.556  33.129  53.609  0.00  0.00     0.004 A 
ATOM     24  C   UNL d   1      50.868  33.572  53.516  0.00  0.00     0.030 A 
ATOM     25  C   UNL d   1      50.835  34.171  52.949  0.00  0.00     0.140 A 
ATOM     26  C   UNL d   1      51.493  34.326  52.475  0.00  0.00     0.030 A 
ATOM     27  F   UNL d   1      50.146  34.614  52.856  0.00  0.00    -0.204 F 
ATOM     28  C   UNL d   1      52.182  33.883  52.568  0.00  0.00     0.004 A 
ENDBRANCH   1  22
TORSDOF 7
ENDMDL
MODEL 3
REMARK VINA RESULT:      -6.3      1.935      3.949
REMARK  7 active torsions:
REMARK  status: ('A' for Active; 'I' for Inactive)
REMARK    1  A    between atoms: N_3  and  S_1 
REMARK    2  A    between atoms: C_6  and  S_1 
REMARK    3  A    between atoms: N_2  and  C_5 
REMARK    4  A    between atoms: C_4  and  N_3 
REMARK    5  A    between atoms: C_5  and  C_4 
REMARK    6  A    between atoms: C_10  and  C_5 
REMARK    7  A    between atoms: O_26  and  C_20 
ROOT
ATOM      1  C   UNL d   1      53.572  32.580  53.467  0.00  0.00     0.084 C 
ENDROOT
BRANCH   1   2
ATOM      2  N   UNL d   1      53.318  31.796  53.411  0.00  0.00    -0.300 N 
ATOM      3  C   UNL d   1      52.623  31.568  53.774  0.00  0.00     0.100 A 
ATOM      4  C   UNL d   1      52.370  30.784  53.717  0.00  0.00     0.100 A 
ATOM      5  N   UNL d   1      52.820  30.236  53.295  0.00  0.00    -0.299 N 
ATOM      6  C   UNL d   1      53.521  30.471  52.930  0.00  0.00     0.100 A 
ATOM      7  C   UNL d   1      52.564  29.450  53.240  0.00  0.00     0.100 C 
ATOM      8  C   UNL d   1      53.768  31.248  52.989  0.00  0.00     0.100 A 
ENDBRANCH   1   2
BRANCH   1   9
ATOM      9  C   UNL d   1      53.412  33.110  52.857  0.00  0.00     0.130 C 
BRANCH   9  10
ATOM     10  N   UNL d   1      52.745  33.594  52.894  0.00  0.00    -0.155 NA
BRANCH  10  11
ATOM     11  S   UNL d   1      52.653  34.215  52.357  0.00  0.00     0.285 S 
ATOM     12  O   UNL d   1      53.441  34.121  52.121  0.00  0.00    -0.198 OA
ATOM     13  O   UNL d   1      52.564  34.834  51.821  0.00  0.00    -0.198 OA
BRANCH  11  14
ATOM     14  C   UNL d   1      51.859  34.301  52.603  0.00  0.00     0.105 A 
ATOM     15  C   UNL d   1      51.682  34.740  53.264  0.00  0.00     0.015 A 
ATOM     16  C   UNL d   1      50.890  34.825  53.507  0.00  0.00     0.025 A 
ATOM     17  C   UNL d   1      50.290  34.463  53.074  0.00  0.00     0.094 A 
ATOM     18  C   UNL d   1      50.481  34.016  52.398  0.00  0.00     0.025 A 
ATOM     19  C   UNL d   1      51.258  33.939  52.170  0.00  0.00     0.015 A 
BRANCH  17  20
ATOM     20  O   UNL d   1      49.494  34.542  53.309  0.00  0.00    -0.328 OA
ATOM     21  C   UNL d   1      49.060  35.210  53.095  0.00  0.00     0.181 C 
ENDBRANCH  17  20
ENDBRANCH  11  14
ENDBRANCH  10  11
ENDBRANCH   9  10
ENDBRANCH   1   9
BRANCH   1  22
ATOM     22  C   UNL d   1      53.989  32.835  54.143  0.00  0.00     0.018 A 
ATOM     23  C   UNL d   1      53.618  32.839  54.879  0.00  0.00     0.004 A 
ATOM     24  C   UNL d   1      54.031  33.091  55.546  0.00  0.00     0.030 A 
ATOM     25  C   UNL d   1      54.814  33.339  55.478  0.00  0.00     0.140 A 
ATOM     26  C   UNL d   1      55.186  33.335  54.741  0.00  0.00     0.030 A 
ATOM     27  F   UNL d   1      55.227  33.591  56.146  0.00  0.00    -0.204 F 
ATOM     28  C   UNL d   1      54.773  33.083  54.073  0.00  0.00     0.004 A 
ENDBRANCH   1  22
TORSDOF 7
ENDMDL
