MODEL 1
REMARK VINA RESULT:      -3.4      0.000      0.000
REMARK  4 active torsions:
REMARK  status: ('A' for Active; 'I' for Inactive)
REMARK    1  A    between atoms: C_2  and  S_1 
REMARK    2  A    between atoms: N_3  and  S_1 
REMARK    3  A    between atoms: C_18  and  N_8 
REMARK    4  A    between atoms: C_21  and  C_18 
ROOT
ATOM      1  S   UNL d   1      56.719  -0.022  32.654  0.00  0.00     0.271 S 
ATOM      2  O   UNL d   1      57.066  -0.688  32.996  0.00  0.00    -0.200 OA
ATOM      3  O   UNL d   1      56.370   0.645  32.316  0.00  0.00    -0.200 OA
ENDROOT
BRANCH   1   4
ATOM      4  C   UNL d   1      56.341   0.156  33.366  0.00  0.00     0.104 A 
ATOM      5  C   UNL d   1      55.532  -0.021  33.458  0.00  0.00     0.012 A 
ATOM      6  C   UNL d   1      55.147   0.154  34.167  0.00  0.00     0.001 A 
ATOM      7  C   UNL d   1      55.114  -0.373  32.838  0.00  0.00     0.001 C 
ATOM      8  C   UNL d   1      55.568   0.505  34.781  0.00  0.00     0.000 A 
ATOM      9  C   UNL d   1      56.372   0.681  34.691  0.00  0.00     0.001 A 
ATOM     10  C   UNL d   1      55.187   0.682  35.492  0.00  0.00     0.000 C 
ATOM     11  C   UNL d   1      56.755   0.505  33.980  0.00  0.00     0.012 A 
ATOM     12  C   UNL d   1      57.556   0.682  33.893  0.00  0.00     0.001 C 
ENDBRANCH   1   4
BRANCH   1  13
ATOM     13  N   UNL d   1      57.091  -0.190  31.937  0.00  0.00    -0.226 N 
ATOM     14  C   UNL d   1      57.519   0.404  31.549  0.00  0.00     0.111 A 
ATOM     15  C   UNL d   1      57.891   0.236  30.832  0.00  0.00     0.100 A 
ATOM     16  N   UNL d   1      57.838  -0.517  30.503  0.00  0.00    -0.297 N 
ATOM     17  C   UNL d   1      57.409  -1.108  30.895  0.00  0.00     0.100 A 
ATOM     18  C   UNL d   1      57.034  -0.949  31.612  0.00  0.00     0.111 A 
BRANCH  16  19
ATOM     19  C   UNL d   1      58.212  -0.680  29.786  0.00  0.00     0.126 C 
BRANCH  19  20
ATOM     20  C   UNL d   1      58.971  -0.393  29.640  0.00  0.00     0.253 C 
ATOM     21  O   UNL d   1      59.434  -0.730  29.046  0.00  0.00    -0.281 OA
ENDBRANCH  19  20
ENDBRANCH  16  19
ENDBRANCH   1  13
TORSDOF 4
ENDMDL
MODEL 2
REMARK VINA RESULT:      -2.8      1.380      4.694
REMARK  4 active torsions:
REMARK  status: ('A' for Active; 'I' for Inactive)
REMARK    1  A    between atoms: C_2  and  S_1 
REMARK    2  A    between atoms: N_3  and  S_1 
REMARK    3  A    between atoms: C_18  and  N_8 
REMARK    4  A    between atoms: C_21  and  C_18 
ROOT
ATOM      1  S   UNL d   1      58.147  -0.027  30.636  0.00  0.00     0.271 S 
ATOM      2  O   UNL d   1      58.507  -0.665  31.015  0.00  0.00    -0.200 OA
ATOM      3  O   UNL d   1      57.790   0.611  30.254  0.00  0.00    -0.200 OA
ENDROOT
BRANCH   1   4
ATOM      4  C   UNL d   1      58.762   0.004  30.086  0.00  0.00     0.104 A 
ATOM      5  C   UNL d   1      59.485   0.362  30.297  0.00  0.00     0.012 A 
ATOM      6  C   UNL d   1      60.104   0.397  29.753  0.00  0.00     0.001 A 
ATOM      7  C   UNL d   1      59.581   0.682  31.053  0.00  0.00     0.001 C 
ATOM      8  C   UNL d   1      60.004   0.076  29.002  0.00  0.00     0.000 A 
ATOM      9  C   UNL d   1      59.286  -0.280  28.791  0.00  0.00     0.001 A 
ATOM     10  C   UNL d   1      60.621   0.109  28.455  0.00  0.00     0.000 C 
ATOM     11  C   UNL d   1      58.667  -0.313  29.338  0.00  0.00     0.012 A 
ATOM     12  C   UNL d   1      57.953  -0.668  29.125  0.00  0.00     0.001 C 
ENDBRANCH   1   4
BRANCH   1  13
ATOM     13  N   UNL d   1      57.527  -0.048  31.179  0.00  0.00    -0.226 N 
ATOM     14  C   UNL d   1      57.272  -0.776  31.482  0.00  0.00     0.111 A 
ATOM     15  C   UNL d   1      56.652  -0.797  32.026  0.00  0.00     0.100 A 
ATOM     16  N   UNL d   1      56.286  -0.099  32.266  0.00  0.00    -0.297 N 
ATOM     17  C   UNL d   1      56.544   0.627  31.960  0.00  0.00     0.100 A 
ATOM     18  C   UNL d   1      57.163   0.657  31.416  0.00  0.00     0.111 A 
BRANCH  16  19
ATOM     19  C   UNL d   1      55.666  -0.125  32.810  0.00  0.00     0.126 C 
BRANCH  19  20
ATOM     20  C   UNL d   1      55.769   0.173  33.570  0.00  0.00     0.253 C 
ATOM     21  O   UNL d   1      55.174   0.085  34.135  0.00  0.00    -0.281 OA
ENDBRANCH  19  20
ENDBRANCH  16  19
ENDBRANCH   1  13
TORSDOF 4
ENDMDL
