MODEL 1
REMARK VINA RESULT:      -5.4      0.000      0.000
REMARK  4 active torsions:
REMARK  status: ('A' for Active; 'I' for Inactive)
REMARK    1  A    between atoms: S_6  and  C_1 
REMARK    2  A    between atoms: C_19  and  S_6 
REMARK    3  A    between atoms: C_7  and  C_19 
REMARK       I    between atoms: N_10  and  C_7 
REMARK    4  A    between atoms: C_14  and  N_10 
ROOT
ATOM      1  C   UNL d   1     -41.653-122.857 -51.292  0.00  0.00     0.286 C 
ATOM      2  N   UNL d   1     -41.687-123.457 -50.733  0.00  0.00    -0.207 NA
ATOM      3  O   UNL d   1     -41.881-122.091 -51.080  0.00  0.00    -0.265 OA
ENDROOT
BRANCH   1   4
ATOM      4  C   UNL d   1     -41.396-123.014 -52.054  0.00  0.00     0.099 C 
BRANCH   4   5
ATOM      5  S   UNL d   1     -41.657-122.557 -52.680  0.00  0.00    -0.062 SA
BRANCH   5   6
ATOM      6  C   UNL d   1     -41.584-122.830 -53.456  0.00  0.00     0.114 A 
ATOM      7  C   UNL d   1     -41.895-122.395 -54.080  0.00  0.00     0.042 A 
ATOM      8  C   UNL d   1     -41.822-122.668 -54.856  0.00  0.00     0.085 A 
ATOM      9  C   UNL d   1     -42.283-121.682 -53.926  0.00  0.00     0.004 A 
ATOM     10  C   UNL d   1     -42.136-122.229 -55.480  0.00  0.00     0.019 A 
ATOM     11  N   UNL d   1     -41.437-123.377 -55.010  0.00  0.00    -0.224 NA
ATOM     12  C   UNL d   1     -42.523-121.517 -55.328  0.00  0.00     0.002 A 
ATOM     13  C   UNL d   1     -42.597-121.244 -54.551  0.00  0.00     0.000 A 
ATOM     14  C   UNL d   1     -41.123-123.816 -54.386  0.00  0.00     0.200 A 
ATOM     15  N   UNL d   1     -41.196-123.543 -53.609  0.00  0.00    -0.217 NA
ENDBRANCH   5   6
ENDBRANCH   4   5
ENDBRANCH   1   4
BRANCH   2  16
ATOM     16  C   UNL d   1     -41.946-123.301 -49.967  0.00  0.00     0.087 A 
ATOM     17  C   UNL d   1     -41.397-123.235 -49.360  0.00  0.00     0.045 A 
ATOM     18  C   UNL d   1     -41.655-123.079 -48.591  0.00  0.00     0.121 A 
ATOM     19  O   UNL d   1     -41.238-122.985 -47.882  0.00  0.00    -0.299 OA
ATOM     20  C   UNL d   1     -42.457-122.991 -48.437  0.00  0.00     0.119 A 
ATOM     21  C   UNL d   1     -41.793-122.838 -47.294  0.00  0.00     0.304 A 
ATOM     22  O   UNL d   1     -42.547-122.841 -47.631  0.00  0.00    -0.300 OA
ATOM     23  C   UNL d   1     -43.000-123.059 -49.054  0.00  0.00     0.028 A 
ATOM     24  C   UNL d   1     -42.748-123.213 -49.814  0.00  0.00     0.021 A 
ENDBRANCH   2  16
TORSDOF 4
ENDMDL
MODEL 2
REMARK VINA RESULT:      -4.4      1.699      5.529
REMARK  4 active torsions:
REMARK  status: ('A' for Active; 'I' for Inactive)
REMARK    1  A    between atoms: S_6  and  C_1 
REMARK    2  A    between atoms: C_19  and  S_6 
REMARK    3  A    between atoms: C_7  and  C_19 
REMARK       I    between atoms: N_10  and  C_7 
REMARK    4  A    between atoms: C_14  and  N_10 
ROOT
ATOM      1  C   UNL d   1     -41.750-122.746 -51.866  0.00  0.00     0.286 C 
ATOM      2  N   UNL d   1     -41.649-122.148 -52.419  0.00  0.00    -0.207 NA
ATOM      3  O   UNL d   1     -41.889-123.519 -52.125  0.00  0.00    -0.265 OA
ENDROOT
BRANCH   1   4
ATOM      4  C   UNL d   1     -41.715-122.581 -51.065  0.00  0.00     0.099 C 
BRANCH   4   5
ATOM      5  S   UNL d   1     -42.157-123.019 -50.533  0.00  0.00    -0.062 SA
BRANCH   5   6
ATOM      6  C   UNL d   1     -42.001-122.975 -49.723  0.00  0.00     0.114 A 
ATOM      7  C   UNL d   1     -42.557-123.240 -49.179  0.00  0.00     0.042 A 
ATOM      8  C   UNL d   1     -42.400-123.196 -48.368  0.00  0.00     0.085 A 
ATOM      9  C   UNL d   1     -43.274-123.551 -49.446  0.00  0.00     0.004 A 
ATOM     10  C   UNL d   1     -42.960-123.463 -47.824  0.00  0.00     0.019 A 
ATOM     11  N   UNL d   1     -41.687-122.887 -48.102  0.00  0.00    -0.224 NA
ATOM     12  C   UNL d   1     -43.676-123.773 -48.090  0.00  0.00     0.002 A 
ATOM     13  C   UNL d   1     -43.833-123.817 -48.901  0.00  0.00     0.000 A 
ATOM     14  C   UNL d   1     -41.128-122.620 -48.645  0.00  0.00     0.200 A 
ATOM     15  N   UNL d   1     -41.284-122.664 -49.456  0.00  0.00    -0.217 NA
ENDBRANCH   5   6
ENDBRANCH   4   5
ENDBRANCH   1   4
BRANCH   2  16
ATOM     16  C   UNL d   1     -41.684-122.312 -53.225  0.00  0.00     0.087 A 
ATOM     17  C   UNL d   1     -42.225-121.915 -53.695  0.00  0.00     0.045 A 
ATOM     18  C   UNL d   1     -42.261-122.078 -54.504  0.00  0.00     0.121 A 
ATOM     19  O   UNL d   1     -42.741-121.770 -55.105  0.00  0.00    -0.299 OA
ATOM     20  C   UNL d   1     -41.756-122.636 -54.833  0.00  0.00     0.119 A 
ATOM     21  C   UNL d   1     -42.524-122.146 -55.803  0.00  0.00     0.304 A 
ATOM     22  O   UNL d   1     -41.917-122.681 -55.641  0.00  0.00    -0.300 OA
ATOM     23  C   UNL d   1     -41.215-123.030 -54.351  0.00  0.00     0.028 A 
ATOM     24  C   UNL d   1     -41.178-122.871 -53.553  0.00  0.00     0.021 A 
ENDBRANCH   2  16
TORSDOF 4
ENDMDL
