MODEL 1
REMARK VINA RESULT:      -7.5      0.000      0.000
REMARK  5 active torsions:
REMARK  status: ('A' for Active; 'I' for Inactive)
REMARK       I    between atoms: C_3  and  N_1 
REMARK    1  A    between atoms: C_8  and  N_2 
REMARK    2  A    between atoms: C_11  and  C_3 
REMARK    3  A    between atoms: S_10  and  C_11 
REMARK    4  A    between atoms: C_13  and  S_10 
REMARK    5  A    between atoms: C_12  and  C_13 
ROOT
ATOM      1  N   UNL d   1      51.087  33.948  53.120  0.00  0.00    -0.269 N 
ATOM      2  N   UNL d   1      52.602  33.620  53.676  0.00  0.00    -0.301 N 
ATOM      3  C   UNL d   1      50.321  34.118  52.840  0.00  0.00     0.259 C 
ATOM      4  C   UNL d   1      51.524  34.538  53.487  0.00  0.00     0.102 A 
ATOM      5  C   UNL d   1      51.406  33.192  53.030  0.00  0.00     0.102 A 
ATOM      6  C   UNL d   1      52.161  33.028  53.307  0.00  0.00     0.100 A 
ATOM      7  C   UNL d   1      52.283  34.375  53.766  0.00  0.00     0.100 A 
ATOM      8  O   UNL d   1      49.867  33.536  52.468  0.00  0.00    -0.267 OA
ENDROOT
BRANCH   3   9
ATOM      9  C   UNL d   1      50.000  34.887  52.933  0.00  0.00     0.125 C 
BRANCH   9  10
ATOM     10  S   UNL d   1      49.212  35.012  52.784  0.00  0.00    -0.094 SA
BRANCH  10  11
ATOM     11  C   UNL d   1      48.874  35.743  52.959  0.00  0.00     0.035 C 
BRANCH  11  12
ATOM     12  C   UNL d   1      48.072  35.869  52.829  0.00  0.00     0.006 A 
ATOM     13  C   UNL d   1      47.567  35.989  53.471  0.00  0.00     0.001 A 
ATOM     14  C   UNL d   1      46.762  36.115  53.342  0.00  0.00     0.000 A 
ATOM     15  C   UNL d   1      46.462  36.122  52.575  0.00  0.00     0.000 A 
ATOM     16  C   UNL d   1      46.967  36.002  51.933  0.00  0.00     0.000 A 
ATOM     17  C   UNL d   1      47.773  35.875  52.061  0.00  0.00     0.001 A 
ENDBRANCH  11  12
ENDBRANCH  10  11
ENDBRANCH   9  10
ENDBRANCH   3   9
BRANCH   2  18
ATOM     18  C   UNL d   1      53.353  33.454  53.951  0.00  0.00     0.064 A 
ATOM     19  C   UNL d   1      53.900  33.077  53.464  0.00  0.00     0.018 A 
ATOM     20  C   UNL d   1      54.658  32.911  53.745  0.00  0.00     0.002 A 
ATOM     21  C   UNL d   1      54.867  33.123  54.515  0.00  0.00     0.000 A 
ATOM     22  C   UNL d   1      54.320  33.500  55.002  0.00  0.00     0.002 A 
ATOM     23  C   UNL d   1      53.563  33.666  54.720  0.00  0.00     0.018 A 
ENDBRANCH   2  18
TORSDOF 5
ENDMDL
MODEL 2
REMARK VINA RESULT:      -7.4      1.163      5.840
REMARK  5 active torsions:
REMARK  status: ('A' for Active; 'I' for Inactive)
REMARK       I    between atoms: C_3  and  N_1 
REMARK    1  A    between atoms: C_8  and  N_2 
REMARK    2  A    between atoms: C_11  and  C_3 
REMARK    3  A    between atoms: S_10  and  C_11 
REMARK    4  A    between atoms: C_13  and  S_10 
REMARK    5  A    between atoms: C_12  and  C_13 
ROOT
ATOM      1  N   UNL d   1      50.272  34.424  52.419  0.00  0.00    -0.269 N 
ATOM      2  N   UNL d   1      48.799  35.142  52.255  0.00  0.00    -0.301 N 
ATOM      3  C   UNL d   1      51.018  34.061  52.507  0.00  0.00     0.259 C 
ATOM      4  C   UNL d   1      49.910  34.767  53.071  0.00  0.00     0.102 A 
ATOM      5  C   UNL d   1      49.899  34.438  51.683  0.00  0.00     0.102 A 
ATOM      6  C   UNL d   1      49.165  34.796  51.600  0.00  0.00     0.100 A 
ATOM      7  C   UNL d   1      49.172  35.127  52.990  0.00  0.00     0.100 A 
ATOM      8  O   UNL d   1      51.396  33.711  51.861  0.00  0.00    -0.267 OA
ENDROOT
BRANCH   3   9
ATOM      9  C   UNL d   1      51.393  34.048  53.256  0.00  0.00     0.125 C 
BRANCH   9  10
ATOM     10  S   UNL d   1      52.136  33.726  53.326  0.00  0.00    -0.094 SA
BRANCH  10  11
ATOM     11  C   UNL d   1      52.417  33.505  54.068  0.00  0.00     0.035 C 
BRANCH  11  12
ATOM     12  C   UNL d   1      53.223  33.396  54.188  0.00  0.00     0.006 A 
ATOM     13  C   UNL d   1      53.627  33.878  54.722  0.00  0.00     0.001 A 
ATOM     14  C   UNL d   1      54.436  33.770  54.844  0.00  0.00     0.000 A 
ATOM     15  C   UNL d   1      54.840  33.181  54.433  0.00  0.00     0.000 A 
ATOM     16  C   UNL d   1      54.436  32.699  53.899  0.00  0.00     0.000 A 
ATOM     17  C   UNL d   1      53.627  32.807  53.777  0.00  0.00     0.001 A 
ENDBRANCH  11  12
ENDBRANCH  10  11
ENDBRANCH   9  10
ENDBRANCH   3   9
BRANCH   2  18
ATOM     18  C   UNL d   1      48.069  35.497  52.170  0.00  0.00     0.064 A 
ATOM     19  C   UNL d   1      47.571  35.281  51.550  0.00  0.00     0.018 A 
ATOM     20  C   UNL d   1      46.834  35.643  51.467  0.00  0.00     0.002 A 
ATOM     21  C   UNL d   1      46.596  36.220  52.006  0.00  0.00     0.000 A 
ATOM     22  C   UNL d   1      47.094  36.436  52.626  0.00  0.00     0.002 A 
ATOM     23  C   UNL d   1      47.830  36.075  52.708  0.00  0.00     0.018 A 
ENDBRANCH   2  18
TORSDOF 5
ENDMDL
