MODEL 1
REMARK VINA RESULT:      50.4      0.000      0.000
REMARK  3 active torsions:
REMARK  status: ('A' for Active; 'I' for Inactive)
REMARK    1  A    between atoms: C_3  and  C_1 
REMARK       I    between atoms: N_7  and  C_3 
REMARK    2  A    between atoms: C_11  and  N_7 
REMARK    3  A    between atoms: O_17  and  C_12 
ROOT
ATOM      1  C   UNL d   1      14.556  15.128  -2.642  0.00  0.00     0.121 A 
ATOM      2  C   UNL d   1      14.621  15.880  -2.923  0.00  0.00     0.305 A 
ATOM      3  C   UNL d   1      14.708  14.973  -1.840  0.00  0.00     0.012 A 
ATOM      4  O   UNL d   1      14.839  16.490  -2.406  0.00  0.00    -0.273 OA
ATOM      5  C   UNL d   1      14.923  15.584  -1.335  0.00  0.00     0.023 A 
ATOM      6  C   UNL d   1      14.988  16.336  -1.615  0.00  0.00     0.103 A 
ATOM      7  O   UNL d   1      14.470  16.031  -3.719  0.00  0.00    -0.259 OA
ATOM      8  C   UNL d   1      15.074  15.428  -0.536  0.00  0.00     0.002 A 
ATOM      9  C   UNL d   1      15.205  16.945  -1.102  0.00  0.00     0.025 A 
ATOM     10  C   UNL d   1      15.357  16.794  -0.302  0.00  0.00     0.002 A 
ATOM     11  C   UNL d   1      15.292  16.043  -0.021  0.00  0.00     0.000 A 
ENDROOT
BRANCH   1  12
ATOM     12  C   UNL d   1      14.339  14.515  -3.153  0.00  0.00     0.284 C 
ATOM     13  N   UNL d   1      13.559  14.255  -3.203  0.00  0.00    -0.208 NA
ATOM     14  O   UNL d   1      14.892  14.136  -3.635  0.00  0.00    -0.265 OA
BRANCH  13  15
ATOM     15  C   UNL d   1      13.371  13.661  -3.703  0.00  0.00     0.085 A 
ATOM     16  C   UNL d   1      12.978  13.805  -4.420  0.00  0.00     0.021 A 
ATOM     17  C   UNL d   1      12.783  13.208  -4.935  0.00  0.00     0.026 A 
ATOM     18  C   UNL d   1      12.992  12.409  -4.726  0.00  0.00     0.094 A 
ATOM     19  C   UNL d   1      13.393  12.262  -3.996  0.00  0.00     0.026 A 
ATOM     20  C   UNL d   1      13.568  12.891  -3.511  0.00  0.00     0.021 A 
BRANCH  18  21
ATOM     21  O   UNL d   1      12.805  11.784  -5.233  0.00  0.00    -0.328 OA
ATOM     22  C   UNL d   1      13.078  11.803  -6.011  0.00  0.00     0.181 C 
ENDBRANCH  18  21
ENDBRANCH  13  15
ENDBRANCH   1  12
TORSDOF 3
ENDMDL
MODEL 2
REMARK VINA RESULT:      51.5      1.310      4.927
REMARK  3 active torsions:
REMARK  status: ('A' for Active; 'I' for Inactive)
REMARK    1  A    between atoms: C_3  and  C_1 
REMARK       I    between atoms: N_7  and  C_3 
REMARK    2  A    between atoms: C_11  and  N_7 
REMARK    3  A    between atoms: O_17  and  C_12 
ROOT
ATOM      1  C   UNL d   1      14.161  13.402  -2.594  0.00  0.00     0.121 A 
ATOM      2  C   UNL d   1      14.169  12.619  -2.408  0.00  0.00     0.305 A 
ATOM      3  C   UNL d   1      13.807  13.654  -3.303  0.00  0.00     0.012 A 
ATOM      4  O   UNL d   1      13.823  12.074  -2.928  0.00  0.00    -0.273 OA
ATOM      5  C   UNL d   1      13.466  13.107  -3.812  0.00  0.00     0.023 A 
ATOM      6  C   UNL d   1      13.474  12.323  -3.626  0.00  0.00     0.103 A 
ATOM      7  O   UNL d   1      14.520  12.371  -1.705  0.00  0.00    -0.259 OA
ATOM      8  C   UNL d   1      13.114  13.359  -4.517  0.00  0.00     0.002 A 
ATOM      9  C   UNL d   1      13.130  11.779  -4.142  0.00  0.00     0.025 A 
ATOM     10  C   UNL d   1      12.776  12.026  -4.849  0.00  0.00     0.002 A 
ATOM     11  C   UNL d   1      12.768  12.810  -5.035  0.00  0.00     0.000 A 
ENDROOT
BRANCH   1  12
ATOM     12  C   UNL d   1      14.505  13.951  -2.080  0.00  0.00     0.284 C 
ATOM     13  N   UNL d   1      14.349  14.758  -2.147  0.00  0.00    -0.208 NA
ATOM     14  O   UNL d   1      15.019  13.718  -1.477  0.00  0.00    -0.265 OA
BRANCH  13  15
ATOM     15  C   UNL d   1      14.692  15.271  -1.640  0.00  0.00     0.085 A 
ATOM     16  C   UNL d   1      14.854  15.060  -0.853  0.00  0.00     0.021 A 
ATOM     17  C   UNL d   1      15.202  15.574  -0.330  0.00  0.00     0.026 A 
ATOM     18  C   UNL d   1      15.406  16.355  -0.604  0.00  0.00     0.094 A 
ATOM     19  C   UNL d   1      15.241  16.569  -1.406  0.00  0.00     0.026 A 
ATOM     20  C   UNL d   1      14.891  16.021  -1.894  0.00  0.00     0.021 A 
BRANCH  18  21
ATOM     21  O   UNL d   1      15.761  16.896  -0.091  0.00  0.00    -0.328 OA
ATOM     22  C   UNL d   1      16.246  17.485  -0.403  0.00  0.00     0.181 C 
ENDBRANCH  18  21
ENDBRANCH  13  15
ENDBRANCH   1  12
TORSDOF 3
ENDMDL
MODEL 3
REMARK VINA RESULT:      51.8      2.495      3.997
REMARK  3 active torsions:
REMARK  status: ('A' for Active; 'I' for Inactive)
REMARK    1  A    between atoms: C_3  and  C_1 
REMARK       I    between atoms: N_7  and  C_3 
REMARK    2  A    between atoms: C_11  and  N_7 
REMARK    3  A    between atoms: O_17  and  C_12 
ROOT
ATOM      1  C   UNL d   1      14.877  14.542  -1.375  0.00  0.00     0.121 A 
ATOM      2  C   UNL d   1      14.959  14.567  -0.575  0.00  0.00     0.305 A 
ATOM      3  C   UNL d   1      14.641  13.835  -1.743  0.00  0.00     0.012 A 
ATOM      4  O   UNL d   1      14.808  13.886  -0.128  0.00  0.00    -0.273 OA
ATOM      5  C   UNL d   1      14.493  13.164  -1.292  0.00  0.00     0.023 A 
ATOM      6  C   UNL d   1      14.576  13.189  -0.492  0.00  0.00     0.103 A 
ATOM      7  O   UNL d   1      15.193  15.270  -0.211  0.00  0.00    -0.259 OA
ATOM      8  C   UNL d   1      14.259  12.461  -1.661  0.00  0.00     0.002 A 
ATOM      9  C   UNL d   1      14.426  12.511  -0.046  0.00  0.00     0.025 A 
ATOM     10  C   UNL d   1      14.191  11.805  -0.409  0.00  0.00     0.002 A 
ATOM     11  C   UNL d   1      14.108  11.780  -1.209  0.00  0.00     0.000 A 
ENDROOT
BRANCH   1  12
ATOM     12  C   UNL d   1      15.026  15.219  -1.826  0.00  0.00     0.284 C 
ATOM     13  N   UNL d   1      14.569  15.403  -2.486  0.00  0.00    -0.208 NA
ATOM     14  O   UNL d   1      15.638  15.740  -1.637  0.00  0.00    -0.265 OA
BRANCH  13  15
ATOM     15  C   UNL d   1      14.731  16.062  -2.908  0.00  0.00     0.085 A 
ATOM     16  C   UNL d   1      14.786  16.807  -2.545  0.00  0.00     0.021 A 
ATOM     17  C   UNL d   1      14.950  17.483  -2.964  0.00  0.00     0.026 A 
ATOM     18  C   UNL d   1      15.069  17.418  -3.806  0.00  0.00     0.094 A 
ATOM     19  C   UNL d   1      15.013  16.659  -4.176  0.00  0.00     0.026 A 
ATOM     20  C   UNL d   1      14.847  16.010  -3.715  0.00  0.00     0.021 A 
BRANCH  18  21
ATOM     21  O   UNL d   1      15.237  18.090  -4.255  0.00  0.00    -0.328 OA
ATOM     22  C   UNL d   1      14.927  18.152  -5.017  0.00  0.00     0.181 C 
ENDBRANCH  18  21
ENDBRANCH  13  15
ENDBRANCH   1  12
TORSDOF 3
ENDMDL
