MODEL 1
REMARK VINA RESULT:      -3.4      0.000      0.000
REMARK  7 active torsions:
REMARK  status: ('A' for Active; 'I' for Inactive)
REMARK    1  A    between atoms: P_4  and  C_1 
REMARK    2  A    between atoms: N_7  and  C_3 
REMARK    3  A    between atoms: C_9  and  P_4 
REMARK    4  A    between atoms: C_10  and  P_4 
REMARK    5  A    between atoms: C_11  and  C_5 
REMARK    6  A    between atoms: C_12  and  N_7 
REMARK    7  A    between atoms: C_13  and  C_12 
ROOT
ATOM      1  C   UNL d   1     -40.469  14.059  19.629  0.00  0.00     0.161 A 
ATOM      2  N   UNL d   1     -41.168  13.642  19.794  0.00  0.00    -0.215 NA
ATOM      3  C   UNL d   1     -40.164  14.395  20.369  0.00  0.00     0.205 A 
ATOM      4  C   UNL d   1     -41.326  13.690  20.587  0.00  0.00     0.184 A 
ATOM      5  O   UNL d   1     -40.722  14.153  20.986  0.00  0.00    -0.270 OA
ENDROOT
BRANCH   1   6
ATOM      6  P   UNL d   1     -40.043  14.227  19.065  0.00  0.00     0.195 P 
ATOM      7  O   UNL d   1     -40.768  14.520  19.225  0.00  0.00    -0.305 OA
BRANCH   6   8
ATOM      8  C   UNL d   1     -40.178  14.757  18.436  0.00  0.00     0.038 A 
ATOM      9  C   UNL d   1     -40.807  14.634  17.931  0.00  0.00     0.004 A 
ATOM     10  C   UNL d   1     -40.941  15.159  17.308  0.00  0.00     0.000 A 
ATOM     11  C   UNL d   1     -40.442  15.797  17.202  0.00  0.00     0.000 A 
ATOM     12  C   UNL d   1     -39.812  15.921  17.708  0.00  0.00     0.000 A 
ATOM     13  C   UNL d   1     -39.679  15.396  18.331  0.00  0.00     0.004 A 
ENDBRANCH   6   8
BRANCH   6  14
ATOM     14  C   UNL d   1     -39.197  14.012  18.703  0.00  0.00     0.038 A 
ATOM     15  C   UNL d   1     -38.441  14.234  18.489  0.00  0.00     0.004 A 
ATOM     16  C   UNL d   1     -37.940  13.694  18.165  0.00  0.00     0.000 A 
ATOM     17  C   UNL d   1     -38.189  12.907  18.048  0.00  0.00     0.000 A 
ATOM     18  C   UNL d   1     -38.933  12.682  18.258  0.00  0.00     0.000 A 
ATOM     19  C   UNL d   1     -39.446  13.225  18.586  0.00  0.00     0.004 A 
ENDBRANCH   6  14
ENDBRANCH   1   6
BRANCH   3  20
ATOM     20  N   UNL d   1     -39.511  14.791  20.251  0.00  0.00    -0.219 NA
BRANCH  20  21
ATOM     21  C   UNL d   1     -38.939  15.299  20.573  0.00  0.00     0.101 C 
BRANCH  21  22
ATOM     22  C   UNL d   1     -38.790  15.311  21.369  0.00  0.00     0.019 A 
ATOM     23  C   UNL d   1     -38.285  14.751  21.712  0.00  0.00     0.002 A 
ATOM     24  C   UNL d   1     -38.138  14.774  22.544  0.00  0.00     0.000 A 
ATOM     25  C   UNL d   1     -38.491  15.348  23.019  0.00  0.00     0.000 A 
ATOM     26  C   UNL d   1     -39.009  15.922  22.665  0.00  0.00     0.000 A 
ATOM     27  C   UNL d   1     -39.153  15.897  21.838  0.00  0.00     0.002 A 
ENDBRANCH  21  22
ENDBRANCH  20  21
ENDBRANCH   3  20
BRANCH   4  28
ATOM     28  C   UNL d   1     -41.991  13.328  20.924  0.00  0.00     0.041 A 
ATOM     29  C   UNL d   1     -41.926  12.891  21.643  0.00  0.00     0.004 A 
ATOM     30  C   UNL d   1     -42.614  12.533  21.964  0.00  0.00     0.000 A 
ATOM     31  C   UNL d   1     -43.342  12.599  21.595  0.00  0.00     0.000 A 
ATOM     32  C   UNL d   1     -43.404  13.038  20.873  0.00  0.00     0.000 A 
ATOM     33  C   UNL d   1     -42.713  13.402  20.544  0.00  0.00     0.004 A 
ENDBRANCH   4  28
TORSDOF 7
ENDMDL
MODEL 2
REMARK VINA RESULT:      -2.5      1.108      3.316
REMARK  7 active torsions:
REMARK  status: ('A' for Active; 'I' for Inactive)
REMARK    1  A    between atoms: P_4  and  C_1 
REMARK    2  A    between atoms: N_7  and  C_3 
REMARK    3  A    between atoms: C_9  and  P_4 
REMARK    4  A    between atoms: C_10  and  P_4 
REMARK    5  A    between atoms: C_11  and  C_5 
REMARK    6  A    between atoms: C_12  and  N_7 
REMARK    7  A    between atoms: C_13  and  C_12 
ROOT
ATOM      1  C   UNL d   1     -40.578  14.084  20.972  0.00  0.00     0.161 A 
ATOM      2  N   UNL d   1     -41.142  13.607  21.351  0.00  0.00    -0.215 NA
ATOM      3  C   UNL d   1     -40.973  14.542  20.349  0.00  0.00     0.205 A 
ATOM      4  C   UNL d   1     -41.867  13.731  21.012  0.00  0.00     0.184 A 
ATOM      5  O   UNL d   1     -41.807  14.310  20.379  0.00  0.00    -0.270 OA
ENDROOT
BRANCH   1   6
ATOM      6  P   UNL d   1     -39.867  14.232  21.001  0.00  0.00     0.195 P 
ATOM      7  O   UNL d   1     -40.210  13.573  20.710  0.00  0.00    -0.305 OA
BRANCH   6   8
ATOM      8  C   UNL d   1     -39.218  13.775  20.748  0.00  0.00     0.038 A 
ATOM      9  C   UNL d   1     -38.886  13.227  21.255  0.00  0.00     0.004 A 
ATOM     10  C   UNL d   1     -38.243  12.774  21.004  0.00  0.00     0.000 A 
ATOM     11  C   UNL d   1     -37.944  12.877  20.251  0.00  0.00     0.000 A 
ATOM     12  C   UNL d   1     -38.276  13.425  19.744  0.00  0.00     0.000 A 
ATOM     13  C   UNL d   1     -38.919  13.878  19.994  0.00  0.00     0.004 A 
ENDBRANCH   6   8
BRANCH   6  14
ATOM     14  C   UNL d   1     -39.276  14.912  21.288  0.00  0.00     0.038 A 
ATOM     15  C   UNL d   1     -38.665  15.431  21.135  0.00  0.00     0.004 A 
ATOM     16  C   UNL d   1     -38.399  15.922  21.714  0.00  0.00     0.000 A 
ATOM     17  C   UNL d   1     -38.745  15.903  22.473  0.00  0.00     0.000 A 
ATOM     18  C   UNL d   1     -39.347  15.393  22.630  0.00  0.00     0.000 A 
ATOM     19  C   UNL d   1     -39.622  14.893  22.047  0.00  0.00     0.004 A 
ENDBRANCH   6  14
ENDBRANCH   1   6
BRANCH   3  20
ATOM     20  N   UNL d   1     -40.473  14.998  19.975  0.00  0.00    -0.219 NA
BRANCH  20  21
ATOM     21  C   UNL d   1     -40.357  15.709  19.562  0.00  0.00     0.101 C 
BRANCH  21  22
ATOM     22  C   UNL d   1     -40.523  15.765  18.772  0.00  0.00     0.019 A 
ATOM     23  C   UNL d   1     -39.913  15.758  18.211  0.00  0.00     0.002 A 
ATOM     24  C   UNL d   1     -40.099  15.818  17.389  0.00  0.00     0.000 A 
ATOM     25  C   UNL d   1     -40.881  15.884  17.137  0.00  0.00     0.000 A 
ATOM     26  C   UNL d   1     -41.506  15.892  17.714  0.00  0.00     0.000 A 
ATOM     27  C   UNL d   1     -41.318  15.832  18.531  0.00  0.00     0.002 A 
ENDBRANCH  21  22
ENDBRANCH  20  21
ENDBRANCH   3  20
BRANCH   4  28
ATOM     28  C   UNL d   1     -42.546  13.334  21.271  0.00  0.00     0.041 A 
ATOM     29  C   UNL d   1     -42.485  12.608  21.696  0.00  0.00     0.004 A 
ATOM     30  C   UNL d   1     -43.189  12.225  21.947  0.00  0.00     0.000 A 
ATOM     31  C   UNL d   1     -43.928  12.540  21.789  0.00  0.00     0.000 A 
ATOM     32  C   UNL d   1     -43.985  13.269  21.362  0.00  0.00     0.000 A 
ATOM     33  C   UNL d   1     -43.279  13.661  21.105  0.00  0.00     0.004 A 
ENDBRANCH   4  28
TORSDOF 7
ENDMDL
MODEL 3
REMARK VINA RESULT:      -1.3      1.208      4.131
REMARK  7 active torsions:
REMARK  status: ('A' for Active; 'I' for Inactive)
REMARK    1  A    between atoms: P_4  and  C_1 
REMARK    2  A    between atoms: N_7  and  C_3 
REMARK    3  A    between atoms: C_9  and  P_4 
REMARK    4  A    between atoms: C_10  and  P_4 
REMARK    5  A    between atoms: C_11  and  C_5 
REMARK    6  A    between atoms: C_12  and  N_7 
REMARK    7  A    between atoms: C_13  and  C_12 
ROOT
ATOM      1  C   UNL d   1     -39.917  14.664  19.240  0.00  0.00     0.161 A 
ATOM      2  N   UNL d   1     -40.439  15.098  18.762  0.00  0.00    -0.215 NA
ATOM      3  C   UNL d   1     -39.443  14.142  18.733  0.00  0.00     0.205 A 
ATOM      4  C   UNL d   1     -40.329  14.887  17.988  0.00  0.00     0.184 A 
ATOM      5  O   UNL d   1     -39.713  14.291  17.924  0.00  0.00    -0.270 OA
ENDROOT
BRANCH   1   6
ATOM      6  P   UNL d   1     -39.738  14.588  19.940  0.00  0.00     0.195 P 
ATOM      7  O   UNL d   1     -39.465  15.138  19.430  0.00  0.00    -0.305 OA
BRANCH   6   8
ATOM      8  C   UNL d   1     -39.212  15.037  20.406  0.00  0.00     0.038 A 
ATOM      9  C   UNL d   1     -39.453  15.314  21.136  0.00  0.00     0.004 A 
ATOM     10  C   UNL d   1     -38.932  15.759  21.596  0.00  0.00     0.000 A 
ATOM     11  C   UNL d   1     -38.181  15.918  21.319  0.00  0.00     0.000 A 
ATOM     12  C   UNL d   1     -37.940  15.641  20.589  0.00  0.00     0.000 A 
ATOM     13  C   UNL d   1     -38.460  15.197  20.128  0.00  0.00     0.004 A 
ENDBRANCH   6   8
BRANCH   6  14
ATOM     14  C   UNL d   1     -39.929  14.039  20.685  0.00  0.00     0.038 A 
ATOM     15  C   UNL d   1     -39.680  13.626  21.344  0.00  0.00     0.004 A 
ATOM     16  C   UNL d   1     -40.213  13.224  21.793  0.00  0.00     0.000 A 
ATOM     17  C   UNL d   1     -41.021  13.226  21.587  0.00  0.00     0.000 A 
ATOM     18  C   UNL d   1     -41.273  13.631  20.939  0.00  0.00     0.000 A 
ATOM     19  C   UNL d   1     -40.737  14.041  20.480  0.00  0.00     0.004 A 
ENDBRANCH   6  14
ENDBRANCH   1   6
BRANCH   3  20
ATOM     20  N   UNL d   1     -38.944  13.722  19.149  0.00  0.00    -0.219 NA
BRANCH  20  21
ATOM     21  C   UNL d   1     -38.303  13.194  19.138  0.00  0.00     0.101 C 
BRANCH  21  22
ATOM     22  C   UNL d   1     -38.208  12.663  18.534  0.00  0.00     0.019 A 
ATOM     23  C   UNL d   1     -38.037  12.922  17.767  0.00  0.00     0.002 A 
ATOM     24  C   UNL d   1     -37.941  12.357  17.146  0.00  0.00     0.000 A 
ATOM     25  C   UNL d   1     -38.015  11.550  17.294  0.00  0.00     0.000 A 
ATOM     26  C   UNL d   1     -38.190  11.285  18.083  0.00  0.00     0.000 A 
ATOM     27  C   UNL d   1     -38.286  11.849  18.699  0.00  0.00     0.002 A 
ENDBRANCH  21  22
ENDBRANCH  20  21
ENDBRANCH   3  20
BRANCH   4  28
ATOM     28  C   UNL d   1     -40.770  15.226  17.374  0.00  0.00     0.041 A 
ATOM     29  C   UNL d   1     -41.587  15.409  17.481  0.00  0.00     0.004 A 
ATOM     30  C   UNL d   1     -42.013  15.752  16.843  0.00  0.00     0.000 A 
ATOM     31  C   UNL d   1     -41.652  15.911  16.125  0.00  0.00     0.000 A 
ATOM     32  C   UNL d   1     -40.832  15.727  16.022  0.00  0.00     0.000 A 
ATOM     33  C   UNL d   1     -40.397  15.381  16.661  0.00  0.00     0.004 A 
ENDBRANCH   4  28
TORSDOF 7
ENDMDL
MODEL 4
REMARK VINA RESULT:      -1.1      0.792      3.151
REMARK  7 active torsions:
REMARK  status: ('A' for Active; 'I' for Inactive)
REMARK    1  A    between atoms: P_4  and  C_1 
REMARK    2  A    between atoms: N_7  and  C_3 
REMARK    3  A    between atoms: C_9  and  P_4 
REMARK    4  A    between atoms: C_10  and  P_4 
REMARK    5  A    between atoms: C_11  and  C_5 
REMARK    6  A    between atoms: C_12  and  N_7 
REMARK    7  A    between atoms: C_13  and  C_12 
ROOT
ATOM      1  C   UNL d   1     -39.172  14.443  20.059  0.00  0.00     0.161 A 
ATOM      2  N   UNL d   1     -38.657  14.694  20.659  0.00  0.00    -0.215 NA
ATOM      3  C   UNL d   1     -39.949  14.278  20.409  0.00  0.00     0.205 A 
ATOM      4  C   UNL d   1     -39.053  14.700  21.366  0.00  0.00     0.184 A 
ATOM      5  O   UNL d   1     -39.866  14.446  21.255  0.00  0.00    -0.270 OA
ENDROOT
BRANCH   1   6
ATOM      6  P   UNL d   1     -39.172  14.321  19.343  0.00  0.00     0.195 P 
ATOM      7  O   UNL d   1     -39.263  15.023  19.713  0.00  0.00    -0.305 OA
BRANCH   6   8
ATOM      8  C   UNL d   1     -39.264  14.859  18.712  0.00  0.00     0.038 A 
ATOM      9  C   UNL d   1     -40.012  15.044  18.443  0.00  0.00     0.004 A 
ATOM     10  C   UNL d   1     -40.103  15.576  17.819  0.00  0.00     0.000 A 
ATOM     11  C   UNL d   1     -39.444  15.914  17.476  0.00  0.00     0.000 A 
ATOM     12  C   UNL d   1     -38.694  15.730  17.745  0.00  0.00     0.000 A 
ATOM     13  C   UNL d   1     -38.604  15.197  18.369  0.00  0.00     0.004 A 
ENDBRANCH   6   8
BRANCH   6  14
ATOM     14  C   UNL d   1     -39.086  13.612  18.725  0.00  0.00     0.038 A 
ATOM     15  C   UNL d   1     -39.345  13.215  18.060  0.00  0.00     0.004 A 
ATOM     16  C   UNL d   1     -38.958  12.557  17.807  0.00  0.00     0.000 A 
ATOM     17  C   UNL d   1     -38.290  12.278  18.220  0.00  0.00     0.000 A 
ATOM     18  C   UNL d   1     -38.029  12.664  18.876  0.00  0.00     0.000 A 
ATOM     19  C   UNL d   1     -38.418  13.332  19.139  0.00  0.00     0.004 A 
ENDBRANCH   6  14
ENDBRANCH   1   6
BRANCH   3  20
ATOM     20  N   UNL d   1     -40.455  14.041  19.874  0.00  0.00    -0.219 NA
BRANCH  20  21
ATOM     21  C   UNL d   1     -41.250  13.889  19.690  0.00  0.00     0.101 C 
BRANCH  21  22
ATOM     22  C   UNL d   1     -41.782  13.688  20.266  0.00  0.00     0.019 A 
ATOM     23  C   UNL d   1     -41.671  13.007  20.724  0.00  0.00     0.002 A 
ATOM     24  C   UNL d   1     -42.234  12.808  21.322  0.00  0.00     0.000 A 
ATOM     25  C   UNL d   1     -42.894  13.283  21.455  0.00  0.00     0.000 A 
ATOM     26  C   UNL d   1     -43.007  13.981  20.983  0.00  0.00     0.000 A 
ATOM     27  C   UNL d   1     -42.446  14.177  20.389  0.00  0.00     0.002 A 
ENDBRANCH  21  22
ENDBRANCH  20  21
ENDBRANCH   3  20
BRANCH   4  28
ATOM     28  C   UNL d   1     -38.686  14.927  22.073  0.00  0.00     0.041 A 
ATOM     29  C   UNL d   1     -38.414  15.717  22.184  0.00  0.00     0.004 A 
ATOM     30  C   UNL d   1     -38.044  15.921  22.910  0.00  0.00     0.000 A 
ATOM     31  C   UNL d   1     -37.944  15.371  23.508  0.00  0.00     0.000 A 
ATOM     32  C   UNL d   1     -38.219  14.578  23.394  0.00  0.00     0.000 A 
ATOM     33  C   UNL d   1     -38.592  14.366  22.663  0.00  0.00     0.004 A 
ENDBRANCH   4  28
TORSDOF 7
ENDMDL
