MODEL 1
REMARK VINA RESULT:      10.4      0.000      0.000
REMARK  2 active torsions:
REMARK  status: ('A' for Active; 'I' for Inactive)
REMARK       I    between atoms: N_2  and  C_1 
REMARK    1  A    between atoms: C_6  and  C_1 
REMARK    2  A    between atoms: C_4  and  N_2 
ROOT
ATOM      1  C   UNL d   1      13.423  12.137  -2.445  0.00  0.00     0.279 C 
ATOM      2  N   UNL d   1      14.161  12.229  -2.096  0.00  0.00    -0.204 NA
ATOM      3  O   UNL d   1      12.775  11.891  -1.986  0.00  0.00    -0.265 OA
ENDROOT
BRANCH   1   4
ATOM      4  C   UNL d   1      13.321  12.287  -3.250  0.00  0.00     0.058 A 
ATOM      5  C   UNL d   1      12.882  11.783  -3.712  0.00  0.00     0.006 A 
ATOM      6  C   UNL d   1      12.779  11.934  -4.516  0.00  0.00     0.012 A 
ATOM      7  C   UNL d   1      13.115  12.589  -4.869  0.00  0.00     0.058 A 
ATOM      8  C   UNL d   1      13.573  13.117  -4.396  0.00  0.00     0.012 A 
ATOM      9 CL   UNL d   1      13.015  12.735  -5.652  0.00  0.00    -0.082 Cl
ATOM     10  C   UNL d   1      13.675  12.967  -3.592  0.00  0.00     0.006 A 
ENDBRANCH   1   4
BRANCH   2  11
ATOM     11  C   UNL d   1      14.255  12.075  -1.284  0.00  0.00     0.130 A 
ATOM     12  C   UNL d   1      14.955  12.077  -0.862  0.00  0.00     0.243 A 
ATOM     13  S   UNL d   1      14.783  11.896  -0.078  0.00  0.00    -0.044 SA
ATOM     14  O   UNL d   1      15.709  12.236  -1.176  0.00  0.00    -0.278 OA
ATOM     15  C   UNL d   1      13.964  11.780  -0.015  0.00  0.00     0.040 A 
ATOM     16  C   UNL d   1      13.635  11.891  -0.761  0.00  0.00     0.030 A 
ENDBRANCH   2  11
TORSDOF 2
ENDMDL
MODEL 2
REMARK VINA RESULT:      12.5     10.415     11.301
REMARK  2 active torsions:
REMARK  status: ('A' for Active; 'I' for Inactive)
REMARK       I    between atoms: N_2  and  C_1 
REMARK    1  A    between atoms: C_6  and  C_1 
REMARK    2  A    between atoms: C_4  and  N_2 
ROOT
ATOM      1  C   UNL d   1      24.248  12.441  -3.306  0.00  0.00     0.279 C 
ATOM      2  N   UNL d   1      24.688  12.911  -3.818  0.00  0.00    -0.204 NA
ATOM      3  O   UNL d   1      23.835  11.782  -3.600  0.00  0.00    -0.265 OA
ENDROOT
BRANCH   1   4
ATOM      4  C   UNL d   1      24.213  12.620  -2.501  0.00  0.00     0.058 A 
ATOM      5  C   UNL d   1      24.757  13.121  -2.166  0.00  0.00     0.006 A 
ATOM      6  C   UNL d   1      24.722  13.299  -1.361  0.00  0.00     0.012 A 
ATOM      7  C   UNL d   1      24.143  12.979  -0.882  0.00  0.00     0.058 A 
ATOM      8  C   UNL d   1      23.574  12.457  -1.224  0.00  0.00     0.012 A 
ATOM      9 CL   UNL d   1      24.110  13.152  -0.100  0.00  0.00    -0.082 Cl
ATOM     10  C   UNL d   1      23.609  12.279  -2.028  0.00  0.00     0.006 A 
ENDBRANCH   1   4
BRANCH   2  11
ATOM     11  C   UNL d   1      24.717  12.723  -4.627  0.00  0.00     0.130 A 
ATOM     12  C   UNL d   1      24.742  13.249  -5.252  0.00  0.00     0.243 A 
ATOM     13  S   UNL d   1      24.766  12.816  -5.952  0.00  0.00    -0.044 SA
ATOM     14  O   UNL d   1      24.743  14.079  -5.186  0.00  0.00    -0.278 OA
ATOM     15  C   UNL d   1      24.755  12.011  -5.755  0.00  0.00     0.040 A 
ATOM     16  C   UNL d   1      24.725  11.951  -4.935  0.00  0.00     0.030 A 
ENDBRANCH   2  11
TORSDOF 2
ENDMDL
