MODEL 1
REMARK VINA RESULT:      74.1      0.000      0.000
REMARK  10 active torsions:
REMARK  status: ('A' for Active; 'I' for Inactive)
REMARK    1  A    between atoms: C_18  and  N_1 
REMARK    2  A    between atoms: S_7  and  C_2 
REMARK       I    between atoms: C_6  and  N_14 
REMARK    3  A    between atoms: C_9  and  C_6 
REMARK    4  A    between atoms: C_15  and  S_7 
REMARK    5  A    between atoms: C_8  and  C_15 
REMARK       I    between atoms: N_10  and  C_8 
REMARK    6  A    between atoms: C_19  and  N_10 
REMARK    7  A    between atoms: N_14  and  C_25 
REMARK    8  A    between atoms: C_25  and  C_18 
REMARK    9  A    between atoms: C_23  and  C_19 
REMARK   10  A    between atoms: O_27  and  C_20 
ROOT
ATOM      1  N   UNL d   1     -55.129-101.734 -41.720  0.00  0.00    -0.302 N 
ATOM      2  C   UNL d   1     -54.881-101.078 -42.870  0.00  0.00     0.049 A 
ATOM      3  C   UNL d   1     -55.046-101.824 -42.545  0.00  0.00     0.087 A 
ATOM      4  C   UNL d   1     -54.862-100.526 -42.246  0.00  0.00     0.024 A 
ATOM      5  C   UNL d   1     -55.015-100.932 -41.538  0.00  0.00     0.065 A 
ATOM      6  C   UNL d   1     -54.725 -99.709 -42.229  0.00  0.00     0.002 A 
ATOM      7  C   UNL d   1     -55.031-100.526 -40.819  0.00  0.00     0.018 A 
ATOM      8  C   UNL d   1     -54.741 -99.306 -41.514  0.00  0.00     0.000 A 
ATOM      9  C   UNL d   1     -54.894 -99.712 -40.806  0.00  0.00     0.002 A 
ENDROOT
BRANCH   1  10
ATOM     10  C   UNL d   1     -55.295-102.336 -41.182  0.00  0.00     0.101 C 
BRANCH  10  11
ATOM     11  C   UNL d   1     -54.750-102.525 -40.595  0.00  0.00     0.121 C 
BRANCH  11  12
ATOM     12  N   UNL d   1     -55.008-102.677 -39.826  0.00  0.00    -0.205 NA
ATOM     13  C   UNL d   1     -54.996-102.079 -39.257  0.00  0.00     0.279 C 
ATOM     14  O   UNL d   1     -54.723-101.325 -39.461  0.00  0.00    -0.265 OA
BRANCH  13  15
ATOM     15  C   UNL d   1     -55.254-102.231 -38.489  0.00  0.00     0.058 A 
ATOM     16  C   UNL d   1     -54.779-102.685 -37.970  0.00  0.00     0.007 A 
ATOM     17  C   UNL d   1     -55.038-102.836 -37.202  0.00  0.00     0.024 A 
ATOM     18  C   UNL d   1     -55.769-102.533 -36.960  0.00  0.00     0.094 A 
ATOM     19  C   UNL d   1     -56.236-102.087 -37.468  0.00  0.00     0.024 A 
ATOM     20  C   UNL d   1     -55.975-101.938 -38.232  0.00  0.00     0.007 A 
BRANCH  18  21
ATOM     21  O   UNL d   1     -56.042-102.680 -36.181  0.00  0.00    -0.328 OA
ATOM     22  C   UNL d   1     -55.517-102.850 -35.566  0.00  0.00     0.181 C 
ENDBRANCH  18  21
ENDBRANCH  13  15
ENDBRANCH  11  12
ENDBRANCH  10  11
ENDBRANCH   1  10
BRANCH   2  23
ATOM     23  S   UNL d   1     -54.757-100.908 -43.668  0.00  0.00    -0.080 SA
BRANCH  23  24
ATOM     24  C   UNL d   1     -55.310-100.443 -44.075  0.00  0.00     0.098 C 
BRANCH  24  25
ATOM     25  C   UNL d   1     -56.104-100.665 -44.084  0.00  0.00     0.286 C 
ATOM     26  N   UNL d   1     -56.697-100.092 -44.087  0.00  0.00    -0.204 NA
ATOM     27  O   UNL d   1     -56.308-101.464 -44.090  0.00  0.00    -0.265 OA
BRANCH  26  28
ATOM     28  C   UNL d   1     -57.493-100.318 -44.096  0.00  0.00     0.127 C 
BRANCH  28  29
ATOM     29  C   UNL d   1     -58.072 -99.761 -44.215  0.00  0.00     0.119 A 
ATOM     30  O   UNL d   1     -58.430 -99.561 -44.926  0.00  0.00    -0.304 OA
ATOM     31  C   UNL d   1     -58.988 -98.968 -44.790  0.00  0.00     0.123 A 
ATOM     32  C   UNL d   1     -58.978 -98.794 -43.983  0.00  0.00     0.029 A 
ATOM     33  C   UNL d   1     -58.420 -99.278 -43.634  0.00  0.00     0.028 A 
ENDBRANCH  28  29
ENDBRANCH  26  28
ENDBRANCH  24  25
ENDBRANCH  23  24
ENDBRANCH   2  23
TORSDOF 10
ENDMDL
