MODEL 1
REMARK VINA RESULT:      -8.1      0.000      0.000
REMARK  6 active torsions:
REMARK  status: ('A' for Active; 'I' for Inactive)
REMARK    1  A    between atoms: C_2  and  S_1 
REMARK    2  A    between atoms: N_4  and  S_1 
REMARK    3  A    between atoms: C_12  and  N_4 
REMARK    4  A    between atoms: O_14  and  C_6 
REMARK    5  A    between atoms: C_13  and  C_12 
REMARK    6  A    between atoms: C_18  and  O_14 
ROOT
ATOM      1  C   UNL d   1      52.688  34.035  53.797  0.00  0.00     0.107 A 
ATOM      2  C   UNL d   1      52.888  33.234  53.747  0.00  0.00     0.038 A 
ATOM      3  C   UNL d   1      53.147  34.546  54.251  0.00  0.00     0.012 A 
ATOM      4  C   UNL d   1      53.554  32.946  54.157  0.00  0.00     0.101 A 
ATOM      5  C   UNL d   1      53.812  34.258  54.661  0.00  0.00     0.003 A 
ATOM      6  C   UNL d   1      54.014  33.461  54.613  0.00  0.00     0.023 A 
ATOM      7  C   UNL d   1      52.947  35.351  54.302  0.00  0.00     0.001 C 
ATOM      8  C   UNL d   1      54.673  33.175  55.018  0.00  0.00     0.002 C 
ENDROOT
BRANCH   1   9
ATOM      9  S   UNL d   1      52.029  34.321  53.391  0.00  0.00     0.285 S 
ATOM     10  O   UNL d   1      51.541  34.062  54.002  0.00  0.00    -0.198 OA
ATOM     11  O   UNL d   1      52.521  34.582  52.776  0.00  0.00    -0.198 OA
BRANCH   9  12
ATOM     12  N   UNL d   1      51.370  34.607  52.985  0.00  0.00    -0.155 NA
BRANCH  12  13
ATOM     13  C   UNL d   1      50.712  34.118  52.872  0.00  0.00     0.131 C 
BRANCH  13  14
ATOM     14  C   UNL d   1      50.053  34.404  52.466  0.00  0.00     0.101 A 
ATOM     15  N   UNL d   1      49.510  34.889  52.850  0.00  0.00    -0.242 NA
ATOM     16  C   UNL d   1      48.851  35.175  52.443  0.00  0.00     0.099 A 
ATOM     17  C   UNL d   1      48.736  34.974  51.653  0.00  0.00     0.021 A 
ATOM     18  C   UNL d   1      49.280  34.487  51.265  0.00  0.00     0.003 A 
ATOM     19  C   UNL d   1      49.939  34.202  51.671  0.00  0.00     0.021 A 
ENDBRANCH  13  14
ENDBRANCH  12  13
ENDBRANCH   9  12
ENDBRANCH   1   9
BRANCH   4  20
ATOM     20  O   UNL d   1      53.755  32.148  54.109  0.00  0.00    -0.305 OA
BRANCH  20  21
ATOM     21  C   UNL d   1      53.434  31.681  53.512  0.00  0.00     0.123 C 
ATOM     22  C   UNL d   1      53.558  30.866  53.518  0.00  0.00     0.029 C 
ENDBRANCH  20  21
ENDBRANCH   4  20
TORSDOF 6
ENDMDL
MODEL 2
REMARK VINA RESULT:      -7.8      1.827      4.140
REMARK  6 active torsions:
REMARK  status: ('A' for Active; 'I' for Inactive)
REMARK    1  A    between atoms: C_2  and  S_1 
REMARK    2  A    between atoms: N_4  and  S_1 
REMARK    3  A    between atoms: C_12  and  N_4 
REMARK    4  A    between atoms: O_14  and  C_6 
REMARK    5  A    between atoms: C_13  and  C_12 
REMARK    6  A    between atoms: C_18  and  O_14 
ROOT
ATOM      1  C   UNL d   1      53.500  33.351  54.174  0.00  0.00     0.107 A 
ATOM      2  C   UNL d   1      52.835  33.661  53.792  0.00  0.00     0.038 A 
ATOM      3  C   UNL d   1      53.996  33.849  54.604  0.00  0.00     0.012 A 
ATOM      4  C   UNL d   1      52.667  34.475  53.843  0.00  0.00     0.101 A 
ATOM      5  C   UNL d   1      53.827  34.663  54.655  0.00  0.00     0.003 A 
ATOM      6  C   UNL d   1      53.166  34.973  54.276  0.00  0.00     0.023 A 
ATOM      7  C   UNL d   1      54.665  33.540  54.988  0.00  0.00     0.001 C 
ATOM      8  C   UNL d   1      52.999  35.779  54.327  0.00  0.00     0.002 C 
ENDROOT
BRANCH   1   9
ATOM      9  S   UNL d   1      53.667  32.545  54.123  0.00  0.00     0.285 S 
ATOM     10  O   UNL d   1      53.310  32.425  54.856  0.00  0.00    -0.198 OA
ATOM     11  O   UNL d   1      54.026  32.665  53.384  0.00  0.00    -0.198 OA
BRANCH   9  12
ATOM     12  N   UNL d   1      53.833  31.738  54.072  0.00  0.00    -0.155 NA
BRANCH  12  13
ATOM     13  C   UNL d   1      53.524  31.293  53.448  0.00  0.00     0.131 C 
BRANCH  13  14
ATOM     14  C   UNL d   1      53.335  30.498  53.564  0.00  0.00     0.101 A 
ATOM     15  N   UNL d   1      53.714  30.066  54.155  0.00  0.00    -0.242 NA
ATOM     16  C   UNL d   1      53.524  29.271  54.272  0.00  0.00     0.099 A 
ATOM     17  C   UNL d   1      52.957  28.909  53.797  0.00  0.00     0.021 A 
ATOM     18  C   UNL d   1      52.576  29.340  53.204  0.00  0.00     0.003 A 
ATOM     19  C   UNL d   1      52.765  30.135  53.087  0.00  0.00     0.021 A 
ENDBRANCH  13  14
ENDBRANCH  12  13
ENDBRANCH   9  12
ENDBRANCH   1   9
BRANCH   4  20
ATOM     20  O   UNL d   1      52.004  34.785  53.463  0.00  0.00    -0.305 OA
BRANCH  20  21
ATOM     21  C   UNL d   1      51.468  34.278  53.097  0.00  0.00     0.123 C 
ATOM     22  C   UNL d   1      50.782  34.583  52.759  0.00  0.00     0.029 C 
ENDBRANCH  20  21
ENDBRANCH   4  20
TORSDOF 6
ENDMDL
MODEL 3
REMARK VINA RESULT:      -7.3      1.923      3.925
REMARK  6 active torsions:
REMARK  status: ('A' for Active; 'I' for Inactive)
REMARK    1  A    between atoms: C_2  and  S_1 
REMARK    2  A    between atoms: N_4  and  S_1 
REMARK    3  A    between atoms: C_12  and  N_4 
REMARK    4  A    between atoms: O_14  and  C_6 
REMARK    5  A    between atoms: C_13  and  C_12 
REMARK    6  A    between atoms: C_18  and  O_14 
ROOT
ATOM      1  C   UNL d   1      52.765  33.408  53.479  0.00  0.00     0.107 A 
ATOM      2  C   UNL d   1      53.360  33.592  54.024  0.00  0.00     0.038 A 
ATOM      3  C   UNL d   1      52.288  34.006  53.174  0.00  0.00     0.012 A 
ATOM      4  C   UNL d   1      53.475  34.381  54.263  0.00  0.00     0.101 A 
ATOM      5  C   UNL d   1      52.403  34.795  53.414  0.00  0.00     0.003 A 
ATOM      6  C   UNL d   1      52.994  34.980  53.956  0.00  0.00     0.023 A 
ATOM      7  C   UNL d   1      51.690  33.823  52.627  0.00  0.00     0.001 C 
ATOM      8  C   UNL d   1      53.108  35.762  54.193  0.00  0.00     0.002 C 
ENDROOT
BRANCH   1   9
ATOM      9  S   UNL d   1      52.651  32.626  53.242  0.00  0.00     0.285 S 
ATOM     10  O   UNL d   1      52.044  32.547  53.794  0.00  0.00    -0.198 OA
ATOM     11  O   UNL d   1      53.261  32.706  52.685  0.00  0.00    -0.198 OA
BRANCH   9  12
ATOM     12  N   UNL d   1      52.537  31.844  53.005  0.00  0.00    -0.155 NA
BRANCH  12  13
ATOM     13  C   UNL d   1      53.170  31.312  53.020  0.00  0.00     0.131 C 
BRANCH  13  14
ATOM     14  C   UNL d   1      53.040  30.525  53.229  0.00  0.00     0.101 A 
ATOM     15  N   UNL d   1      52.462  30.084  52.840  0.00  0.00    -0.242 NA
ATOM     16  C   UNL d   1      52.333  29.297  53.049  0.00  0.00     0.099 A 
ATOM     17  C   UNL d   1      52.781  28.950  53.646  0.00  0.00     0.021 A 
ATOM     18  C   UNL d   1      53.362  29.389  54.037  0.00  0.00     0.003 A 
ATOM     19  C   UNL d   1      53.492  30.177  53.829  0.00  0.00     0.021 A 
ENDBRANCH  13  14
ENDBRANCH  12  13
ENDBRANCH   9  12
ENDBRANCH   1   9
BRANCH   4  20
ATOM     20  O   UNL d   1      54.067  34.566  54.806  0.00  0.00    -0.305 OA
BRANCH  20  21
ATOM     21  C   UNL d   1      54.528  33.966  55.129  0.00  0.00     0.123 C 
ATOM     22  C   UNL d   1      55.256  34.147  55.468  0.00  0.00     0.029 C 
ENDBRANCH  20  21
ENDBRANCH   4  20
TORSDOF 6
ENDMDL
MODEL 4
REMARK VINA RESULT:      -6.6      1.056      2.083
REMARK  6 active torsions:
REMARK  status: ('A' for Active; 'I' for Inactive)
REMARK    1  A    between atoms: C_2  and  S_1 
REMARK    2  A    between atoms: N_4  and  S_1 
REMARK    3  A    between atoms: C_12  and  N_4 
REMARK    4  A    between atoms: O_14  and  C_6 
REMARK    5  A    between atoms: C_13  and  C_12 
REMARK    6  A    between atoms: C_18  and  O_14 
ROOT
ATOM      1  C   UNL d   1      52.018  33.650  53.268  0.00  0.00     0.107 A 
ATOM      2  C   UNL d   1      52.350  34.279  53.691  0.00  0.00     0.038 A 
ATOM      3  C   UNL d   1      52.392  32.916  53.264  0.00  0.00     0.012 A 
ATOM      4  C   UNL d   1      53.061  34.170  54.111  0.00  0.00     0.101 A 
ATOM      5  C   UNL d   1      53.103  32.807  53.683  0.00  0.00     0.003 A 
ATOM      6  C   UNL d   1      53.435  33.431  54.104  0.00  0.00     0.023 A 
ATOM      7  C   UNL d   1      52.060  32.283  52.840  0.00  0.00     0.001 C 
ATOM      8  C   UNL d   1      54.139  33.323  54.520  0.00  0.00     0.002 C 
ENDROOT
BRANCH   1   9
ATOM      9  S   UNL d   1      51.314  33.758  52.853  0.00  0.00     0.285 S 
ATOM     10  O   UNL d   1      50.889  33.473  53.498  0.00  0.00    -0.198 OA
ATOM     11  O   UNL d   1      51.742  34.046  52.202  0.00  0.00    -0.198 OA
BRANCH   9  12
ATOM     12  N   UNL d   1      50.610  33.867  52.437  0.00  0.00    -0.155 NA
BRANCH  12  13
ATOM     13  C   UNL d   1      50.183  34.570  52.525  0.00  0.00     0.131 C 
BRANCH  13  14
ATOM     14  C   UNL d   1      49.499  34.694  52.081  0.00  0.00     0.101 A 
ATOM     15  N   UNL d   1      49.452  34.414  51.308  0.00  0.00    -0.242 NA
ATOM     16  C   UNL d   1      48.768  34.538  50.864  0.00  0.00     0.099 A 
ATOM     17  C   UNL d   1      48.131  34.943  51.193  0.00  0.00     0.021 A 
ATOM     18  C   UNL d   1      48.176  35.226  51.969  0.00  0.00     0.003 A 
ATOM     19  C   UNL d   1      48.860  35.102  52.413  0.00  0.00     0.021 A 
ENDBRANCH  13  14
ENDBRANCH  12  13
ENDBRANCH   9  12
ENDBRANCH   1   9
BRANCH   4  20
ATOM     20  O   UNL d   1      53.393  34.795  54.532  0.00  0.00    -0.305 OA
BRANCH  20  21
ATOM     21  C   UNL d   1      53.005  35.521  54.559  0.00  0.00     0.123 C 
ATOM     22  C   UNL d   1      53.403  36.188  54.835  0.00  0.00     0.029 C 
ENDBRANCH  20  21
ENDBRANCH   4  20
TORSDOF 6
ENDMDL
