MODEL 1
REMARK VINA RESULT:      54.3      0.000      0.000
REMARK  1 active torsions:
REMARK  status: ('A' for Active; 'I' for Inactive)
REMARK    1  A    between atoms: C_11  and  N_5 
ROOT
ATOM      1  C   UNL d   1      58.825  49.599  50.985  0.00  0.00     0.130 A 
ATOM      2  C   UNL d   1      58.988  49.633  50.176  0.00  0.00     0.157 A 
ATOM      3  N   UNL d   1      59.761  49.664  49.912  0.00  0.00    -0.210 NA
ATOM      4  C   UNL d   1      59.442  49.596  51.532  0.00  0.00     0.272 A 
ATOM      5  N   UNL d   1      60.220  49.627  51.270  0.00  0.00    -0.259 N 
ATOM      6  C   UNL d   1      58.043  49.568  51.246  0.00  0.00     0.204 A 
ATOM      7  N   UNL d   1      58.370  49.635  49.637  0.00  0.00    -0.289 N 
ATOM      8  C   UNL d   1      60.386  49.661  50.461  0.00  0.00     0.152 A 
ATOM      9  C   UNL d   1      57.434  49.571  50.708  0.00  0.00     0.055 A 
ATOM     10  C   UNL d   1      57.591  49.604  49.903  0.00  0.00     0.069 A 
ATOM     11  O   UNL d   1      59.278  49.563  52.336  0.00  0.00    -0.266 OA
ATOM     12  O   UNL d   1      57.887  49.535  52.052  0.00  0.00    -0.286 OA
ATOM     13  C   UNL d   1      58.526  49.669  48.830  0.00  0.00     0.101 C 
ATOM     14  C   UNL d   1      61.165  49.692  50.196  0.00  0.00     0.041 C 
ATOM     15  C   UNL d   1      56.651  49.540  50.974  0.00  0.00     0.005 A 
ATOM     16  C   UNL d   1      56.966  49.607  49.354  0.00  0.00     0.018 A 
ATOM     17  C   UNL d   1      56.035  49.542  50.427  0.00  0.00     0.000 A 
ATOM     18  C   UNL d   1      56.192  49.576  49.622  0.00  0.00     0.002 A 
ENDROOT
BRANCH   5  19
ATOM     19  C   UNL d   1      60.835  49.624  51.820  0.00  0.00     0.068 A 
ATOM     20  C   UNL d   1      60.674  49.670  52.633  0.00  0.00     0.020 A 
ATOM     21  C   UNL d   1      61.290  49.667  53.184  0.00  0.00     0.031 A 
ATOM     22  C   UNL d   1      62.074  49.618  52.933  0.00  0.00     0.140 A 
ATOM     23  C   UNL d   1      62.244  49.572  52.117  0.00  0.00     0.031 A 
ATOM     24  F   UNL d   1      62.693  49.615  53.484  0.00  0.00    -0.204 F 
ATOM     25  C   UNL d   1      61.620  49.575  51.565  0.00  0.00     0.020 A 
ENDBRANCH   5  19
TORSDOF 1
ENDMDL
