MODEL 1
REMARK VINA RESULT:      -4.6      0.000      0.000
REMARK  6 active torsions:
REMARK  status: ('A' for Active; 'I' for Inactive)
REMARK    1  A    between atoms: C_7  and  C_3 
REMARK    2  A    between atoms: C_6  and  O_14 
REMARK    3  A    between atoms: S_8  and  C_7 
REMARK    4  A    between atoms: C_17  and  S_8 
REMARK    5  A    between atoms: O_14  and  C_18 
REMARK    6  A    between atoms: C_18  and  C_17 
ROOT
ATOM      1  S   UNL d   1      58.025  -0.671  30.511  0.00  0.00    -0.081 SA
ENDROOT
BRANCH   1   2
ATOM      2  C   UNL d   1      57.538  -0.155  30.927  0.00  0.00     0.074 C 
BRANCH   2   3
ATOM      3  C   UNL d   1      57.038  -0.446  31.512  0.00  0.00     0.169 A 
ATOM      4  N   UNL d   1      56.658  -1.041  31.962  0.00  0.00    -0.225 NA
ATOM      5  C   UNL d   1      56.169  -0.665  32.528  0.00  0.00     0.101 A 
ATOM      6  C   UNL d   1      56.252   0.157  32.422  0.00  0.00     0.101 A 
ATOM      7  C   UNL d   1      55.661  -0.947  33.122  0.00  0.00     0.021 A 
ATOM      8  N   UNL d   1      56.787   0.300  31.797  0.00  0.00    -0.225 NA
ATOM      9  C   UNL d   1      55.827   0.681  32.911  0.00  0.00     0.021 A 
ATOM     10  C   UNL d   1      55.333   0.389  33.491  0.00  0.00     0.002 A 
ATOM     11  C   UNL d   1      55.250  -0.425  33.596  0.00  0.00     0.002 A 
ENDBRANCH   2   3
ENDBRANCH   1   2
BRANCH   1  12
ATOM     12  C   UNL d   1      58.402  -0.416  29.825  0.00  0.00     0.062 C 
BRANCH  12  13
ATOM     13  C   UNL d   1      58.951  -0.904  29.451  0.00  0.00     0.130 C 
BRANCH  13  14
ATOM     14  O   UNL d   1      59.263  -0.678  28.721  0.00  0.00    -0.305 OA
BRANCH  14  15
ATOM     15  C   UNL d   1      59.728  -1.360  28.724  0.00  0.00     0.100 A 
ATOM     16  C   UNL d   1      60.497  -1.329  28.994  0.00  0.00     0.025 A 
ATOM     17  C   UNL d   1      60.965  -2.009  28.998  0.00  0.00     0.002 A 
ATOM     18  C   UNL d   1      60.655  -2.719  28.729  0.00  0.00     0.000 A 
ATOM     19  C   UNL d   1      59.874  -2.748  28.456  0.00  0.00     0.002 A 
ATOM     20  C   UNL d   1      61.119  -3.401  28.732  0.00  0.00     0.000 C 
ATOM     21  C   UNL d   1      59.413  -2.064  28.455  0.00  0.00     0.025 A 
ENDBRANCH  14  15
ENDBRANCH  13  14
ENDBRANCH  12  13
ENDBRANCH   1  12
TORSDOF 6
ENDMDL
MODEL 2
REMARK VINA RESULT:      -3.5      8.682      9.721
REMARK  6 active torsions:
REMARK  status: ('A' for Active; 'I' for Inactive)
REMARK    1  A    between atoms: C_7  and  C_3 
REMARK    2  A    between atoms: C_6  and  O_14 
REMARK    3  A    between atoms: S_8  and  C_7 
REMARK    4  A    between atoms: C_17  and  S_8 
REMARK    5  A    between atoms: O_14  and  C_18 
REMARK    6  A    between atoms: C_18  and  C_17 
ROOT
ATOM      1  S   UNL d   1      58.768  -9.580  33.330  0.00  0.00    -0.081 SA
ENDROOT
BRANCH   1   2
ATOM      2  C   UNL d   1      58.865  -9.694  32.521  0.00  0.00     0.074 C 
BRANCH   2   3
ATOM      3  C   UNL d   1      58.207  -9.722  32.029  0.00  0.00     0.169 A 
ATOM      4  N   UNL d   1      57.388  -9.744  31.853  0.00  0.00    -0.225 NA
ATOM      5  C   UNL d   1      57.304  -9.769  31.019  0.00  0.00     0.101 A 
ATOM      6  C   UNL d   1      58.069  -9.762  30.691  0.00  0.00     0.101 A 
ATOM      7  C   UNL d   1      56.646  -9.797  30.513  0.00  0.00     0.021 A 
ATOM      8  N   UNL d   1      58.632  -9.733  31.307  0.00  0.00    -0.225 NA
ATOM      9  C   UNL d   1      58.163  -9.784  29.863  0.00  0.00     0.021 A 
ATOM     10  C   UNL d   1      57.508  -9.811  29.378  0.00  0.00     0.002 A 
ATOM     11  C   UNL d   1      56.749  -9.818  29.703  0.00  0.00     0.002 A 
ENDBRANCH   2   3
ENDBRANCH   1   2
BRANCH   1  12
ATOM     12  C   UNL d   1      59.414  -9.655  33.835  0.00  0.00     0.062 C 
BRANCH  12  13
ATOM     13  C   UNL d   1      59.488  -9.153  34.484  0.00  0.00     0.130 C 
BRANCH  13  14
ATOM     14  O   UNL d   1      59.644  -9.473  35.228  0.00  0.00    -0.305 OA
BRANCH  14  15
ATOM     15  C   UNL d   1      59.841  -8.719  35.497  0.00  0.00     0.100 A 
ATOM     16  C   UNL d   1      60.583  -8.413  35.350  0.00  0.00     0.025 A 
ATOM     17  C   UNL d   1      60.784  -7.659  35.618  0.00  0.00     0.002 A 
ATOM     18  C   UNL d   1      60.235  -7.214  36.034  0.00  0.00     0.000 A 
ATOM     19  C   UNL d   1      59.483  -7.526  36.182  0.00  0.00     0.002 A 
ATOM     20  C   UNL d   1      60.432  -6.459  36.304  0.00  0.00     0.000 C 
ATOM     21  C   UNL d   1      59.290  -8.281  35.911  0.00  0.00     0.025 A 
ENDBRANCH  14  15
ENDBRANCH  13  14
ENDBRANCH  12  13
ENDBRANCH   1  12
TORSDOF 6
ENDMDL
MODEL 3
REMARK VINA RESULT:      -3.2      1.611      5.668
REMARK  6 active torsions:
REMARK  status: ('A' for Active; 'I' for Inactive)
REMARK    1  A    between atoms: C_7  and  C_3 
REMARK    2  A    between atoms: C_6  and  O_14 
REMARK    3  A    between atoms: S_8  and  C_7 
REMARK    4  A    between atoms: C_17  and  S_8 
REMARK    5  A    between atoms: O_14  and  C_18 
REMARK    6  A    between atoms: C_18  and  C_17 
ROOT
ATOM      1  S   UNL d   1      57.888   0.463  30.836  0.00  0.00    -0.081 SA
ENDROOT
BRANCH   1   2
ATOM      2  C   UNL d   1      58.066   0.240  30.064  0.00  0.00     0.074 C 
BRANCH   2   3
ATOM      3  C   UNL d   1      58.851   0.198  29.820  0.00  0.00     0.169 A 
ATOM      4  N   UNL d   1      59.636   0.473  29.734  0.00  0.00    -0.225 NA
ATOM      5  C   UNL d   1      60.071  -0.112  29.319  0.00  0.00     0.101 A 
ATOM      6  C   UNL d   1      59.548  -0.740  29.155  0.00  0.00     0.101 A 
ATOM      7  C   UNL d   1      60.861  -0.166  29.068  0.00  0.00     0.021 A 
ATOM      8  N   UNL d   1      58.794  -0.556  29.461  0.00  0.00    -0.225 NA
ATOM      9  C   UNL d   1      59.826  -1.409  28.742  0.00  0.00     0.021 A 
ATOM     10  C   UNL d   1      60.604  -1.447  28.502  0.00  0.00     0.002 A 
ATOM     11  C   UNL d   1      61.122  -0.826  28.665  0.00  0.00     0.002 A 
ENDBRANCH   2   3
ENDBRANCH   1   2
BRANCH   1  12
ATOM     12  C   UNL d   1      57.106   0.462  31.094  0.00  0.00     0.062 C 
BRANCH  12  13
ATOM     13  C   UNL d   1      56.932   0.284  31.878  0.00  0.00     0.130 C 
BRANCH  13  14
ATOM     14  O   UNL d   1      56.728  -0.489  32.082  0.00  0.00    -0.305 OA
BRANCH  14  15
ATOM     15  C   UNL d   1      56.341  -0.197  32.750  0.00  0.00     0.100 A 
ATOM     16  C   UNL d   1      56.753   0.236  33.305  0.00  0.00     0.025 A 
ATOM     17  C   UNL d   1      56.370   0.530  33.974  0.00  0.00     0.002 A 
ATOM     18  C   UNL d   1      55.569   0.385  34.082  0.00  0.00     0.000 A 
ATOM     19  C   UNL d   1      55.153  -0.055  33.517  0.00  0.00     0.002 A 
ATOM     20  C   UNL d   1      55.181   0.677  34.749  0.00  0.00     0.000 C 
ATOM     21  C   UNL d   1      55.544  -0.345  32.851  0.00  0.00     0.025 A 
ENDBRANCH  14  15
ENDBRANCH  13  14
ENDBRANCH  12  13
ENDBRANCH   1  12
TORSDOF 6
ENDMDL
MODEL 4
REMARK VINA RESULT:      -2.0      1.778      5.831
REMARK  6 active torsions:
REMARK  status: ('A' for Active; 'I' for Inactive)
REMARK    1  A    between atoms: C_7  and  C_3 
REMARK    2  A    between atoms: C_6  and  O_14 
REMARK    3  A    between atoms: S_8  and  C_7 
REMARK    4  A    between atoms: C_17  and  S_8 
REMARK    5  A    between atoms: O_14  and  C_18 
REMARK    6  A    between atoms: C_18  and  C_17 
ROOT
ATOM      1  S   UNL d   1      57.307   0.453  31.613  0.00  0.00    -0.081 SA
ENDROOT
BRANCH   1   2
ATOM      2  C   UNL d   1      57.967   0.460  31.122  0.00  0.00     0.074 C 
BRANCH   2   3
ATOM      3  C   UNL d   1      58.079  -0.146  30.578  0.00  0.00     0.169 A 
ATOM      4  N   UNL d   1      57.880  -0.849  30.170  0.00  0.00    -0.225 NA
ATOM      5  C   UNL d   1      58.494  -1.015  29.624  0.00  0.00     0.101 A 
ATOM      6  C   UNL d   1      59.065  -0.413  29.702  0.00  0.00     0.101 A 
ATOM      7  C   UNL d   1      58.618  -1.622  29.071  0.00  0.00     0.021 A 
ATOM      8  N   UNL d   1      58.817   0.127  30.288  0.00  0.00    -0.225 NA
ATOM      9  C   UNL d   1      59.748  -0.429  29.225  0.00  0.00     0.021 A 
ATOM     10  C   UNL d   1      59.856  -1.032  28.686  0.00  0.00     0.002 A 
ATOM     11  C   UNL d   1      59.291  -1.628  28.609  0.00  0.00     0.002 A 
ENDBRANCH   2   3
ENDBRANCH   1   2
BRANCH   1  12
ATOM     12  C   UNL d   1      57.394   0.593  32.420  0.00  0.00     0.062 C 
BRANCH  12  13
ATOM     13  C   UNL d   1      56.815   0.337  32.947  0.00  0.00     0.130 C 
BRANCH  13  14
ATOM     14  O   UNL d   1      57.000   0.260  33.747  0.00  0.00    -0.305 OA
BRANCH  14  15
ATOM     15  C   UNL d   1      56.202   0.365  33.928  0.00  0.00     0.100 A 
ATOM     16  C   UNL d   1      55.634   0.259  33.353  0.00  0.00     0.025 A 
ATOM     17  C   UNL d   1      54.835   0.364  33.530  0.00  0.00     0.002 A 
ATOM     18  C   UNL d   1      54.610   0.575  34.291  0.00  0.00     0.000 A 
ATOM     19  C   UNL d   1      55.189   0.682  34.874  0.00  0.00     0.002 A 
ATOM     20  C   UNL d   1      53.813   0.681  34.473  0.00  0.00     0.000 C 
ATOM     21  C   UNL d   1      55.986   0.576  34.687  0.00  0.00     0.025 A 
ENDBRANCH  14  15
ENDBRANCH  13  14
ENDBRANCH  12  13
ENDBRANCH   1  12
TORSDOF 6
ENDMDL
