MODEL 1
REMARK VINA RESULT:      63.0      0.000      0.000
REMARK  6 active torsions:
REMARK  status: ('A' for Active; 'I' for Inactive)
REMARK    1  A    between atoms: N_6  and  C_1 
REMARK    2  A    between atoms: C_3  and  N_6 
REMARK    3  A    between atoms: N_4  and  C_3 
REMARK       I    between atoms: C_9  and  N_4 
REMARK    4  A    between atoms: C_12  and  C_9 
REMARK    5  A    between atoms: C_10  and  C_13 
REMARK    6  A    between atoms: O_20  and  C_10 
ROOT
ATOM      1  N   UNL d   1     -48.462  28.459  35.087  0.00  0.00    -0.179 NA
ATOM      2  C   UNL d   1     -47.855  28.910  35.428  0.00  0.00     0.281 C 
ATOM      3  O   UNL d   1     -47.339  28.566  35.969  0.00  0.00    -0.265 OA
ENDROOT
BRANCH   1   4
ATOM      4  C   UNL d   1     -48.977  28.804  34.546  0.00  0.00     0.225 C 
ATOM      5  S   UNL d   1     -49.402  29.477  34.755  0.00  0.00    -0.037 SA
BRANCH   4   6
ATOM      6  N   UNL d   1     -49.070  28.471  33.787  0.00  0.00    -0.192 NA
BRANCH   6   7
ATOM      7  C   UNL d   1     -49.582  27.827  33.679  0.00  0.00     0.196 A 
ATOM      8  N   UNL d   1     -49.353  27.039  33.650  0.00  0.00    -0.221 NA
ATOM      9  C   UNL d   1     -50.036  26.582  33.535  0.00  0.00     0.090 A 
ATOM     10  C   UNL d   1     -50.150  25.762  33.462  0.00  0.00     0.020 A 
ATOM     11  C   UNL d   1     -50.680  27.094  33.493  0.00  0.00     0.050 A 
ATOM     12  C   UNL d   1     -50.911  25.462  33.349  0.00  0.00     0.002 A 
ATOM     13  C   UNL d   1     -51.557  25.982  33.308  0.00  0.00     0.001 A 
ATOM     14  C   UNL d   1     -51.440  26.794  33.380  0.00  0.00     0.008 A 
ATOM     15  S   UNL d   1     -50.389  27.871  33.584  0.00  0.00    -0.047 SA
ENDBRANCH   6   7
ENDBRANCH   4   6
ENDBRANCH   1   4
BRANCH   2  16
ATOM     16  C   UNL d   1     -47.767  29.703  35.225  0.00  0.00     0.058 A 
ATOM     17  C   UNL d   1     -47.726  29.922  34.433  0.00  0.00     0.005 A 
ATOM     18  C   UNL d   1     -47.637  30.721  34.225  0.00  0.00     0.005 A 
ATOM     19  C   UNL d   1     -47.590  31.296  34.815  0.00  0.00     0.063 A 
ATOM     20  C   UNL d   1     -47.632  31.070  35.613  0.00  0.00     0.005 A 
ATOM     21  C   UNL d   1     -47.720  30.278  35.816  0.00  0.00     0.005 A 
BRANCH  19  22
ATOM     22  C   UNL d   1     -47.501  32.101  34.618  0.00  0.00     0.296 C 
ATOM     23  O   UNL d   1     -46.882  32.545  34.934  0.00  0.00    -0.259 OA
BRANCH  22  24
ATOM     24  O   UNL d   1     -48.040  32.451  34.103  0.00  0.00    -0.296 OA
ATOM     25  C   UNL d   1     -47.801  33.079  33.615  0.00  0.00     0.185 C 
ENDBRANCH  22  24
ENDBRANCH  19  22
ENDBRANCH   2  16
TORSDOF 6
ENDMDL
MODEL 2
REMARK VINA RESULT:      63.1      2.345      5.613
REMARK  6 active torsions:
REMARK  status: ('A' for Active; 'I' for Inactive)
REMARK    1  A    between atoms: N_6  and  C_1 
REMARK    2  A    between atoms: C_3  and  N_6 
REMARK    3  A    between atoms: N_4  and  C_3 
REMARK       I    between atoms: C_9  and  N_4 
REMARK    4  A    between atoms: C_12  and  C_9 
REMARK    5  A    between atoms: C_10  and  C_13 
REMARK    6  A    between atoms: O_20  and  C_10 
ROOT
ATOM      1  N   UNL d   1     -48.793  26.913  33.741  0.00  0.00    -0.179 NA
ATOM      2  C   UNL d   1     -48.987  26.125  33.568  0.00  0.00     0.281 C 
ATOM      3  O   UNL d   1     -48.392  25.581  33.403  0.00  0.00    -0.265 OA
ENDROOT
BRANCH   1   4
ATOM      4  C   UNL d   1     -49.389  27.457  33.907  0.00  0.00     0.225 C 
ATOM      5  S   UNL d   1     -49.944  27.645  33.330  0.00  0.00    -0.037 SA
BRANCH   4   6
ATOM      6  N   UNL d   1     -49.428  27.816  34.658  0.00  0.00    -0.192 NA
BRANCH   6   7
ATOM      7  C   UNL d   1     -48.892  28.418  34.856  0.00  0.00     0.196 A 
ATOM      8  N   UNL d   1     -48.260  28.339  35.373  0.00  0.00    -0.221 NA
ATOM      9  C   UNL d   1     -47.870  29.072  35.410  0.00  0.00     0.090 A 
ATOM     10  C   UNL d   1     -47.203  29.326  35.835  0.00  0.00     0.020 A 
ATOM     11  C   UNL d   1     -48.268  29.596  34.913  0.00  0.00     0.050 A 
ATOM     12  C   UNL d   1     -46.939  30.104  35.758  0.00  0.00     0.002 A 
ATOM     13  C   UNL d   1     -47.343  30.628  35.256  0.00  0.00     0.001 A 
ATOM     14  C   UNL d   1     -48.004  30.373  34.836  0.00  0.00     0.008 A 
ATOM     15  S   UNL d   1     -48.905  29.181  34.570  0.00  0.00    -0.047 SA
ENDBRANCH   6   7
ENDBRANCH   4   6
ENDBRANCH   1   4
BRANCH   2  16
ATOM     16  C   UNL d   1     -49.775  25.886  33.562  0.00  0.00     0.058 A 
ATOM     17  C   UNL d   1     -50.364  26.409  33.802  0.00  0.00     0.005 A 
ATOM     18  C   UNL d   1     -51.160  26.171  33.797  0.00  0.00     0.005 A 
ATOM     19  C   UNL d   1     -51.359  25.409  33.551  0.00  0.00     0.063 A 
ATOM     20  C   UNL d   1     -50.761  24.885  33.310  0.00  0.00     0.005 A 
ATOM     21  C   UNL d   1     -49.974  25.124  33.316  0.00  0.00     0.005 A 
BRANCH  19  22
ATOM     22  C   UNL d   1     -52.154  25.159  33.542  0.00  0.00     0.296 C 
ATOM     23  O   UNL d   1     -52.767  25.710  33.507  0.00  0.00    -0.259 OA
BRANCH  22  24
ATOM     24  O   UNL d   1     -52.322  24.354  33.568  0.00  0.00    -0.296 OA
ATOM     25  C   UNL d   1     -53.059  24.074  33.306  0.00  0.00     0.185 C 
ENDBRANCH  22  24
ENDBRANCH  19  22
ENDBRANCH   2  16
TORSDOF 6
ENDMDL
MODEL 3
REMARK VINA RESULT:      65.7      0.946      1.167
REMARK  6 active torsions:
REMARK  status: ('A' for Active; 'I' for Inactive)
REMARK    1  A    between atoms: N_6  and  C_1 
REMARK    2  A    between atoms: C_3  and  N_6 
REMARK    3  A    between atoms: N_4  and  C_3 
REMARK       I    between atoms: C_9  and  N_4 
REMARK    4  A    between atoms: C_12  and  C_9 
REMARK    5  A    between atoms: C_10  and  C_13 
REMARK    6  A    between atoms: O_20  and  C_10 
ROOT
ATOM      1  N   UNL d   1     -48.939  27.567  34.909  0.00  0.00    -0.179 NA
ATOM      2  C   UNL d   1     -48.833  28.093  35.541  0.00  0.00     0.281 C 
ATOM      3  O   UNL d   1     -49.079  27.883  36.298  0.00  0.00    -0.265 OA
ENDROOT
BRANCH   1   4
ATOM      4  C   UNL d   1     -48.691  27.779  34.152  0.00  0.00     0.225 C 
ATOM      5  S   UNL d   1     -47.937  28.086  34.038  0.00  0.00    -0.037 SA
BRANCH   4   6
ATOM      6  N   UNL d   1     -49.206  27.681  33.503  0.00  0.00    -0.192 NA
BRANCH   6   7
ATOM      7  C   UNL d   1     -49.695  27.012  33.461  0.00  0.00     0.196 A 
ATOM      8  N   UNL d   1     -49.433  26.236  33.404  0.00  0.00    -0.221 NA
ATOM      9  C   UNL d   1     -50.103  25.745  33.377  0.00  0.00     0.090 A 
ATOM     10  C   UNL d   1     -50.185  24.920  33.320  0.00  0.00     0.020 A 
ATOM     11  C   UNL d   1     -50.771  26.225  33.419  0.00  0.00     0.050 A 
ATOM     12  C   UNL d   1     -50.938  24.583  33.306  0.00  0.00     0.002 A 
ATOM     13  C   UNL d   1     -51.608  25.071  33.348  0.00  0.00     0.001 A 
ATOM     14  C   UNL d   1     -51.524  25.888  33.404  0.00  0.00     0.008 A 
ATOM     15  S   UNL d   1     -50.509  27.016  33.471  0.00  0.00    -0.047 SA
ENDBRANCH   6   7
ENDBRANCH   4   6
ENDBRANCH   1   4
BRANCH   2  16
ATOM     16  C   UNL d   1     -48.480  28.826  35.414  0.00  0.00     0.058 A 
ATOM     17  C   UNL d   1     -48.797  29.341  34.856  0.00  0.00     0.005 A 
ATOM     18  C   UNL d   1     -48.444  30.082  34.725  0.00  0.00     0.005 A 
ATOM     19  C   UNL d   1     -47.776  30.300  35.157  0.00  0.00     0.063 A 
ATOM     20  C   UNL d   1     -47.460  29.777  35.719  0.00  0.00     0.005 A 
ATOM     21  C   UNL d   1     -47.812  29.044  35.846  0.00  0.00     0.005 A 
BRANCH  19  22
ATOM     22  C   UNL d   1     -47.413  31.040  35.034  0.00  0.00     0.296 C 
ATOM     23  O   UNL d   1     -46.801  31.295  35.524  0.00  0.00    -0.259 OA
BRANCH  22  24
ATOM     24  O   UNL d   1     -47.674  31.518  34.416  0.00  0.00    -0.296 OA
ATOM     25  C   UNL d   1     -47.501  32.331  34.417  0.00  0.00     0.185 C 
ENDBRANCH  22  24
ENDBRANCH  19  22
ENDBRANCH   2  16
TORSDOF 6
ENDMDL
