MODEL 1
REMARK VINA RESULT:      -8.4      0.000      0.000
REMARK  9 active torsions:
REMARK  status: ('A' for Active; 'I' for Inactive)
REMARK    1  A    between atoms: C_21  and  N_1 
REMARK    2  A    between atoms: S_17  and  C_3 
REMARK    3  A    between atoms: C_16  and  C_32 
REMARK       I    between atoms: N_19  and  C_16 
REMARK    4  A    between atoms: C_29  and  S_17 
REMARK    5  A    between atoms: C_22  and  N_19 
REMARK    6  A    between atoms: C_31  and  C_21 
REMARK    7  A    between atoms: C_23  and  C_22 
REMARK    8  A    between atoms: O_30  and  C_24 
REMARK    9  A    between atoms: C_32  and  C_31 
ROOT
ATOM      1  N   UNL d   1      53.307  36.389  54.501  0.00  0.00    -0.195 NA
ATOM      2  C   UNL d   1      53.242  35.588  54.324  0.00  0.00     0.086 C 
ATOM      3  C   UNL d   1      53.189  34.780  54.157  0.00  0.00     0.170 C 
ENDROOT
BRANCH   3   4
ATOM      4  S   UNL d   1      52.626  34.510  53.618  0.00  0.00    -0.060 SA
BRANCH   4   5
ATOM      5  C   UNL d   1      52.515  33.678  53.507  0.00  0.00     0.178 A 
ATOM      6  N   UNL d   1      51.773  33.401  53.327  0.00  0.00    -0.253 N 
ATOM      7  C   UNL d   1      51.652  32.588  53.216  0.00  0.00     0.268 A 
ATOM      8  C   UNL d   1      52.286  32.053  53.287  0.00  0.00     0.076 A 
ATOM      9  O   UNL d   1      50.901  32.307  53.033  0.00  0.00    -0.267 OA
ATOM     10  C   UNL d   1      52.165  31.243  53.176  0.00  0.00     0.033 A 
ATOM     11  C   UNL d   1      53.028  32.330  53.467  0.00  0.00     0.090 A 
ATOM     12  C   UNL d   1      52.803  30.696  53.248  0.00  0.00     0.119 A 
ATOM     13  O   UNL d   1      52.863  29.856  53.170  0.00  0.00    -0.300 OA
ATOM     14  C   UNL d   1      53.543  30.977  53.428  0.00  0.00     0.121 A 
ATOM     15  C   UNL d   1      53.644  29.616  53.304  0.00  0.00     0.304 A 
ATOM     16  O   UNL d   1      54.056  30.312  53.461  0.00  0.00    -0.299 OA
ATOM     17  C   UNL d   1      53.661  31.794  53.539  0.00  0.00     0.046 A 
ATOM     18  N   UNL d   1      53.146  33.146  53.578  0.00  0.00    -0.222 NA
BRANCH   6  19
ATOM     19  C   UNL d   1      51.133  33.952  53.255  0.00  0.00     0.085 C 
BRANCH  19  20
ATOM     20  C   UNL d   1      50.780  34.062  52.520  0.00  0.00     0.024 C 
BRANCH  20  21
ATOM     21  C   UNL d   1      50.077  34.496  52.475  0.00  0.00     0.064 C 
BRANCH  21  22
ATOM     22  C   UNL d   1      49.692  34.576  51.751  0.00  0.00     0.279 C 
ATOM     23  N   UNL d   1      48.969  34.969  51.713  0.00  0.00    -0.206 NA
ATOM     24  O   UNL d   1      50.031  34.262  51.065  0.00  0.00    -0.265 OA
BRANCH  23  25
ATOM     25  C   UNL d   1      48.636  35.280  52.396  0.00  0.00     0.102 C 
BRANCH  25  26
ATOM     26  C   UNL d   1      47.885  35.639  52.356  0.00  0.00     0.019 A 
ATOM     27  C   UNL d   1      47.437  35.573  51.683  0.00  0.00     0.004 A 
ATOM     28  C   UNL d   1      46.699  35.929  51.650  0.00  0.00     0.024 A 
ATOM     29  C   UNL d   1      46.407  36.352  52.292  0.00  0.00     0.094 A 
ATOM     30  C   UNL d   1      46.865  36.416  52.972  0.00  0.00     0.024 A 
ATOM     31  C   UNL d   1      47.616  36.057  53.013  0.00  0.00     0.004 A 
BRANCH  29  32
ATOM     32  O   UNL d   1      45.666  36.709  52.259  0.00  0.00    -0.328 OA
ATOM     33  C   UNL d   1      45.027  36.265  51.990  0.00  0.00     0.181 C 
ENDBRANCH  29  32
ENDBRANCH  25  26
ENDBRANCH  23  25
ENDBRANCH  21  22
ENDBRANCH  20  21
ENDBRANCH  19  20
ENDBRANCH   6  19
ENDBRANCH   4   5
ENDBRANCH   3   4
TORSDOF 9
ENDMDL
MODEL 2
REMARK VINA RESULT:      -7.6      1.414      1.988
REMARK  9 active torsions:
REMARK  status: ('A' for Active; 'I' for Inactive)
REMARK    1  A    between atoms: C_21  and  N_1 
REMARK    2  A    between atoms: S_17  and  C_3 
REMARK    3  A    between atoms: C_16  and  C_32 
REMARK       I    between atoms: N_19  and  C_16 
REMARK    4  A    between atoms: C_29  and  S_17 
REMARK    5  A    between atoms: C_22  and  N_19 
REMARK    6  A    between atoms: C_31  and  C_21 
REMARK    7  A    between atoms: C_23  and  C_22 
REMARK    8  A    between atoms: O_30  and  C_24 
REMARK    9  A    between atoms: C_32  and  C_31 
ROOT
ATOM      1  N   UNL d   1      55.517  34.421  55.179  0.00  0.00    -0.195 NA
ATOM      2  C   UNL d   1      55.008  33.795  55.020  0.00  0.00     0.086 C 
ATOM      3  C   UNL d   1      54.502  33.157  54.874  0.00  0.00     0.170 C 
ENDROOT
BRANCH   3   4
ATOM      4  S   UNL d   1      53.987  33.182  54.230  0.00  0.00    -0.060 SA
BRANCH   4   5
ATOM      5  C   UNL d   1      53.638  32.467  53.942  0.00  0.00     0.178 A 
ATOM      6  N   UNL d   1      53.087  32.510  53.347  0.00  0.00    -0.253 N 
ATOM      7  C   UNL d   1      52.739  31.816  53.057  0.00  0.00     0.268 A 
ATOM      8  C   UNL d   1      52.949  31.073  53.370  0.00  0.00     0.076 A 
ATOM      9  O   UNL d   1      52.180  31.859  52.454  0.00  0.00    -0.267 OA
ATOM     10  C   UNL d   1      52.601  30.382  53.081  0.00  0.00     0.033 A 
ATOM     11  C   UNL d   1      53.500  31.030  53.965  0.00  0.00     0.090 A 
ATOM     12  C   UNL d   1      52.811  29.628  53.395  0.00  0.00     0.119 A 
ATOM     13  O   UNL d   1      52.564  28.837  53.226  0.00  0.00    -0.300 OA
ATOM     14  C   UNL d   1      53.362  29.589  53.989  0.00  0.00     0.121 A 
ATOM     15  C   UNL d   1      52.965  28.306  53.718  0.00  0.00     0.304 A 
ATOM     16  O   UNL d   1      53.454  28.777  54.185  0.00  0.00    -0.299 OA
ATOM     17  C   UNL d   1      53.710  30.288  54.279  0.00  0.00     0.046 A 
ATOM     18  N   UNL d   1      53.848  31.729  54.255  0.00  0.00    -0.222 NA
BRANCH   6  19
ATOM     19  C   UNL d   1      52.878  33.269  53.032  0.00  0.00     0.085 C 
BRANCH  19  20
ATOM     20  C   UNL d   1      52.209  33.651  53.321  0.00  0.00     0.024 C 
BRANCH  20  21
ATOM     21  C   UNL d   1      51.781  34.146  52.815  0.00  0.00     0.064 C 
BRANCH  21  22
ATOM     22  C   UNL d   1      51.371  34.791  53.124  0.00  0.00     0.279 C 
ATOM     23  N   UNL d   1      50.604  34.948  52.869  0.00  0.00    -0.206 NA
ATOM     24  O   UNL d   1      51.731  35.278  53.689  0.00  0.00    -0.265 OA
BRANCH  23  25
ATOM     25  C   UNL d   1      50.251  34.463  52.309  0.00  0.00     0.102 C 
BRANCH  25  26
ATOM     26  C   UNL d   1      49.492  34.655  52.026  0.00  0.00     0.019 A 
ATOM     27  C   UNL d   1      48.950  35.007  52.516  0.00  0.00     0.004 A 
ATOM     28  C   UNL d   1      48.204  35.193  52.230  0.00  0.00     0.024 A 
ATOM     29  C   UNL d   1      47.998  35.026  51.452  0.00  0.00     0.094 A 
ATOM     30  C   UNL d   1      48.551  34.668  50.958  0.00  0.00     0.024 A 
ATOM     31  C   UNL d   1      49.310  34.477  51.241  0.00  0.00     0.004 A 
BRANCH  29  32
ATOM     32  O   UNL d   1      47.249  35.212  51.165  0.00  0.00    -0.328 OA
ATOM     33  C   UNL d   1      46.852  35.856  51.491  0.00  0.00     0.181 C 
ENDBRANCH  29  32
ENDBRANCH  25  26
ENDBRANCH  23  25
ENDBRANCH  21  22
ENDBRANCH  20  21
ENDBRANCH  19  20
ENDBRANCH   6  19
ENDBRANCH   4   5
ENDBRANCH   3   4
TORSDOF 9
ENDMDL
MODEL 3
REMARK VINA RESULT:      -7.3      1.732      2.778
REMARK  9 active torsions:
REMARK  status: ('A' for Active; 'I' for Inactive)
REMARK    1  A    between atoms: C_21  and  N_1 
REMARK    2  A    between atoms: S_17  and  C_3 
REMARK    3  A    between atoms: C_16  and  C_32 
REMARK       I    between atoms: N_19  and  C_16 
REMARK    4  A    between atoms: C_29  and  S_17 
REMARK    5  A    between atoms: C_22  and  N_19 
REMARK    6  A    between atoms: C_31  and  C_21 
REMARK    7  A    between atoms: C_23  and  C_22 
REMARK    8  A    between atoms: O_30  and  C_24 
REMARK    9  A    between atoms: C_32  and  C_31 
ROOT
ATOM      1  N   UNL d   1      51.904  29.577  53.283  0.00  0.00    -0.195 NA
ATOM      2  C   UNL d   1      52.258  30.298  53.106  0.00  0.00     0.086 C 
ATOM      3  C   UNL d   1      52.628  31.015  52.923  0.00  0.00     0.170 C 
ENDROOT
BRANCH   3   4
ATOM      4  S   UNL d   1      52.223  31.724  53.037  0.00  0.00    -0.060 SA
BRANCH   4   5
ATOM      5  C   UNL d   1      52.601  32.364  53.443  0.00  0.00     0.178 A 
ATOM      6  N   UNL d   1      52.200  33.065  53.533  0.00  0.00    -0.253 N 
ATOM      7  C   UNL d   1      52.560  33.698  53.929  0.00  0.00     0.268 A 
ATOM      8  C   UNL d   1      53.330  33.621  54.237  0.00  0.00     0.076 A 
ATOM      9  O   UNL d   1      52.154  34.408  54.019  0.00  0.00    -0.267 OA
ATOM     10  C   UNL d   1      53.688  34.253  54.631  0.00  0.00     0.033 A 
ATOM     11  C   UNL d   1      53.731  32.921  54.147  0.00  0.00     0.090 A 
ATOM     12  C   UNL d   1      54.467  34.181  54.945  0.00  0.00     0.119 A 
ATOM     13  O   UNL d   1      54.977  34.708  55.366  0.00  0.00    -0.300 OA
ATOM     14  C   UNL d   1      54.865  33.479  54.854  0.00  0.00     0.121 A 
ATOM     15  C   UNL d   1      55.694  34.330  55.537  0.00  0.00     0.304 A 
ATOM     16  O   UNL d   1      55.617  33.574  55.218  0.00  0.00    -0.299 OA
ATOM     17  C   UNL d   1      54.501  32.845  54.455  0.00  0.00     0.046 A 
ATOM     18  N   UNL d   1      53.367  32.287  53.749  0.00  0.00    -0.222 NA
BRANCH   6  19
ATOM     19  C   UNL d   1      51.417  33.135  53.216  0.00  0.00     0.085 C 
BRANCH  19  20
ATOM     20  C   UNL d   1      51.254  33.736  52.679  0.00  0.00     0.024 C 
BRANCH  20  21
ATOM     21  C   UNL d   1      50.466  33.925  52.515  0.00  0.00     0.064 C 
BRANCH  21  22
ATOM     22  C   UNL d   1      50.279  34.348  51.833  0.00  0.00     0.279 C 
ATOM     23  N   UNL d   1      49.597  34.808  51.810  0.00  0.00    -0.206 NA
ATOM     24  O   UNL d   1      50.778  34.310  51.173  0.00  0.00    -0.265 OA
BRANCH  23  25
ATOM     25  C   UNL d   1      49.105  34.843  52.466  0.00  0.00     0.102 C 
BRANCH  25  26
ATOM     26  C   UNL d   1      48.417  35.312  52.435  0.00  0.00     0.019 A 
ATOM     27  C   UNL d   1      47.889  35.221  51.825  0.00  0.00     0.004 A 
ATOM     28  C   UNL d   1      47.214  35.685  51.800  0.00  0.00     0.024 A 
ATOM     29  C   UNL d   1      47.064  36.243  52.386  0.00  0.00     0.094 A 
ATOM     30  C   UNL d   1      47.603  36.331  53.002  0.00  0.00     0.024 A 
ATOM     31  C   UNL d   1      48.291  35.863  53.034  0.00  0.00     0.004 A 
BRANCH  29  32
ATOM     32  O   UNL d   1      46.387  36.709  52.361  0.00  0.00    -0.328 OA
ATOM     33  C   UNL d   1      45.699  36.423  52.714  0.00  0.00     0.181 C 
ENDBRANCH  29  32
ENDBRANCH  25  26
ENDBRANCH  23  25
ENDBRANCH  21  22
ENDBRANCH  20  21
ENDBRANCH  19  20
ENDBRANCH   6  19
ENDBRANCH   4   5
ENDBRANCH   3   4
TORSDOF 9
ENDMDL
