MODEL 1
REMARK VINA RESULT:      -1.9      0.000      0.000
REMARK  6 active torsions:
REMARK  status: ('A' for Active; 'I' for Inactive)
REMARK    1  A    between atoms: N_2  and  C_1 
REMARK       I    between atoms: C_4  and  N_2 
REMARK    2  A    between atoms: C_21  and  N_2 
REMARK    3  A    between atoms: C_6  and  C_4 
REMARK    4  A    between atoms: C_23  and  C_21 
REMARK    5  A    between atoms: C_25  and  C_23 
REMARK    6  A    between atoms: N_24  and  C_25 
ROOT
ATOM      1  N   UNL d   1      58.560  -0.046  30.681  0.00  0.00    -0.252 N 
ATOM      2  C   UNL d   1      59.266   0.319  30.914  0.00  0.00     0.272 C 
ATOM      3  O   UNL d   1      59.324   0.682  31.644  0.00  0.00    -0.266 OA
ENDROOT
BRANCH   1   4
ATOM      4  C   UNL d   1      57.907  -0.040  31.202  0.00  0.00     0.182 A 
ATOM      5  N   UNL d   1      57.732  -0.624  31.761  0.00  0.00    -0.222 NA
ATOM      6  C   UNL d   1      57.040  -0.402  32.159  0.00  0.00     0.092 A 
ATOM      7  C   UNL d   1      56.619  -0.761  32.755  0.00  0.00     0.046 A 
ATOM      8  C   UNL d   1      56.791   0.318  31.844  0.00  0.00     0.052 A 
ATOM      9  C   UNL d   1      55.934  -0.409  33.054  0.00  0.00     0.121 A 
ATOM     10  O   UNL d   1      55.408  -0.628  33.635  0.00  0.00    -0.299 OA
ATOM     11  C   UNL d   1      55.688   0.307  32.739  0.00  0.00     0.120 A 
ATOM     12  C   UNL d   1      54.829  -0.047  33.684  0.00  0.00     0.304 A 
ATOM     13  O   UNL d   1      54.997   0.531  33.135  0.00  0.00    -0.300 OA
ATOM     14  C   UNL d   1      56.112   0.676  32.134  0.00  0.00     0.034 A 
ATOM     15  S   UNL d   1      57.323   0.547  31.252  0.00  0.00    -0.048 SA
ENDBRANCH   1   4
BRANCH   1  16
ATOM     16  C   UNL d   1      58.501  -0.412  29.943  0.00  0.00     0.086 C 
BRANCH  16  17
ATOM     17  C   UNL d   1      58.472  -1.241  29.895  0.00  0.00     0.038 C 
BRANCH  17  18
ATOM     18  C   UNL d   1      58.480  -1.609  29.156  0.00  0.00     0.082 C 
BRANCH  18  19
ATOM     19  N   UNL d   1      58.612  -2.421  29.101  0.00  0.00    -0.300 N 
ATOM     20  C   UNL d   1      58.091  -2.946  29.463  0.00  0.00     0.100 C 
ATOM     21  C   UNL d   1      59.263  -2.706  28.683  0.00  0.00     0.100 C 
ENDBRANCH  18  19
ENDBRANCH  17  18
ENDBRANCH  16  17
ENDBRANCH   1  16
BRANCH   2  22
ATOM     22  C   UNL d   1      59.911   0.311  30.395  0.00  0.00     0.087 A 
ATOM     23  S   UNL d   1      59.928   0.604  29.613  0.00  0.00    -0.071 SA
ATOM     24  C   UNL d   1      60.690   0.474  29.314  0.00  0.00     0.087 A 
ATOM     25 CL   UNL d   1      60.967   0.679  28.545  0.00  0.00    -0.075 Cl
ATOM     26  C   UNL d   1      61.133   0.110  29.902  0.00  0.00     0.019 A 
ATOM     27  C   UNL d   1      60.659   0.009  30.563  0.00  0.00     0.013 A 
ENDBRANCH   2  22
TORSDOF 6
ENDMDL
MODEL 2
REMARK VINA RESULT:      -0.5      1.451      2.420
REMARK  6 active torsions:
REMARK  status: ('A' for Active; 'I' for Inactive)
REMARK    1  A    between atoms: N_2  and  C_1 
REMARK       I    between atoms: C_4  and  N_2 
REMARK    2  A    between atoms: C_21  and  N_2 
REMARK    3  A    between atoms: C_6  and  C_4 
REMARK    4  A    between atoms: C_23  and  C_21 
REMARK    5  A    between atoms: C_25  and  C_23 
REMARK    6  A    between atoms: N_24  and  C_25 
ROOT
ATOM      1  N   UNL d   1      57.798  -0.314  30.803  0.00  0.00    -0.252 N 
ATOM      2  C   UNL d   1      57.678  -1.023  30.393  0.00  0.00     0.272 C 
ATOM      3  O   UNL d   1      57.119  -1.561  30.650  0.00  0.00    -0.266 OA
ENDROOT
BRANCH   1   4
ATOM      4  C   UNL d   1      57.342  -0.155  31.484  0.00  0.00     0.182 A 
ATOM      5  N   UNL d   1      57.637   0.106  32.212  0.00  0.00    -0.222 NA
ATOM      6  C   UNL d   1      56.998   0.194  32.733  0.00  0.00     0.092 A 
ATOM      7  C   UNL d   1      56.963   0.432  33.510  0.00  0.00     0.046 A 
ATOM      8  C   UNL d   1      56.313  -0.012  32.325  0.00  0.00     0.052 A 
ATOM      9  C   UNL d   1      56.237   0.470  33.902  0.00  0.00     0.121 A 
ATOM     10  O   UNL d   1      56.029   0.682  34.660  0.00  0.00    -0.299 OA
ATOM     11  C   UNL d   1      55.556   0.265  33.495  0.00  0.00     0.120 A 
ATOM     12  C   UNL d   1      55.213   0.609  34.728  0.00  0.00     0.304 A 
ATOM     13  O   UNL d   1      54.917   0.352  34.013  0.00  0.00    -0.300 OA
ATOM     14  C   UNL d   1      55.587   0.023  32.706  0.00  0.00     0.034 A 
ATOM     15  S   UNL d   1      56.518  -0.228  31.552  0.00  0.00    -0.048 SA
ENDBRANCH   1   4
BRANCH   1  16
ATOM     16  C   UNL d   1      58.363   0.230  30.544  0.00  0.00     0.086 C 
BRANCH  16  17
ATOM     17  C   UNL d   1      58.968   0.474  31.059  0.00  0.00     0.038 C 
BRANCH  17  18
ATOM     18  C   UNL d   1      59.709   0.673  30.755  0.00  0.00     0.082 C 
BRANCH  18  19
ATOM     19  N   UNL d   1      60.370   0.679  31.247  0.00  0.00    -0.300 N 
ATOM     20  C   UNL d   1      60.271   0.682  32.065  0.00  0.00     0.100 C 
ATOM     21  C   UNL d   1      61.128   0.681  30.922  0.00  0.00     0.100 C 
ENDBRANCH  18  19
ENDBRANCH  17  18
ENDBRANCH  16  17
ENDBRANCH   1  16
BRANCH   2  22
ATOM     22  C   UNL d   1      58.132  -1.177  29.719  0.00  0.00     0.087 A 
ATOM     23  S   UNL d   1      58.627  -1.837  29.588  0.00  0.00    -0.071 SA
ATOM     24  C   UNL d   1      58.967  -1.750  28.836  0.00  0.00     0.087 A 
ATOM     25 CL   UNL d   1      59.505  -2.283  28.466  0.00  0.00    -0.075 Cl
ATOM     26  C   UNL d   1      58.686  -1.050  28.512  0.00  0.00     0.019 A 
ATOM     27  C   UNL d   1      58.176  -0.698  29.048  0.00  0.00     0.013 A 
ENDBRANCH   2  22
TORSDOF 6
ENDMDL
