MODEL 1
REMARK VINA RESULT:      27.3      0.000      0.000
REMARK  4 active torsions:
REMARK  status: ('A' for Active; 'I' for Inactive)
REMARK    1  A    between atoms: N_10  and  C_3 
REMARK    2  A    between atoms: C_11  and  C_4 
REMARK    3  A    between atoms: C_15  and  N_10 
REMARK       I    between atoms: C_12  and  N_13 
REMARK    4  A    between atoms: N_13  and  C_16 
ROOT
ATOM      1  C   UNL d   1      45.222 -14.674  44.204  0.00  0.00     0.167 A 
ATOM      2  N   UNL d   1      45.800 -15.224  44.392  0.00  0.00    -0.195 N 
ATOM      3  C   UNL d   1      45.596 -15.932  44.766  0.00  0.00     0.167 A 
ATOM      4  C   UNL d   1      45.586 -14.035  43.842  0.00  0.00     0.057 A 
ATOM      5  N   UNL d   1      46.524 -14.929  44.147  0.00  0.00    -0.161 NA
ATOM      6  N   UNL d   1      44.430 -14.822  44.387  0.00  0.00    -0.227 NA
ATOM      7  C   UNL d   1      44.802 -16.082  44.950  0.00  0.00     0.058 A 
ATOM      8  C   UNL d   1      46.394 -14.199  43.809  0.00  0.00     0.124 A 
ATOM      9  C   UNL d   1      44.224 -15.532  44.762  0.00  0.00     0.086 A 
ATOM     10  C   UNL d   1      43.436 -15.700  44.954  0.00  0.00     0.021 C 
ENDROOT
BRANCH   3  11
ATOM     11  N   UNL d   1      46.174 -16.483  44.953  0.00  0.00    -0.227 NA
BRANCH  11  12
ATOM     12  C   UNL d   1      46.215 -17.198  44.544  0.00  0.00     0.083 A 
ATOM     13  C   UNL d   1      46.250 -17.192  43.720  0.00  0.00     0.021 A 
ATOM     14  C   UNL d   1      46.292 -17.911  43.303  0.00  0.00     0.021 A 
ATOM     15  C   UNL d   1      46.299 -18.622  43.712  0.00  0.00     0.085 A 
ATOM     16  C   UNL d   1      46.264 -18.624  44.544  0.00  0.00     0.021 A 
ATOM     17  C   UNL d   1      46.222 -17.912  44.955  0.00  0.00     0.021 A 
BRANCH  15  18
ATOM     18  N   UNL d   1      46.341 -19.344  43.291  0.00  0.00    -0.208 NA
ATOM     19  C   UNL d   1      46.474 -19.350  42.477  0.00  0.00     0.279 C 
ATOM     20  O   UNL d   1      46.516 -20.072  42.060  0.00  0.00    -0.265 OA
ATOM     21  C   UNL d   1      46.565 -18.640  42.076  0.00  0.00     0.068 C 
ENDBRANCH  15  18
ENDBRANCH  11  12
ENDBRANCH   3  11
BRANCH   4  22
ATOM     22  C   UNL d   1      45.146 -13.383  43.586  0.00  0.00     0.004 A 
ATOM     23  C   UNL d   1      45.354 -13.013  42.879  0.00  0.00     0.000 A 
ATOM     24  C   UNL d   1      44.921 -12.362  42.616  0.00  0.00     0.000 A 
ATOM     25  C   UNL d   1      44.276 -12.081  43.063  0.00  0.00     0.000 A 
ATOM     26  C   UNL d   1      44.077 -12.456  43.765  0.00  0.00     0.000 A 
ATOM     27  C   UNL d   1      44.513 -13.107  44.025  0.00  0.00     0.000 A 
ENDBRANCH   4  22
TORSDOF 4
ENDMDL
