MODEL 1
REMARK VINA RESULT:      -2.3      0.000      0.000
REMARK  5 active torsions:
REMARK  status: ('A' for Active; 'I' for Inactive)
REMARK    1  A    between atoms: N_2  and  S_1 
REMARK    2  A    between atoms: C_3  and  S_1 
REMARK    3  A    between atoms: C_14  and  C_5 
REMARK    4  A    between atoms: O_15  and  C_8 
REMARK    5  A    between atoms: C_18  and  C_14 
ROOT
ATOM      1  C   UNL d   1      30.471  16.169 -24.205  0.00  0.00     0.104 A 
ATOM      2  C   UNL d   1      30.927  16.846 -24.084  0.00  0.00     0.015 A 
ATOM      3  C   UNL d   1      31.723  16.855 -24.305  0.00  0.00     0.023 A 
ATOM      4  C   UNL d   1      32.065  16.186 -24.648  0.00  0.00     0.094 A 
ATOM      5  C   UNL d   1      30.813  15.501 -24.548  0.00  0.00     0.015 A 
ATOM      6  C   UNL d   1      31.608  15.509 -24.769  0.00  0.00     0.025 A 
ENDROOT
BRANCH   1   7
ATOM      7  S   UNL d   1      29.675  16.161 -23.984  0.00  0.00     0.272 S 
ATOM      8  O   UNL d   1      29.459  16.359 -24.756  0.00  0.00    -0.200 OA
ATOM      9  O   UNL d   1      29.892  15.962 -23.211  0.00  0.00    -0.200 OA
BRANCH   7  10
ATOM     10  N   UNL d   1      28.882  16.152 -23.764  0.00  0.00    -0.225 N 
ATOM     11  C   UNL d   1      28.439  15.461 -23.842  0.00  0.00     0.118 A 
ATOM     12  C   UNL d   1      27.643  15.453 -23.621  0.00  0.00     0.142 A 
ATOM     13  O   UNL d   1      27.290  16.136 -23.321  0.00  0.00    -0.300 OA
ATOM     14  C   UNL d   1      27.733  16.827 -23.244  0.00  0.00     0.142 A 
ATOM     15  C   UNL d   1      28.530  16.835 -23.465  0.00  0.00     0.118 A 
ENDBRANCH   7  10
ENDBRANCH   1   7
BRANCH   3  16
ATOM     16  C   UNL d   1      32.179  17.531 -24.184  0.00  0.00     0.002 C 
ATOM     17  C   UNL d   1      32.272  18.077 -24.796  0.00  0.00     0.000 C 
BRANCH  16  18
ATOM     18  C   UNL d   1      32.543  17.661 -23.454  0.00  0.00     0.000 C 
ATOM     19  C   UNL d   1      32.609  18.427 -23.155  0.00  0.00     0.000 C 
ENDBRANCH  16  18
ENDBRANCH   3  16
BRANCH   4  20
ATOM     20  O   UNL d   1      32.860  16.195 -24.869  0.00  0.00    -0.328 OA
ATOM     21  C   UNL d   1      33.236  15.494 -25.090  0.00  0.00     0.181 C 
ENDBRANCH   4  20
TORSDOF 5
ENDMDL
MODEL 2
REMARK VINA RESULT:      -2.1      2.501      4.297
REMARK  5 active torsions:
REMARK  status: ('A' for Active; 'I' for Inactive)
REMARK    1  A    between atoms: N_2  and  S_1 
REMARK    2  A    between atoms: C_3  and  S_1 
REMARK    3  A    between atoms: C_14  and  C_5 
REMARK    4  A    between atoms: O_15  and  C_8 
REMARK    5  A    between atoms: C_18  and  C_14 
ROOT
ATOM      1  C   UNL d   1      32.632  18.300 -23.615  0.00  0.00     0.104 A 
ATOM      2  C   UNL d   1      31.901  17.918 -23.568  0.00  0.00     0.015 A 
ATOM      3  C   UNL d   1      31.779  17.206 -23.969  0.00  0.00     0.023 A 
ATOM      4  C   UNL d   1      32.387  16.875 -24.420  0.00  0.00     0.094 A 
ATOM      5  C   UNL d   1      33.239  17.969 -24.066  0.00  0.00     0.015 A 
ATOM      6  C   UNL d   1      33.117  17.257 -24.467  0.00  0.00     0.025 A 
ENDROOT
BRANCH   1   7
ATOM      7  S   UNL d   1      32.754  19.011 -23.214  0.00  0.00     0.272 S 
ATOM      8  O   UNL d   1      32.796  18.600 -22.499  0.00  0.00    -0.200 OA
ATOM      9  O   UNL d   1      32.711  19.423 -23.930  0.00  0.00    -0.200 OA
BRANCH   7  10
ATOM     10  N   UNL d   1      32.876  19.720 -22.814  0.00  0.00    -0.225 N 
ATOM     11  C   UNL d   1      32.762  19.758 -21.998  0.00  0.00     0.118 A 
ATOM     12  C   UNL d   1      32.884  20.471 -21.596  0.00  0.00     0.142 A 
ATOM     13  O   UNL d   1      33.120  21.144 -22.010  0.00  0.00    -0.300 OA
ATOM     14  C   UNL d   1      33.234  21.105 -22.826  0.00  0.00     0.142 A 
ATOM     15  C   UNL d   1      33.112  20.393 -23.228  0.00  0.00     0.118 A 
ENDBRANCH   7  10
ENDBRANCH   1   7
BRANCH   3  16
ATOM     16  C   UNL d   1      31.050  16.824 -23.922  0.00  0.00     0.002 C 
ATOM     17  C   UNL d   1      30.968  16.157 -23.444  0.00  0.00     0.000 C 
BRANCH  16  18
ATOM     18  C   UNL d   1      30.404  17.108 -24.352  0.00  0.00     0.000 C 
ATOM     19  C   UNL d   1      29.636  16.916 -24.121  0.00  0.00     0.000 C 
ENDBRANCH  16  18
ENDBRANCH   3  16
BRANCH   4  20
ATOM     20  O   UNL d   1      32.264  16.164 -24.821  0.00  0.00    -0.328 OA
ATOM     21  C   UNL d   1      32.909  15.726 -25.094  0.00  0.00     0.181 C 
ENDBRANCH   4  20
TORSDOF 5
ENDMDL
MODEL 3
REMARK VINA RESULT:      -1.6      3.219      4.891
REMARK  5 active torsions:
REMARK  status: ('A' for Active; 'I' for Inactive)
REMARK    1  A    between atoms: N_2  and  S_1 
REMARK    2  A    between atoms: C_3  and  S_1 
REMARK    3  A    between atoms: C_14  and  C_5 
REMARK    4  A    between atoms: O_15  and  C_8 
REMARK    5  A    between atoms: C_18  and  C_14 
ROOT
ATOM      1  C   UNL d   1      32.893  19.161 -22.623  0.00  0.00     0.104 A 
ATOM      2  C   UNL d   1      32.576  19.004 -23.368  0.00  0.00     0.015 A 
ATOM      3  C   UNL d   1      32.591  18.236 -23.672  0.00  0.00     0.023 A 
ATOM      4  C   UNL d   1      32.924  17.623 -23.230  0.00  0.00     0.094 A 
ATOM      5  C   UNL d   1      33.226  18.548 -22.181  0.00  0.00     0.015 A 
ATOM      6  C   UNL d   1      33.241  17.780 -22.485  0.00  0.00     0.025 A 
ENDROOT
BRANCH   1   7
ATOM      7  S   UNL d   1      32.878  19.929 -22.319  0.00  0.00     0.272 S 
ATOM      8  O   UNL d   1      32.515  19.651 -21.632  0.00  0.00    -0.200 OA
ATOM      9  O   UNL d   1      33.241  20.209 -23.008  0.00  0.00    -0.200 OA
BRANCH   7  10
ATOM     10  N   UNL d   1      32.862  20.695 -22.017  0.00  0.00    -0.225 N 
ATOM     11  C   UNL d   1      32.499  20.845 -21.292  0.00  0.00     0.118 A 
ATOM     12  C   UNL d   1      32.483  21.614 -20.988  0.00  0.00     0.142 A 
ATOM     13  O   UNL d   1      32.832  22.232 -21.410  0.00  0.00    -0.300 OA
ATOM     14  C   UNL d   1      33.195  22.081 -22.135  0.00  0.00     0.142 A 
ATOM     15  C   UNL d   1      33.211  21.312 -22.438  0.00  0.00     0.118 A 
ENDBRANCH   7  10
ENDBRANCH   1   7
BRANCH   3  16
ATOM     16  C   UNL d   1      32.274  18.079 -24.417  0.00  0.00     0.002 C 
ATOM     17  C   UNL d   1      32.743  18.174 -25.089  0.00  0.00     0.000 C 
BRANCH  16  18
ATOM     18  C   UNL d   1      31.491  17.827 -24.489  0.00  0.00     0.000 C 
ATOM     19  C   UNL d   1      30.986  18.195 -25.029  0.00  0.00     0.000 C 
ENDBRANCH  16  18
ENDBRANCH   3  16
BRANCH   4  20
ATOM     20  O   UNL d   1      32.939  16.855 -23.534  0.00  0.00    -0.328 OA
ATOM     21  C   UNL d   1      33.179  16.226 -23.056  0.00  0.00     0.181 C 
ENDBRANCH   4  20
TORSDOF 5
ENDMDL
MODEL 4
REMARK VINA RESULT:      -0.6      4.008      5.952
REMARK  5 active torsions:
REMARK  status: ('A' for Active; 'I' for Inactive)
REMARK    1  A    between atoms: N_2  and  S_1 
REMARK    2  A    between atoms: C_3  and  S_1 
REMARK    3  A    between atoms: C_14  and  C_5 
REMARK    4  A    between atoms: O_15  and  C_8 
REMARK    5  A    between atoms: C_18  and  C_14 
ROOT
ATOM      1  C   UNL d   1      32.978  20.708 -22.536  0.00  0.00     0.104 A 
ATOM      2  C   UNL d   1      32.704  20.933 -21.791  0.00  0.00     0.015 A 
ATOM      3  C   UNL d   1      32.694  21.731 -21.576  0.00  0.00     0.023 A 
ATOM      4  C   UNL d   1      32.957  22.305 -22.107  0.00  0.00     0.094 A 
ATOM      5  C   UNL d   1      33.241  21.283 -23.067  0.00  0.00     0.015 A 
ATOM      6  C   UNL d   1      33.230  22.081 -22.853  0.00  0.00     0.025 A 
ENDROOT
BRANCH   1   7
ATOM      7  S   UNL d   1      32.988  19.911 -22.751  0.00  0.00     0.272 S 
ATOM      8  O   UNL d   1      33.020  19.697 -21.953  0.00  0.00    -0.200 OA
ATOM      9  O   UNL d   1      32.957  20.125 -23.549  0.00  0.00    -0.200 OA
BRANCH   7  10
ATOM     10  N   UNL d   1      32.999  19.116 -22.964  0.00  0.00    -0.225 N 
ATOM     11  C   UNL d   1      33.165  18.539 -22.399  0.00  0.00     0.118 A 
ATOM     12  C   UNL d   1      33.176  17.740 -22.614  0.00  0.00     0.142 A 
ATOM     13  O   UNL d   1      33.020  17.520 -23.393  0.00  0.00    -0.300 OA
ATOM     14  C   UNL d   1      32.854  18.097 -23.958  0.00  0.00     0.142 A 
ATOM     15  C   UNL d   1      32.843  18.896 -23.744  0.00  0.00     0.118 A 
ENDBRANCH   7  10
ENDBRANCH   1   7
BRANCH   3  16
ATOM     16  C   UNL d   1      32.421  21.956 -20.832  0.00  0.00     0.002 C 
ATOM     17  C   UNL d   1      31.610  22.031 -20.698  0.00  0.00     0.000 C 
BRANCH  16  18
ATOM     18  C   UNL d   1      32.957  22.105 -20.221  0.00  0.00     0.000 C 
ATOM     19  C   UNL d   1      32.683  22.259 -19.458  0.00  0.00     0.000 C 
ENDBRANCH  16  18
ENDBRANCH   3  16
BRANCH   4  20
ATOM     20  O   UNL d   1      32.946  23.103 -21.893  0.00  0.00    -0.328 OA
ATOM     21  C   UNL d   1      32.990  23.688 -22.473  0.00  0.00     0.181 C 
ENDBRANCH   4  20
TORSDOF 5
ENDMDL
MODEL 5
REMARK VINA RESULT:      -0.5      2.923      4.812
REMARK  5 active torsions:
REMARK  status: ('A' for Active; 'I' for Inactive)
REMARK    1  A    between atoms: N_2  and  S_1 
REMARK    2  A    between atoms: C_3  and  S_1 
REMARK    3  A    between atoms: C_14  and  C_5 
REMARK    4  A    between atoms: O_15  and  C_8 
REMARK    5  A    between atoms: C_18  and  C_14 
ROOT
ATOM      1  C   UNL d   1      32.812  19.392 -23.089  0.00  0.00     0.104 A 
ATOM      2  C   UNL d   1      32.738  19.650 -22.309  0.00  0.00     0.015 A 
ATOM      3  C   UNL d   1      32.806  20.454 -22.131  0.00  0.00     0.023 A 
ATOM      4  C   UNL d   1      32.947  21.001 -22.733  0.00  0.00     0.094 A 
ATOM      5  C   UNL d   1      32.954  19.939 -23.691  0.00  0.00     0.015 A 
ATOM      6  C   UNL d   1      33.021  20.742 -23.513  0.00  0.00     0.025 A 
ENDROOT
BRANCH   1   7
ATOM      7  S   UNL d   1      32.745  18.588 -23.267  0.00  0.00     0.272 S 
ATOM      8  O   UNL d   1      33.234  18.405 -22.627  0.00  0.00    -0.200 OA
ATOM      9  O   UNL d   1      32.256  18.771 -23.908  0.00  0.00    -0.200 OA
BRANCH   7  10
ATOM     10  N   UNL d   1      32.678  17.787 -23.445  0.00  0.00    -0.225 N 
ATOM     11  C   UNL d   1      33.231  17.251 -23.150  0.00  0.00     0.118 A 
ATOM     12  C   UNL d   1      33.164  16.446 -23.328  0.00  0.00     0.142 A 
ATOM     13  O   UNL d   1      32.543  16.179 -23.801  0.00  0.00    -0.300 OA
ATOM     14  C   UNL d   1      31.990  16.715 -24.096  0.00  0.00     0.142 A 
ATOM     15  C   UNL d   1      32.058  17.519 -23.918  0.00  0.00     0.118 A 
ENDBRANCH   7  10
ENDBRANCH   1   7
BRANCH   3  16
ATOM     16  C   UNL d   1      32.732  20.713 -21.352  0.00  0.00     0.002 C 
ATOM     17  C   UNL d   1      33.240  20.418 -20.772  0.00  0.00     0.000 C 
BRANCH  16  18
ATOM     18  C   UNL d   1      32.151  21.265 -21.151  0.00  0.00     0.000 C 
ATOM     19  C   UNL d   1      32.024  21.464 -20.360  0.00  0.00     0.000 C 
ENDBRANCH  16  18
ENDBRANCH   3  16
BRANCH   4  20
ATOM     20  O   UNL d   1      33.014  21.805 -22.554  0.00  0.00    -0.328 OA
ATOM     21  C   UNL d   1      33.241  22.341 -23.140  0.00  0.00     0.181 C 
ENDBRANCH   4  20
TORSDOF 5
ENDMDL
MODEL 6
REMARK VINA RESULT:       0.3      2.282      4.093
REMARK  5 active torsions:
REMARK  status: ('A' for Active; 'I' for Inactive)
REMARK    1  A    between atoms: N_2  and  S_1 
REMARK    2  A    between atoms: C_3  and  S_1 
REMARK    3  A    between atoms: C_14  and  C_5 
REMARK    4  A    between atoms: O_15  and  C_8 
REMARK    5  A    between atoms: C_18  and  C_14 
ROOT
ATOM      1  C   UNL d   1      31.920  17.981 -24.254  0.00  0.00     0.104 A 
ATOM      2  C   UNL d   1      32.394  17.314 -24.143  0.00  0.00     0.015 A 
ATOM      3  C   UNL d   1      32.063  16.559 -24.187  0.00  0.00     0.023 A 
ATOM      4  C   UNL d   1      31.258  16.467 -24.343  0.00  0.00     0.094 A 
ATOM      5  C   UNL d   1      31.115  17.889 -24.411  0.00  0.00     0.015 A 
ATOM      6  C   UNL d   1      30.784  17.134 -24.455  0.00  0.00     0.025 A 
ENDROOT
BRANCH   1   7
ATOM      7  S   UNL d   1      32.250  18.736 -24.210  0.00  0.00     0.272 S 
ATOM      8  O   UNL d   1      32.281  18.675 -23.387  0.00  0.00    -0.200 OA
ATOM      9  O   UNL d   1      32.220  18.798 -25.034  0.00  0.00    -0.200 OA
BRANCH   7  10
ATOM     10  N   UNL d   1      32.580  19.489 -24.165  0.00  0.00    -0.225 N 
ATOM     11  C   UNL d   1      32.730  19.915 -24.855  0.00  0.00     0.118 A 
ATOM     12  C   UNL d   1      33.061  20.672 -24.811  0.00  0.00     0.142 A 
ATOM     13  O   UNL d   1      33.241  21.002 -24.076  0.00  0.00    -0.300 OA
ATOM     14  C   UNL d   1      33.090  20.575 -23.387  0.00  0.00     0.142 A 
ATOM     15  C   UNL d   1      32.760  19.819 -23.431  0.00  0.00     0.118 A 
ENDBRANCH   7  10
ENDBRANCH   1   7
BRANCH   3  16
ATOM     16  C   UNL d   1      32.536  15.893 -24.076  0.00  0.00     0.002 C 
ATOM     17  C   UNL d   1      33.061  15.659 -24.669  0.00  0.00     0.000 C 
BRANCH  16  18
ATOM     18  C   UNL d   1      32.486  15.461 -23.373  0.00  0.00     0.000 C 
ATOM     19  C   UNL d   1      33.119  15.456 -22.844  0.00  0.00     0.000 C 
ENDBRANCH  16  18
ENDBRANCH   3  16
BRANCH   4  20
ATOM     20  O   UNL d   1      30.928  15.712 -24.388  0.00  0.00    -0.328 OA
ATOM     21  C   UNL d   1      30.180  15.606 -24.722  0.00  0.00     0.181 C 
ENDBRANCH   4  20
TORSDOF 5
ENDMDL
