MODEL 1
REMARK VINA RESULT:      13.2      0.000      0.000
REMARK  0 active torsions:
REMARK  status: ('A' for Active; 'I' for Inactive)
ROOT
ATOM      1  C   UNL d   1      13.938  11.849  -1.383  0.00  0.00     0.086 A 
ATOM      2  S   UNL d   1      13.298  11.808  -1.896  0.00  0.00    -0.081 SA
ATOM      3  C   UNL d   1      14.720  11.906  -1.696  0.00  0.00     0.090 A 
ATOM      4  N   UNL d   1      14.830  11.919  -2.509  0.00  0.00    -0.244 NA
ATOM      5  C   UNL d   1      13.409  11.821  -2.708  0.00  0.00     0.047 A 
ATOM      6  C   UNL d   1      14.173  11.876  -3.014  0.00  0.00     0.087 A 
ATOM      7  C   UNL d   1      13.834  11.837  -0.553  0.00  0.00     0.203 A 
ATOM      8  O   UNL d   1      13.053  11.780  -0.240  0.00  0.00    -0.286 OA
ATOM      9  C   UNL d   1      15.366  11.947  -1.166  0.00  0.00     0.020 A 
ATOM     10  C   UNL d   1      14.473  11.878  -0.041  0.00  0.00     0.043 A 
ATOM     11  C   UNL d   1      15.237  11.933  -0.347  0.00  0.00     0.005 A 
ATOM     12  C   UNL d   1      12.770  11.780  -3.221  0.00  0.00     0.008 A 
ATOM     13  C   UNL d   1      14.288  11.889  -3.829  0.00  0.00     0.020 A 
ATOM     14  C   UNL d   1      12.901  11.794  -4.041  0.00  0.00     0.001 A 
ATOM     15  C   UNL d   1      13.645  11.848  -4.339  0.00  0.00     0.002 A 
ENDROOT
TORSDOF 0
ENDMDL
MODEL 2
REMARK VINA RESULT:      14.0      1.011      1.448
REMARK  0 active torsions:
REMARK  status: ('A' for Active; 'I' for Inactive)
ROOT
ATOM      1  C   UNL d   1      14.482  11.785  -1.618  0.00  0.00     0.086 A 
ATOM      2  S   UNL d   1      14.706  11.787  -2.408  0.00  0.00    -0.081 SA
ATOM      3  C   UNL d   1      13.662  11.782  -1.418  0.00  0.00     0.090 A 
ATOM      4  N   UNL d   1      13.099  11.782  -2.016  0.00  0.00    -0.244 NA
ATOM      5  C   UNL d   1      14.144  11.788  -3.005  0.00  0.00     0.047 A 
ATOM      6  C   UNL d   1      13.342  11.785  -2.809  0.00  0.00     0.087 A 
ATOM      7  C   UNL d   1      15.049  11.784  -1.003  0.00  0.00     0.203 A 
ATOM      8  O   UNL d   1      15.868  11.787  -1.203  0.00  0.00    -0.286 OA
ATOM      9  C   UNL d   1      13.442  11.779  -0.611  0.00  0.00     0.020 A 
ATOM     10  C   UNL d   1      14.824  11.782  -0.214  0.00  0.00     0.043 A 
ATOM     11  C   UNL d   1      14.023  11.779  -0.019  0.00  0.00     0.005 A 
ATOM     12  C   UNL d   1      14.368  11.790  -3.794  0.00  0.00     0.008 A 
ATOM     13  C   UNL d   1      12.776  11.785  -3.406  0.00  0.00     0.020 A 
ATOM     14  C   UNL d   1      13.784  11.791  -4.386  0.00  0.00     0.001 A 
ATOM     15  C   UNL d   1      13.004  11.788  -4.196  0.00  0.00     0.002 A 
ENDROOT
TORSDOF 0
ENDMDL
MODEL 3
REMARK VINA RESULT:      16.1      1.584      3.258
REMARK  0 active torsions:
REMARK  status: ('A' for Active; 'I' for Inactive)
ROOT
ATOM      1  C   UNL d   1      13.625  12.986  -3.212  0.00  0.00     0.086 A 
ATOM      2  S   UNL d   1      14.047  13.369  -2.621  0.00  0.00    -0.081 SA
ATOM      3  C   UNL d   1      13.414  12.175  -3.113  0.00  0.00     0.090 A 
ATOM      4  N   UNL d   1      13.633  11.780  -2.427  0.00  0.00    -0.244 NA
ATOM      5  C   UNL d   1      14.266  12.974  -1.937  0.00  0.00     0.047 A 
ATOM      6  C   UNL d   1      14.060  12.181  -1.840  0.00  0.00     0.087 A 
ATOM      7  C   UNL d   1      13.397  13.381  -3.913  0.00  0.00     0.203 A 
ATOM      8  O   UNL d   1      13.609  14.191  -4.012  0.00  0.00    -0.286 OA
ATOM      9  C   UNL d   1      12.983  11.791  -3.719  0.00  0.00     0.020 A 
ATOM     10  C   UNL d   1      12.976  12.998  -4.502  0.00  0.00     0.043 A 
ATOM     11  C   UNL d   1      12.769  12.205  -4.406  0.00  0.00     0.005 A 
ATOM     12  C   UNL d   1      14.689  13.358  -1.346  0.00  0.00     0.008 A 
ATOM     13  C   UNL d   1      14.278  11.782  -1.154  0.00  0.00     0.020 A 
ATOM     14  C   UNL d   1      14.902  12.941  -0.659  0.00  0.00     0.001 A 
ATOM     15  C   UNL d   1      14.701  12.170  -0.565  0.00  0.00     0.002 A 
ENDROOT
TORSDOF 0
ENDMDL
