MODEL 1
REMARK VINA RESULT:      -3.4      0.000      0.000
REMARK  6 active torsions:
REMARK  status: ('A' for Active; 'I' for Inactive)
REMARK    1  A    between atoms: C_8  and  C_3 
REMARK    2  A    between atoms: C_7  and  O_15 
REMARK    3  A    between atoms: S_9  and  C_8 
REMARK    4  A    between atoms: C_18  and  S_9 
REMARK    5  A    between atoms: O_15  and  C_19 
REMARK    6  A    between atoms: C_19  and  C_18 
ROOT
ATOM      1  S   UNL d   1      32.937  20.022 -22.145  0.00  0.00    -0.081 SA
ENDROOT
BRANCH   1   2
ATOM      2  C   UNL d   1      33.148  20.410 -21.451  0.00  0.00     0.074 C 
BRANCH   2   3
ATOM      3  C   UNL d   1      32.860  21.166 -21.300  0.00  0.00     0.169 A 
ATOM      4  N   UNL d   1      32.420  21.859 -21.463  0.00  0.00    -0.225 NA
ATOM      5  C   UNL d   1      32.527  22.390 -20.823  0.00  0.00     0.101 A 
ATOM      6  C   UNL d   1      33.031  22.018 -20.274  0.00  0.00     0.101 A 
ATOM      7  C   UNL d   1      32.242  23.152 -20.660  0.00  0.00     0.021 A 
ATOM      8  N   UNL d   1      33.241  21.263 -20.561  0.00  0.00    -0.225 NA
ATOM      9  C   UNL d   1      33.240  22.416 -19.572  0.00  0.00     0.021 A 
ATOM     10  C   UNL d   1      32.952  23.165 -19.426  0.00  0.00     0.002 A 
ATOM     11  C   UNL d   1      32.453  23.533 -19.970  0.00  0.00     0.002 A 
ENDBRANCH   2   3
ENDBRANCH   1   2
BRANCH   1  12
ATOM     12  C   UNL d   1      33.233  19.269 -22.301  0.00  0.00     0.062 C 
BRANCH  12  13
ATOM     13  C   UNL d   1      32.851  18.782 -22.844  0.00  0.00     0.130 C 
BRANCH  13  14
ATOM     14  O   UNL d   1      33.241  18.566 -23.538  0.00  0.00    -0.305 OA
BRANCH  14  15
ATOM     15  C   UNL d   1      32.682  17.969 -23.651  0.00  0.00     0.100 A 
ATOM     16  C   UNL d   1      32.779  17.250 -23.276  0.00  0.00     0.026 A 
ATOM     17  C   UNL d   1      32.223  16.650 -23.386  0.00  0.00     0.013 A 
ATOM     18  C   UNL d   1      31.568  16.779 -23.876  0.00  0.00     0.058 A 
ATOM     19  C   UNL d   1      31.477  17.504 -24.249  0.00  0.00     0.013 A 
ATOM     20 CL   UNL d   1      31.010  16.181 -23.988  0.00  0.00    -0.082 Cl
ATOM     21  C   UNL d   1      32.037  18.098 -24.134  0.00  0.00     0.026 A 
ENDBRANCH  14  15
ENDBRANCH  13  14
ENDBRANCH  12  13
ENDBRANCH   1  12
TORSDOF 6
ENDMDL
MODEL 2
REMARK VINA RESULT:      -2.8      1.161      1.703
REMARK  6 active torsions:
REMARK  status: ('A' for Active; 'I' for Inactive)
REMARK    1  A    between atoms: C_8  and  C_3 
REMARK    2  A    between atoms: C_7  and  O_15 
REMARK    3  A    between atoms: S_9  and  C_8 
REMARK    4  A    between atoms: C_18  and  S_9 
REMARK    5  A    between atoms: O_15  and  C_19 
REMARK    6  A    between atoms: C_19  and  C_18 
ROOT
ATOM      1  S   UNL d   1      32.880  18.749 -23.172  0.00  0.00    -0.081 SA
ENDROOT
BRANCH   1   2
ATOM      2  C   UNL d   1      33.101  19.113 -22.468  0.00  0.00     0.074 C 
BRANCH   2   3
ATOM      3  C   UNL d   1      33.149  19.933 -22.427  0.00  0.00     0.169 A 
ATOM      4  N   UNL d   1      33.241  20.706 -22.735  0.00  0.00    -0.225 NA
ATOM      5  C   UNL d   1      33.190  21.246 -22.096  0.00  0.00     0.101 A 
ATOM      6  C   UNL d   1      33.067  20.801 -21.403  0.00  0.00     0.101 A 
ATOM      7  C   UNL d   1      33.236  22.074 -22.043  0.00  0.00     0.021 A 
ATOM      8  N   UNL d   1      33.041  19.990 -21.599  0.00  0.00    -0.225 NA
ATOM      9  C   UNL d   1      32.994  21.191 -20.670  0.00  0.00     0.021 A 
ATOM     10  C   UNL d   1      33.042  22.004 -20.634  0.00  0.00     0.002 A 
ATOM     11  C   UNL d   1      33.163  22.446 -21.320  0.00  0.00     0.002 A 
ENDBRANCH   2   3
ENDBRANCH   1   2
BRANCH   1  12
ATOM     12  C   UNL d   1      33.005  17.942 -23.275  0.00  0.00     0.062 C 
BRANCH  12  13
ATOM     13  C   UNL d   1      32.395  17.463 -23.550  0.00  0.00     0.130 C 
BRANCH  13  14
ATOM     14  O   UNL d   1      32.576  16.786 -23.985  0.00  0.00    -0.305 OA
BRANCH  14  15
ATOM     15  C   UNL d   1      31.797  16.531 -23.889  0.00  0.00     0.100 A 
ATOM     16  C   UNL d   1      31.635  15.915 -23.377  0.00  0.00     0.026 A 
ATOM     17  C   UNL d   1      30.857  15.657 -23.277  0.00  0.00     0.013 A 
ATOM     18  C   UNL d   1      30.244  16.023 -23.696  0.00  0.00     0.058 A 
ATOM     19  C   UNL d   1      30.414  16.641 -24.209  0.00  0.00     0.013 A 
ATOM     20 CL   UNL d   1      29.465  15.768 -23.599  0.00  0.00    -0.082 Cl
ATOM     21  C   UNL d   1      31.194  16.893 -24.302  0.00  0.00     0.026 A 
ENDBRANCH  14  15
ENDBRANCH  13  14
ENDBRANCH  12  13
ENDBRANCH   1  12
TORSDOF 6
ENDMDL
MODEL 3
REMARK VINA RESULT:      -2.5      2.529      5.753
REMARK  6 active torsions:
REMARK  status: ('A' for Active; 'I' for Inactive)
REMARK    1  A    between atoms: C_8  and  C_3 
REMARK    2  A    between atoms: C_7  and  O_15 
REMARK    3  A    between atoms: S_9  and  C_8 
REMARK    4  A    between atoms: C_18  and  S_9 
REMARK    5  A    between atoms: O_15  and  C_19 
REMARK    6  A    between atoms: C_19  and  C_18 
ROOT
ATOM      1  S   UNL d   1      32.971  19.828 -22.172  0.00  0.00    -0.081 SA
ENDROOT
BRANCH   1   2
ATOM      2  C   UNL d   1      33.139  19.458 -22.888  0.00  0.00     0.074 C 
BRANCH   2   3
ATOM      3  C   UNL d   1      32.984  18.656 -22.981  0.00  0.00     0.169 A 
ATOM      4  N   UNL d   1      32.882  17.866 -22.725  0.00  0.00    -0.225 NA
ATOM      5  C   UNL d   1      32.703  17.397 -23.396  0.00  0.00     0.101 A 
ATOM      6  C   UNL d   1      32.698  17.903 -24.058  0.00  0.00     0.101 A 
ATOM      7  C   UNL d   1      32.545  16.589 -23.503  0.00  0.00     0.021 A 
ATOM      8  N   UNL d   1      32.871  18.681 -23.811  0.00  0.00    -0.225 NA
ATOM      9  C   UNL d   1      32.535  17.591 -24.814  0.00  0.00     0.021 A 
ATOM     10  C   UNL d   1      32.382  16.795 -24.903  0.00  0.00     0.002 A 
ATOM     11  C   UNL d   1      32.387  16.294 -24.247  0.00  0.00     0.002 A 
ENDBRANCH   2   3
ENDBRANCH   1   2
BRANCH   1  12
ATOM     12  C   UNL d   1      33.030  20.647 -22.109  0.00  0.00     0.062 C 
BRANCH  12  13
ATOM     13  C   UNL d   1      32.853  21.018 -21.395  0.00  0.00     0.130 C 
BRANCH  13  14
ATOM     14  O   UNL d   1      32.067  21.190 -21.213  0.00  0.00    -0.305 OA
BRANCH  14  15
ATOM     15  C   UNL d   1      32.327  21.819 -20.747  0.00  0.00     0.100 A 
ATOM     16  C   UNL d   1      32.791  21.671 -20.092  0.00  0.00     0.026 A 
ATOM     17  C   UNL d   1      33.054  22.296 -19.622  0.00  0.00     0.013 A 
ATOM     18  C   UNL d   1      32.845  23.074 -19.816  0.00  0.00     0.058 A 
ATOM     19  C   UNL d   1      32.378  23.216 -20.475  0.00  0.00     0.013 A 
ATOM     20 CL   UNL d   1      33.105  23.702 -19.348  0.00  0.00    -0.082 Cl
ATOM     21  C   UNL d   1      32.120  22.585 -20.939  0.00  0.00     0.026 A 
ENDBRANCH  14  15
ENDBRANCH  13  14
ENDBRANCH  12  13
ENDBRANCH   1  12
TORSDOF 6
ENDMDL
MODEL 4
REMARK VINA RESULT:      -1.3      2.784      5.849
REMARK  6 active torsions:
REMARK  status: ('A' for Active; 'I' for Inactive)
REMARK    1  A    between atoms: C_8  and  C_3 
REMARK    2  A    between atoms: C_7  and  O_15 
REMARK    3  A    between atoms: S_9  and  C_8 
REMARK    4  A    between atoms: C_18  and  S_9 
REMARK    5  A    between atoms: O_15  and  C_19 
REMARK    6  A    between atoms: C_19  and  C_18 
ROOT
ATOM      1  S   UNL d   1      31.992  18.252 -23.483  0.00  0.00    -0.081 SA
ENDROOT
BRANCH   1   2
ATOM      2  C   UNL d   1      31.824  17.483 -23.723  0.00  0.00     0.074 C 
BRANCH   2   3
ATOM      3  C   UNL d   1      31.124  17.323 -24.125  0.00  0.00     0.169 A 
ATOM      4  N   UNL d   1      30.513  17.471 -24.677  0.00  0.00    -0.225 NA
ATOM      5  C   UNL d   1      29.968  16.835 -24.637  0.00  0.00     0.101 A 
ATOM      6  C   UNL d   1      30.250  16.303 -24.061  0.00  0.00     0.101 A 
ATOM      7  C   UNL d   1      29.261  16.663 -25.036  0.00  0.00     0.021 A 
ATOM      8  N   UNL d   1      30.962  16.596 -23.741  0.00  0.00    -0.225 NA
ATOM      9  C   UNL d   1      29.819  15.609 -23.896  0.00  0.00     0.021 A 
ATOM     10  C   UNL d   1      29.126  15.453 -24.297  0.00  0.00     0.002 A 
ATOM     11  C   UNL d   1      28.847  15.980 -24.867  0.00  0.00     0.002 A 
ENDBRANCH   2   3
ENDBRANCH   1   2
BRANCH   1  12
ATOM     12  C   UNL d   1      32.729  18.431 -23.163  0.00  0.00     0.062 C 
BRANCH  12  13
ATOM     13  C   UNL d   1      32.845  19.146 -22.772  0.00  0.00     0.130 C 
BRANCH  13  14
ATOM     14  O   UNL d   1      33.029  19.142 -21.967  0.00  0.00    -0.305 OA
BRANCH  14  15
ATOM     15  C   UNL d   1      33.071  19.966 -21.987  0.00  0.00     0.100 A 
ATOM     16  C   UNL d   1      32.989  20.390 -21.294  0.00  0.00     0.026 A 
ATOM     17  C   UNL d   1      33.031  21.214 -21.308  0.00  0.00     0.013 A 
ATOM     18  C   UNL d   1      33.156  21.609 -22.025  0.00  0.00     0.058 A 
ATOM     19  C   UNL d   1      33.238  21.177 -22.718  0.00  0.00     0.013 A 
ATOM     20 CL   UNL d   1      33.198  22.433 -22.043  0.00  0.00    -0.082 Cl
ATOM     21  C   UNL d   1      33.195  20.353 -22.694  0.00  0.00     0.026 A 
ENDBRANCH  14  15
ENDBRANCH  13  14
ENDBRANCH  12  13
ENDBRANCH   1  12
TORSDOF 6
ENDMDL
