MODEL 1
REMARK VINA RESULT:      -3.0      0.000      0.000
REMARK  3 active torsions:
REMARK  status: ('A' for Active; 'I' for Inactive)
REMARK    1  A    between atoms: C_7  and  N_1 
REMARK    2  A    between atoms: C_5  and  C_2 
REMARK    3  A    between atoms: C_11  and  C_7 
ROOT
ATOM      1  N   UNL d   1      31.442  16.706 -24.651  0.00  0.00    -0.262 N 
ATOM      2  C   UNL d   1      30.789  16.209 -24.548  0.00  0.00     0.173 A 
ATOM      3  N   UNL d   1      31.043  15.453 -24.750  0.00  0.00    -0.128 NA
ATOM      4  C   UNL d   1      32.076  16.274 -24.907  0.00  0.00     0.227 A 
ATOM      5  N   UNL d   1      31.835  15.487 -24.972  0.00  0.00    -0.117 NA
ATOM      6  S   UNL d   1      32.862  16.483 -25.097  0.00  0.00    -0.036 SA
ENDROOT
BRANCH   2   7
ATOM      7  C   UNL d   1      30.034  16.414 -24.296  0.00  0.00     0.064 A 
ATOM      8  C   UNL d   1      29.377  16.899 -24.382  0.00  0.00     0.143 A 
ATOM      9  F   UNL d   1      29.542  17.424 -25.003  0.00  0.00    -0.204 F 
ATOM     10  C   UNL d   1      28.721  16.792 -23.881  0.00  0.00     0.030 A 
ATOM     11  C   UNL d   1      28.728  16.204 -23.301  0.00  0.00     0.002 A 
ATOM     12  C   UNL d   1      29.387  15.726 -23.223  0.00  0.00     0.000 A 
ATOM     13  C   UNL d   1      30.047  15.828 -23.722  0.00  0.00     0.005 A 
ENDBRANCH   2   7
BRANCH   1  14
ATOM     14  C   UNL d   1      31.466  17.524 -24.519  0.00  0.00     0.108 C 
BRANCH  14  15
ATOM     15  C   UNL d   1      32.011  17.828 -23.982  0.00  0.00     0.118 A 
ATOM     16  O   UNL d   1      32.144  17.555 -23.215  0.00  0.00    -0.304 OA
ATOM     17  C   UNL d   1      32.734  18.013 -22.868  0.00  0.00     0.123 A 
ATOM     18  C   UNL d   1      32.966  18.575 -23.431  0.00  0.00     0.029 A 
ATOM     19  C   UNL d   1      32.522  18.463 -24.117  0.00  0.00     0.028 A 
ENDBRANCH  14  15
ENDBRANCH   1  14
TORSDOF 3
ENDMDL
MODEL 2
REMARK VINA RESULT:      -2.6      1.642      3.346
REMARK  3 active torsions:
REMARK  status: ('A' for Active; 'I' for Inactive)
REMARK    1  A    between atoms: C_7  and  N_1 
REMARK    2  A    between atoms: C_5  and  C_2 
REMARK    3  A    between atoms: C_11  and  C_7 
ROOT
ATOM      1  N   UNL d   1      30.474  16.725 -24.653  0.00  0.00    -0.262 N 
ATOM      2  C   UNL d   1      31.241  17.008 -24.534  0.00  0.00     0.173 A 
ATOM      3  N   UNL d   1      31.219  17.811 -24.716  0.00  0.00    -0.128 NA
ATOM      4  C   UNL d   1      29.995  17.328 -24.899  0.00  0.00     0.227 A 
ATOM      5  N   UNL d   1      30.454  18.013 -24.941  0.00  0.00    -0.117 NA
ATOM      6  S   UNL d   1      29.185  17.361 -25.097  0.00  0.00    -0.036 SA
ENDROOT
BRANCH   2   7
ATOM      7  C   UNL d   1      31.902  16.587 -24.285  0.00  0.00     0.064 A 
ATOM      8  C   UNL d   1      32.386  15.931 -24.377  0.00  0.00     0.143 A 
ATOM      9  F   UNL d   1      32.075  15.484 -25.003  0.00  0.00    -0.204 F 
ATOM     10  C   UNL d   1      33.044  15.834 -23.875  0.00  0.00     0.030 A 
ATOM     11  C   UNL d   1      33.210  16.392 -23.290  0.00  0.00     0.002 A 
ATOM     12  C   UNL d   1      32.722  17.043 -23.206  0.00  0.00     0.000 A 
ATOM     13  C   UNL d   1      32.062  17.146 -23.705  0.00  0.00     0.005 A 
ENDBRANCH   2   7
BRANCH   1  14
ATOM     14  C   UNL d   1      30.212  15.946 -24.543  0.00  0.00     0.108 C 
BRANCH  14  15
ATOM     15  C   UNL d   1      29.608  15.797 -24.003  0.00  0.00     0.118 A 
ATOM     16  O   UNL d   1      29.650  15.897 -23.186  0.00  0.00    -0.304 OA
ATOM     17  C   UNL d   1      28.926  15.686 -22.854  0.00  0.00     0.123 A 
ATOM     18  C   UNL d   1      28.434  15.453 -23.479  0.00  0.00     0.029 A 
ATOM     19  C   UNL d   1      28.852  15.520 -24.187  0.00  0.00     0.028 A 
ENDBRANCH  14  15
ENDBRANCH   1  14
TORSDOF 3
ENDMDL
MODEL 3
REMARK VINA RESULT:      -1.8      1.244      1.764
REMARK  3 active torsions:
REMARK  status: ('A' for Active; 'I' for Inactive)
REMARK    1  A    between atoms: C_7  and  N_1 
REMARK    2  A    between atoms: C_5  and  C_2 
REMARK    3  A    between atoms: C_11  and  C_7 
ROOT
ATOM      1  N   UNL d   1      31.081  16.797 -24.572  0.00  0.00    -0.262 N 
ATOM      2  C   UNL d   1      30.277  16.968 -24.476  0.00  0.00     0.173 A 
ATOM      3  N   UNL d   1      30.175  17.742 -24.738  0.00  0.00    -0.128 NA
ATOM      4  C   UNL d   1      31.461  17.440 -24.881  0.00  0.00     0.227 A 
ATOM      5  N   UNL d   1      30.901  18.037 -24.988  0.00  0.00    -0.117 NA
ATOM      6  S   UNL d   1      32.258  17.579 -25.088  0.00  0.00    -0.036 SA
ENDROOT
BRANCH   2   7
ATOM      7  C   UNL d   1      29.688  16.476 -24.182  0.00  0.00     0.064 A 
ATOM      8  C   UNL d   1      29.321  16.142 -23.529  0.00  0.00     0.143 A 
ATOM      9  F   UNL d   1      29.717  16.423 -22.855  0.00  0.00    -0.204 F 
ATOM     10  C   UNL d   1      28.675  15.627 -23.641  0.00  0.00     0.030 A 
ATOM     11  C   UNL d   1      28.406  15.453 -24.401  0.00  0.00     0.002 A 
ATOM     12  C   UNL d   1      28.779  15.790 -25.046  0.00  0.00     0.000 A 
ATOM     13  C   UNL d   1      29.425  16.306 -24.941  0.00  0.00     0.005 A 
ENDBRANCH   2   7
BRANCH   1  14
ATOM     14  C   UNL d   1      31.460  16.084 -24.387  0.00  0.00     0.108 C 
BRANCH  14  15
ATOM     15  C   UNL d   1      32.115  16.094 -23.888  0.00  0.00     0.118 A 
ATOM     16  O   UNL d   1      32.311  16.691 -23.354  0.00  0.00    -0.304 OA
ATOM     17  C   UNL d   1      33.007  16.483 -22.966  0.00  0.00     0.123 A 
ATOM     18  C   UNL d   1      33.241  15.747 -23.269  0.00  0.00     0.029 A 
ATOM     19  C   UNL d   1      32.693  15.507 -23.836  0.00  0.00     0.028 A 
ENDBRANCH  14  15
ENDBRANCH   1  14
TORSDOF 3
ENDMDL
MODEL 4
REMARK VINA RESULT:      -1.5      1.906      3.171
REMARK  3 active torsions:
REMARK  status: ('A' for Active; 'I' for Inactive)
REMARK    1  A    between atoms: C_7  and  N_1 
REMARK    2  A    between atoms: C_5  and  C_2 
REMARK    3  A    between atoms: C_11  and  C_7 
ROOT
ATOM      1  N   UNL d   1      29.806  16.249 -23.871  0.00  0.00    -0.262 N 
ATOM      2  C   UNL d   1      30.527  16.045 -23.523  0.00  0.00     0.173 A 
ATOM      3  N   UNL d   1      30.344  15.549 -22.892  0.00  0.00    -0.128 NA
ATOM      4  C   UNL d   1      29.200  15.894 -23.472  0.00  0.00     0.227 A 
ATOM      5  N   UNL d   1      29.528  15.453 -22.856  0.00  0.00    -0.117 NA
ATOM      6  S   UNL d   1      28.372  15.904 -23.578  0.00  0.00    -0.036 SA
ENDROOT
BRANCH   2   7
ATOM      7  C   UNL d   1      31.282  16.281 -23.749  0.00  0.00     0.064 A 
ATOM      8  C   UNL d   1      31.870  16.853 -23.725  0.00  0.00     0.143 A 
ATOM      9  F   UNL d   1      31.581  17.482 -23.268  0.00  0.00    -0.204 F 
ATOM     10  C   UNL d   1      32.588  16.718 -24.126  0.00  0.00     0.030 A 
ATOM     11  C   UNL d   1      32.710  16.016 -24.543  0.00  0.00     0.002 A 
ATOM     12  C   UNL d   1      32.117  15.453 -24.561  0.00  0.00     0.000 A 
ATOM     13  C   UNL d   1      31.397  15.581 -24.162  0.00  0.00     0.005 A 
ENDBRANCH   2   7
BRANCH   1  14
ATOM     14  C   UNL d   1      29.697  16.741 -24.530  0.00  0.00     0.108 C 
BRANCH  14  15
ATOM     15  C   UNL d   1      29.196  17.391 -24.467  0.00  0.00     0.118 A 
ATOM     16  O   UNL d   1      28.907  17.718 -23.767  0.00  0.00    -0.304 OA
ATOM     17  C   UNL d   1      28.425  18.360 -23.952  0.00  0.00     0.123 A 
ATOM     18  C   UNL d   1      28.420  18.427 -24.779  0.00  0.00     0.029 A 
ATOM     19  C   UNL d   1      28.893  17.832 -25.097  0.00  0.00     0.028 A 
ENDBRANCH  14  15
ENDBRANCH   1  14
TORSDOF 3
ENDMDL
MODEL 5
REMARK VINA RESULT:      -1.5      1.816      2.526
REMARK  3 active torsions:
REMARK  status: ('A' for Active; 'I' for Inactive)
REMARK    1  A    between atoms: C_7  and  N_1 
REMARK    2  A    between atoms: C_5  and  C_2 
REMARK    3  A    between atoms: C_11  and  C_7 
ROOT
ATOM      1  N   UNL d   1      32.659  18.377 -23.904  0.00  0.00    -0.262 N 
ATOM      2  C   UNL d   1      32.116  17.829 -24.202  0.00  0.00     0.173 A 
ATOM      3  N   UNL d   1      31.890  18.110 -24.942  0.00  0.00    -0.128 NA
ATOM      4  C   UNL d   1      32.766  18.973 -24.439  0.00  0.00     0.227 A 
ATOM      5  N   UNL d   1      32.288  18.815 -25.092  0.00  0.00    -0.117 NA
ATOM      6  S   UNL d   1      33.241  19.660 -24.431  0.00  0.00    -0.036 SA
ENDROOT
BRANCH   2   7
ATOM      7  C   UNL d   1      31.846  17.140 -23.844  0.00  0.00     0.064 A 
ATOM      8  C   UNL d   1      32.025  16.431 -23.471  0.00  0.00     0.143 A 
ATOM      9  F   UNL d   1      32.853  16.378 -23.434  0.00  0.00    -0.204 F 
ATOM     10  C   UNL d   1      31.407  15.934 -23.217  0.00  0.00     0.030 A 
ATOM     11  C   UNL d   1      30.620  16.150 -23.338  0.00  0.00     0.002 A 
ATOM     12  C   UNL d   1      30.451  16.858 -23.711  0.00  0.00     0.000 A 
ATOM     13  C   UNL d   1      31.065  17.360 -23.967  0.00  0.00     0.005 A 
ENDBRANCH   2   7
BRANCH   1  14
ATOM     14  C   UNL d   1      33.048  18.340 -23.173  0.00  0.00     0.108 C 
BRANCH  14  15
ATOM     15  C   UNL d   1      32.943  18.951 -22.631  0.00  0.00     0.118 A 
ATOM     16  O   UNL d   1      32.524  19.649 -22.759  0.00  0.00    -0.304 OA
ATOM     17  C   UNL d   1      32.557  20.108 -22.076  0.00  0.00     0.123 A 
ATOM     18  C   UNL d   1      33.002  19.683 -21.521  0.00  0.00     0.029 A 
ATOM     19  C   UNL d   1      33.241  18.971 -21.861  0.00  0.00     0.028 A 
ENDBRANCH  14  15
ENDBRANCH   1  14
TORSDOF 3
ENDMDL
