MODEL 1
REMARK VINA RESULT:     107.3      0.000      0.000
REMARK  6 active torsions:
REMARK  status: ('A' for Active; 'I' for Inactive)
REMARK    1  A    between atoms: C_19  and  N_1 
REMARK    2  A    between atoms: S_12  and  C_2 
REMARK       I    between atoms: N_7  and  C_10 
REMARK    3  A    between atoms: C_10  and  C_23 
REMARK    4  A    between atoms: C_23  and  S_12 
REMARK    5  A    between atoms: O_26  and  C_17 
REMARK    6  A    between atoms: O_27  and  C_18 
ROOT
ATOM      1  S   UNL d   1     -55.790-102.652 -40.151  0.00  0.00    -0.044 SA
ENDROOT
BRANCH   1   2
ATOM      2  C   UNL d   1     -55.865-102.691 -39.333  0.00  0.00     0.183 A 
ATOM      3  N   UNL d   1     -56.614-102.764 -38.988  0.00  0.00    -0.254 N 
ATOM      4  C   UNL d   1     -56.691-102.804 -38.167  0.00  0.00     0.271 A 
ATOM      5  C   UNL d   1     -56.019-102.770 -37.687  0.00  0.00     0.115 A 
ATOM      6  O   UNL d   1     -57.447-102.877 -37.826  0.00  0.00    -0.266 OA
ATOM      7  C   UNL d   1     -55.267-102.697 -38.037  0.00  0.00     0.192 A 
ATOM      8  C   UNL d   1     -55.918-102.796 -36.867  0.00  0.00     0.130 A 
ATOM      9  N   UNL d   1     -54.711-102.678 -37.427  0.00  0.00    -0.128 NA
ATOM     10  N   UNL d   1     -55.192-102.658 -38.854  0.00  0.00    -0.201 NA
ATOM     11  N   UNL d   1     -55.108-102.739 -36.717  0.00  0.00    -0.145 NA
BRANCH   3  12
ATOM     12  C   UNL d   1     -57.283-102.797 -39.465  0.00  0.00     0.069 A 
ATOM     13  C   UNL d   1     -58.034-102.781 -39.123  0.00  0.00     0.018 A 
ATOM     14  C   UNL d   1     -58.710-102.814 -39.606  0.00  0.00     0.002 A 
ATOM     15  C   UNL d   1     -58.629-102.864 -40.425  0.00  0.00     0.000 A 
ATOM     16  C   UNL d   1     -57.881-102.880 -40.764  0.00  0.00     0.002 A 
ATOM     17  C   UNL d   1     -57.204-102.847 -40.281  0.00  0.00     0.018 A 
ENDBRANCH   3  12
ENDBRANCH   1   2
BRANCH   1  18
ATOM     18  C   UNL d   1     -55.054-102.498 -40.490  0.00  0.00     0.099 C 
BRANCH  18  19
ATOM     19  C   UNL d   1     -54.935-101.806 -40.918  0.00  0.00     0.271 C 
ATOM     20  N   UNL d   1     -54.979-101.816 -41.745  0.00  0.00    -0.272 N 
ATOM     21  C   UNL d   1     -54.860-101.122 -42.176  0.00  0.00     0.083 A 
ATOM     22  C   UNL d   1     -55.141-102.521 -42.138  0.00  0.00     0.083 A 
ATOM     23  C   UNL d   1     -54.904-101.136 -42.996  0.00  0.00     0.020 A 
ATOM     24  C   UNL d   1     -54.786-100.445 -43.423  0.00  0.00     0.028 A 
ATOM     25  C   UNL d   1     -55.067-101.841 -43.389  0.00  0.00     0.005 A 
ATOM     26  C   UNL d   1     -54.830-100.454 -44.251  0.00  0.00     0.116 A 
ATOM     27  C   UNL d   1     -54.992-101.159 -44.644  0.00  0.00     0.116 A 
ATOM     28  C   UNL d   1     -55.111-101.854 -44.208  0.00  0.00     0.026 A 
ATOM     29  C   UNL d   1     -55.185-102.532 -42.961  0.00  0.00     0.019 A 
ATOM     30  O   UNL d   1     -54.773-101.104 -40.520  0.00  0.00    -0.266 OA
BRANCH  26  31
ATOM     31  O   UNL d   1     -54.711 -99.760 -44.682  0.00  0.00    -0.326 OA
ATOM     32  C   UNL d   1     -54.919 -99.030 -44.363  0.00  0.00     0.181 C 
ENDBRANCH  26  31
BRANCH  27  33
ATOM     33  O   UNL d   1     -55.038-101.181 -45.473  0.00  0.00    -0.326 OA
ATOM     34  C   UNL d   1     -55.054-101.902 -45.870  0.00  0.00     0.181 C 
ENDBRANCH  27  33
ENDBRANCH  18  19
ENDBRANCH   1  18
TORSDOF 6
ENDMDL
