MODEL 1
REMARK VINA RESULT:      -8.7      0.000      0.000
REMARK  8 active torsions:
REMARK  status: ('A' for Active; 'I' for Inactive)
REMARK    1  A    between atoms: C_4  and  C_1 
REMARK    2  A    between atoms: N_6  and  C_3 
REMARK    3  A    between atoms: O_18  and  C_4 
REMARK       I    between atoms: C_7  and  N_6 
REMARK    4  A    between atoms: C_16  and  C_7 
REMARK    5  A    between atoms: C_10  and  C_8 
REMARK    6  A    between atoms: C_9  and  S_11 
REMARK    7  A    between atoms: S_11  and  C_16 
REMARK    8  A    between atoms: C_24  and  O_18 
ROOT
ATOM      1  N   UNL d   1      48.838  35.237  52.786  0.00  0.00    -0.207 NA
ATOM      2  C   UNL d   1      49.399  34.729  52.458  0.00  0.00     0.286 C 
ATOM      3  O   UNL d   1      49.300  34.450  51.688  0.00  0.00    -0.265 OA
ENDROOT
BRANCH   2   4
ATOM      4  C   UNL d   1      50.055  34.500  52.898  0.00  0.00     0.099 C 
BRANCH   4   5
ATOM      5  S   UNL d   1      50.709  34.183  52.515  0.00  0.00    -0.061 SA
BRANCH   5   6
ATOM      6  C   UNL d   1      51.416  34.068  52.924  0.00  0.00     0.133 A 
ATOM      7  N   UNL d   1      51.558  33.365  53.321  0.00  0.00    -0.141 NA
ATOM      8  N   UNL d   1      52.265  33.250  53.730  0.00  0.00    -0.148 NA
ATOM      9  C   UNL d   1      52.841  33.846  53.742  0.00  0.00     0.104 A 
ATOM     10  C   UNL d   1      52.700  34.556  53.342  0.00  0.00     0.023 A 
ATOM     11  C   UNL d   1      51.993  34.669  52.935  0.00  0.00     0.029 A 
BRANCH   9  12
ATOM     12  C   UNL d   1      53.548  33.730  54.150  0.00  0.00     0.039 A 
ATOM     13  C   UNL d   1      53.704  34.168  54.818  0.00  0.00     0.101 A 
ATOM     14  N   UNL d   1      54.404  34.057  55.227  0.00  0.00    -0.242 NA
ATOM     15  C   UNL d   1      54.955  33.495  54.957  0.00  0.00     0.099 A 
ATOM     16  C   UNL d   1      54.794  33.057  54.285  0.00  0.00     0.021 A 
ATOM     17  C   UNL d   1      54.089  33.166  53.869  0.00  0.00     0.005 A 
ENDBRANCH   9  12
ENDBRANCH   5   6
ENDBRANCH   4   5
ENDBRANCH   2   4
BRANCH   1  18
ATOM     18  C   UNL d   1      48.185  35.464  52.349  0.00  0.00     0.090 A 
ATOM     19  C   UNL d   1      47.623  35.972  52.677  0.00  0.00     0.081 A 
ATOM     20  C   UNL d   1      46.967  36.200  52.238  0.00  0.00     0.007 A 
ATOM     21  C   UNL d   1      46.868  35.925  51.470  0.00  0.00     0.000 A 
ATOM     22  C   UNL d   1      47.430  35.411  51.129  0.00  0.00     0.002 A 
ATOM     23  C   UNL d   1      48.086  35.187  51.578  0.00  0.00     0.019 A 
BRANCH  19  24
ATOM     24  C   UNL d   1      47.728  36.243  53.443  0.00  0.00     0.302 C 
ATOM     25  O   UNL d   1      48.378  36.709  53.625  0.00  0.00    -0.259 OA
BRANCH  24  26
ATOM     26  O   UNL d   1      47.185  36.051  54.030  0.00  0.00    -0.271 OA
BRANCH  26  27
ATOM     27  C   UNL d   1      47.160  36.494  54.726  0.00  0.00     0.126 C 
ATOM     28  C   UNL d   1      46.580  36.330  55.293  0.00  0.00     0.029 C 
ENDBRANCH  26  27
ENDBRANCH  24  26
ENDBRANCH  19  24
ENDBRANCH   1  18
TORSDOF 8
ENDMDL
MODEL 2
REMARK VINA RESULT:      -8.2      1.942      6.376
REMARK  8 active torsions:
REMARK  status: ('A' for Active; 'I' for Inactive)
REMARK    1  A    between atoms: C_4  and  C_1 
REMARK    2  A    between atoms: N_6  and  C_3 
REMARK    3  A    between atoms: O_18  and  C_4 
REMARK       I    between atoms: C_7  and  N_6 
REMARK    4  A    between atoms: C_16  and  C_7 
REMARK    5  A    between atoms: C_10  and  C_8 
REMARK    6  A    between atoms: C_9  and  S_11 
REMARK    7  A    between atoms: S_11  and  C_16 
REMARK    8  A    between atoms: C_24  and  O_18 
ROOT
ATOM      1  N   UNL d   1      52.224  33.091  53.523  0.00  0.00    -0.207 NA
ATOM      2  C   UNL d   1      51.811  33.805  53.520  0.00  0.00     0.286 C 
ATOM      3  O   UNL d   1      52.160  34.482  53.836  0.00  0.00    -0.265 OA
ENDROOT
BRANCH   2   4
ATOM      4  C   UNL d   1      51.053  33.842  53.203  0.00  0.00     0.099 C 
BRANCH   4   5
ATOM      5  S   UNL d   1      50.908  34.327  52.557  0.00  0.00    -0.061 SA
BRANCH   5   6
ATOM      6  C   UNL d   1      50.141  34.581  52.390  0.00  0.00     0.133 A 
ATOM      7  N   UNL d   1      49.696  34.965  52.961  0.00  0.00    -0.141 NA
ATOM      8  N   UNL d   1      48.929  35.219  52.795  0.00  0.00    -0.148 NA
ATOM      9  C   UNL d   1      48.601  35.088  52.044  0.00  0.00     0.104 A 
ATOM     10  C   UNL d   1      49.048  34.701  51.466  0.00  0.00     0.023 A 
ATOM     11  C   UNL d   1      49.813  34.449  51.635  0.00  0.00     0.029 A 
BRANCH   9  12
ATOM     12  C   UNL d   1      47.834  35.342  51.878  0.00  0.00     0.039 A 
ATOM     13  C   UNL d   1      47.416  34.992  51.274  0.00  0.00     0.101 A 
ATOM     14  N   UNL d   1      46.654  35.242  51.106  0.00  0.00    -0.242 NA
ATOM     15  C   UNL d   1      46.311  35.853  51.553  0.00  0.00     0.099 A 
ATOM     16  C   UNL d   1      46.736  36.202  52.159  0.00  0.00     0.021 A 
ATOM     17  C   UNL d   1      47.504  35.954  52.333  0.00  0.00     0.005 A 
ENDBRANCH   9  12
ENDBRANCH   5   6
ENDBRANCH   4   5
ENDBRANCH   2   4
BRANCH   1  18
ATOM     18  C   UNL d   1      52.978  33.054  53.839  0.00  0.00     0.090 A 
ATOM     19  C   UNL d   1      53.459  32.401  53.687  0.00  0.00     0.081 A 
ATOM     20  C   UNL d   1      54.217  32.365  54.004  0.00  0.00     0.007 A 
ATOM     21  C   UNL d   1      54.498  32.977  54.474  0.00  0.00     0.000 A 
ATOM     22  C   UNL d   1      54.019  33.641  54.634  0.00  0.00     0.002 A 
ATOM     23  C   UNL d   1      53.259  33.670  54.311  0.00  0.00     0.019 A 
BRANCH  19  24
ATOM     24  C   UNL d   1      53.173  31.793  53.218  0.00  0.00     0.302 C 
ATOM     25  O   UNL d   1      53.117  31.897  52.405  0.00  0.00    -0.259 OA
BRANCH  24  26
ATOM     26  O   UNL d   1      52.941  31.081  53.556  0.00  0.00    -0.271 OA
BRANCH  26  27
ATOM     27  C   UNL d   1      52.863  30.408  53.084  0.00  0.00     0.126 C 
ATOM     28  C   UNL d   1      52.748  29.671  53.440  0.00  0.00     0.029 C 
ENDBRANCH  26  27
ENDBRANCH  24  26
ENDBRANCH  19  24
ENDBRANCH   1  18
TORSDOF 8
ENDMDL
MODEL 3
REMARK VINA RESULT:      -7.9      2.084      6.174
REMARK  8 active torsions:
REMARK  status: ('A' for Active; 'I' for Inactive)
REMARK    1  A    between atoms: C_4  and  C_1 
REMARK    2  A    between atoms: N_6  and  C_3 
REMARK    3  A    between atoms: O_18  and  C_4 
REMARK       I    between atoms: C_7  and  N_6 
REMARK    4  A    between atoms: C_16  and  C_7 
REMARK    5  A    between atoms: C_10  and  C_8 
REMARK    6  A    between atoms: C_9  and  S_11 
REMARK    7  A    between atoms: S_11  and  C_16 
REMARK    8  A    between atoms: C_24  and  O_18 
ROOT
ATOM      1  N   UNL d   1      52.577  32.792  53.282  0.00  0.00    -0.207 NA
ATOM      2  C   UNL d   1      51.774  32.868  53.104  0.00  0.00     0.286 C 
ATOM      3  O   UNL d   1      51.326  32.196  52.938  0.00  0.00    -0.265 OA
ENDROOT
BRANCH   2   4
ATOM      4  C   UNL d   1      51.423  33.611  53.092  0.00  0.00     0.099 C 
BRANCH   4   5
ATOM      5  S   UNL d   1      50.969  33.835  52.446  0.00  0.00    -0.061 SA
BRANCH   5   6
ATOM      6  C   UNL d   1      50.306  34.315  52.548  0.00  0.00     0.133 A 
ATOM      7  N   UNL d   1      50.189  34.721  53.249  0.00  0.00    -0.141 NA
ATOM      8  N   UNL d   1      49.526  35.201  53.351  0.00  0.00    -0.148 NA
ATOM      9  C   UNL d   1      48.970  35.276  52.741  0.00  0.00     0.104 A 
ATOM     10  C   UNL d   1      49.085  34.867  52.031  0.00  0.00     0.023 A 
ATOM     11  C   UNL d   1      49.748  34.389  51.933  0.00  0.00     0.029 A 
BRANCH   9  12
ATOM     12  C   UNL d   1      48.307  35.757  52.842  0.00  0.00     0.039 A 
ATOM     13  C   UNL d   1      48.183  36.127  53.557  0.00  0.00     0.101 A 
ATOM     14  N   UNL d   1      47.527  36.604  53.662  0.00  0.00    -0.242 NA
ATOM     15  C   UNL d   1      46.987  36.709  53.037  0.00  0.00     0.099 A 
ATOM     16  C   UNL d   1      47.116  36.335  52.321  0.00  0.00     0.021 A 
ATOM     17  C   UNL d   1      47.777  35.853  52.210  0.00  0.00     0.005 A 
ENDBRANCH   9  12
ENDBRANCH   5   6
ENDBRANCH   4   5
ENDBRANCH   2   4
BRANCH   1  18
ATOM     18  C   UNL d   1      52.926  32.053  53.294  0.00  0.00     0.090 A 
ATOM     19  C   UNL d   1      53.708  31.968  53.545  0.00  0.00     0.081 A 
ATOM     20  C   UNL d   1      54.059  31.225  53.557  0.00  0.00     0.007 A 
ATOM     21  C   UNL d   1      53.634  30.563  53.318  0.00  0.00     0.000 A 
ATOM     22  C   UNL d   1      52.843  30.638  53.063  0.00  0.00     0.002 A 
ATOM     23  C   UNL d   1      52.498  31.389  53.054  0.00  0.00     0.019 A 
BRANCH  19  24
ATOM     24  C   UNL d   1      54.126  32.632  53.781  0.00  0.00     0.302 C 
ATOM     25  O   UNL d   1      54.453  33.130  53.217  0.00  0.00    -0.259 OA
BRANCH  24  26
ATOM     26  O   UNL d   1      54.220  32.801  54.580  0.00  0.00    -0.271 OA
BRANCH  26  27
ATOM     27  C   UNL d   1      54.796  33.341  54.820  0.00  0.00     0.126 C 
ATOM     28  C   UNL d   1      54.755  33.672  55.577  0.00  0.00     0.029 C 
ENDBRANCH  26  27
ENDBRANCH  24  26
ENDBRANCH  19  24
ENDBRANCH   1  18
TORSDOF 8
ENDMDL
