MODEL 1
REMARK VINA RESULT:      24.5      0.000      0.000
REMARK  1 active torsions:
REMARK  status: ('A' for Active; 'I' for Inactive)
REMARK    1  A    between atoms: C_14  and  C_6 
ROOT
ATOM      1  C   UNL d   1     -51.325  26.141  33.426  0.00  0.00     0.174 A 
ATOM      2  N   UNL d   1     -50.502  26.183  33.395  0.00  0.00    -0.250 N 
ATOM      3  C   UNL d   1     -51.722  25.413  33.397  0.00  0.00     0.061 A 
ATOM      4  C   UNL d   1     -51.283  24.717  33.337  0.00  0.00     0.115 A 
ATOM      5  N   UNL d   1     -50.464  24.776  33.307  0.00  0.00    -0.221 NA
ATOM      6  C   UNL d   1     -50.063  25.488  33.334  0.00  0.00     0.151 A 
ATOM      7  N   UNL d   1     -51.623  26.963  33.488  0.00  0.00    -0.128 NA
ATOM      8  C   UNL d   1     -50.246  27.023  33.436  0.00  0.00     0.228 A 
ATOM      9  S   UNL d   1     -51.679  24.009  33.309  0.00  0.00    -0.068 SA
ATOM     10  C   UNL d   1     -52.918  24.658  33.400  0.00  0.00     0.011 A 
ATOM     11  C   UNL d   1     -52.479  23.962  33.339  0.00  0.00     0.031 A 
ATOM     12  N   UNL d   1     -50.967  27.478  33.493  0.00  0.00    -0.117 NA
ATOM     13  S   UNL d   1     -49.527  27.201  33.417  0.00  0.00    -0.036 SA
ATOM     14  C   UNL d   1     -53.755  24.607  33.431  0.00  0.00     0.001 A 
ATOM     15  C   UNL d   1     -52.894  23.241  33.312  0.00  0.00     0.006 A 
ATOM     16  C   UNL d   1     -54.139  23.887  33.402  0.00  0.00     0.000 A 
ATOM     17  C   UNL d   1     -53.699  23.192  33.341  0.00  0.00     0.001 A 
ENDROOT
BRANCH   6  18
ATOM     18  C   UNL d   1     -49.400  25.485  33.307  0.00  0.00     0.037 C 
ATOM     19  C   UNL d   1     -48.949  25.003  33.322  0.00  0.00     0.003 C 
ENDBRANCH   6  18
TORSDOF 1
ENDMDL
