MODEL 1
REMARK VINA RESULT:      16.5      0.000      0.000
REMARK  3 active torsions:
REMARK  status: ('A' for Active; 'I' for Inactive)
REMARK    1  A    between atoms: C_8  and  C_1 
REMARK    2  A    between atoms: C_9  and  C_8 
REMARK    3  A    between atoms: O_16  and  C_13 
ROOT
ATOM      1  C   UNL d   1     -51.879  25.066  33.306  0.00  0.00     0.013 A 
ATOM      2  C   UNL d   1     -50.685  25.867  33.307  0.00  0.00     0.105 A 
ATOM      3  O   UNL d   1     -50.233  25.187  33.307  0.00  0.00    -0.273 OA
ATOM      4  C   UNL d   1     -51.520  25.812  33.306  0.00  0.00     0.023 A 
ATOM      5  C   UNL d   1     -50.596  24.445  33.307  0.00  0.00     0.300 A 
ATOM      6  C   UNL d   1     -51.417  24.386  33.306  0.00  0.00     0.069 A 
ATOM      7  C   UNL d   1     -50.333  26.601  33.307  0.00  0.00     0.049 A 
ATOM      8  C   UNL d   1     -51.977  26.492  33.306  0.00  0.00     0.004 A 
ATOM      9  O   UNL d   1     -50.122  23.752  33.307  0.00  0.00    -0.259 OA
ATOM     10  C   UNL d   1     -50.795  27.293  33.307  0.00  0.00     0.096 A 
ATOM     11  C   UNL d   1     -51.613  27.238  33.306  0.00  0.00     0.024 A 
ENDROOT
BRANCH   1  12
ATOM     12  C   UNL d   1     -52.702  25.017  33.306  0.00  0.00     0.070 C 
BRANCH  12  13
ATOM     13  C   UNL d   1     -53.063  24.287  33.453  0.00  0.00     0.211 C 
ATOM     14  O   UNL d   1     -53.882  24.253  33.607  0.00  0.00    -0.644 OA
ATOM     15  O   UNL d   1     -52.619  23.592  33.448  0.00  0.00    -0.644 OA
ENDBRANCH  12  13
ENDBRANCH   1  12
BRANCH  10  16
ATOM     16  O   UNL d   1     -50.431  28.032  33.307  0.00  0.00    -0.328 OA
ATOM     17  C   UNL d   1     -50.888  28.720  33.371  0.00  0.00     0.181 C 
ENDBRANCH  10  16
TORSDOF 3
ENDMDL
