MODEL 1
REMARK VINA RESULT:      15.7      0.000      0.000
REMARK  0 active torsions:
REMARK  status: ('A' for Active; 'I' for Inactive)
ROOT
ATOM      1  C   UNL d   1      57.788  49.695  50.523  0.00  0.00     0.061 A 
ATOM      2  C   UNL d   1      58.613  49.693  50.529  0.00  0.00     0.279 A 
ATOM      3  C   UNL d   1      57.383  49.698  49.807  0.00  0.00     0.045 A 
ATOM      4  N   UNL d   1      59.028  49.695  49.821  0.00  0.00    -0.206 NA
ATOM      5  C   UNL d   1      56.553  49.700  49.804  0.00  0.00     0.196 A 
ATOM      6  O   UNL d   1      59.019  49.690  51.245  0.00  0.00    -0.265 OA
ATOM      7  C   UNL d   1      58.617  49.698  49.103  0.00  0.00     0.102 A 
ATOM      8  O   UNL d   1      56.148  49.703  49.088  0.00  0.00    -0.287 OA
ATOM      9  C   UNL d   1      57.791  49.700  49.103  0.00  0.00     0.024 A 
ATOM     10  C   UNL d   1      57.369  49.693  51.243  0.00  0.00     0.005 A 
ATOM     11  C   UNL d   1      56.548  49.695  51.236  0.00  0.00     0.003 A 
ATOM     12  C   UNL d   1      56.142  49.698  50.519  0.00  0.00     0.042 A 
ENDROOT
TORSDOF 0
ENDMDL
MODEL 2
REMARK VINA RESULT:      15.9      1.288      2.066
REMARK  0 active torsions:
REMARK  status: ('A' for Active; 'I' for Inactive)
ROOT
ATOM      1  C   UNL d   1      57.320  49.621  50.359  0.00  0.00     0.061 A 
ATOM      2  C   UNL d   1      56.497  49.579  50.324  0.00  0.00     0.279 A 
ATOM      3  C   UNL d   1      57.761  49.642  49.664  0.00  0.00     0.045 A 
ATOM      4  N   UNL d   1      56.119  49.557  49.596  0.00  0.00    -0.206 NA
ATOM      5  C   UNL d   1      58.588  49.685  49.703  0.00  0.00     0.196 A 
ATOM      6  O   UNL d   1      56.056  49.558  51.019  0.00  0.00    -0.265 OA
ATOM      7  C   UNL d   1      56.565  49.578  48.900  0.00  0.00     0.102 A 
ATOM      8  O   UNL d   1      59.028  49.706  49.008  0.00  0.00    -0.287 OA
ATOM      9  C   UNL d   1      57.389  49.621  48.941  0.00  0.00     0.024 A 
ATOM     10  C   UNL d   1      57.702  49.643  51.100  0.00  0.00     0.005 A 
ATOM     11  C   UNL d   1      58.521  49.686  51.133  0.00  0.00     0.003 A 
ATOM     12  C   UNL d   1      58.962  49.707  50.437  0.00  0.00     0.042 A 
ENDROOT
TORSDOF 0
ENDMDL
MODEL 3
REMARK VINA RESULT:      16.6      2.420      3.286
REMARK  0 active torsions:
REMARK  status: ('A' for Active; 'I' for Inactive)
ROOT
ATOM      1  C   UNL d   1      60.039  49.701  51.580  0.00  0.00     0.061 A 
ATOM      2  C   UNL d   1      60.319  49.701  52.356  0.00  0.00     0.279 A 
ATOM      3  C   UNL d   1      60.569  49.701  50.951  0.00  0.00     0.045 A 
ATOM      4  N   UNL d   1      61.128  49.701  52.499  0.00  0.00    -0.206 NA
ATOM      5  C   UNL d   1      60.284  49.701  50.173  0.00  0.00     0.196 A 
ATOM      6  O   UNL d   1      59.789  49.702  52.985  0.00  0.00    -0.265 OA
ATOM      7  C   UNL d   1      61.658  49.701  51.864  0.00  0.00     0.102 A 
ATOM      8  O   UNL d   1      60.815  49.700  49.544  0.00  0.00    -0.287 OA
ATOM      9  C   UNL d   1      61.371  49.700  51.090  0.00  0.00     0.024 A 
ATOM     10  C   UNL d   1      59.217  49.702  51.437  0.00  0.00     0.005 A 
ATOM     11  C   UNL d   1      58.940  49.701  50.665  0.00  0.00     0.003 A 
ATOM     12  C   UNL d   1      59.471  49.701  50.035  0.00  0.00     0.042 A 
ENDROOT
TORSDOF 0
ENDMDL
MODEL 4
REMARK VINA RESULT:      16.9      1.562      2.829
REMARK  0 active torsions:
REMARK  status: ('A' for Active; 'I' for Inactive)
ROOT
ATOM      1  C   UNL d   1      59.202  49.707  51.080  0.00  0.00     0.061 A 
ATOM      2  C   UNL d   1      58.379  49.707  51.018  0.00  0.00     0.279 A 
ATOM      3  C   UNL d   1      59.665  49.707  50.399  0.00  0.00     0.045 A 
ATOM      4  N   UNL d   1      58.023  49.707  50.279  0.00  0.00    -0.206 NA
ATOM      5  C   UNL d   1      60.491  49.707  50.464  0.00  0.00     0.196 A 
ATOM      6  O   UNL d   1      57.916  49.707  51.699  0.00  0.00    -0.265 OA
ATOM      7  C   UNL d   1      58.492  49.707  49.597  0.00  0.00     0.102 A 
ATOM      8  O   UNL d   1      60.954  49.708  49.783  0.00  0.00    -0.287 OA
ATOM      9  C   UNL d   1      59.315  49.707  49.665  0.00  0.00     0.024 A 
ATOM     10  C   UNL d   1      59.561  49.707  51.832  0.00  0.00     0.005 A 
ATOM     11  C   UNL d   1      60.379  49.707  51.891  0.00  0.00     0.003 A 
ATOM     12  C   UNL d   1      60.843  49.707  51.210  0.00  0.00     0.042 A 
ENDROOT
TORSDOF 0
ENDMDL
MODEL 5
REMARK VINA RESULT:      18.3      1.826      2.855
REMARK  0 active torsions:
REMARK  status: ('A' for Active; 'I' for Inactive)
ROOT
ATOM      1  C   UNL d   1      60.111  49.648  50.678  0.00  0.00     0.061 A 
ATOM      2  C   UNL d   1      60.903  49.619  50.911  0.00  0.00     0.279 A 
ATOM      3  C   UNL d   1      59.516  49.663  51.246  0.00  0.00     0.045 A 
ATOM      4  N   UNL d   1      61.094  49.604  51.709  0.00  0.00    -0.206 NA
ATOM      5  C   UNL d   1      58.722  49.693  51.009  0.00  0.00     0.196 A 
ATOM      6  O   UNL d   1      61.498  49.604  50.342  0.00  0.00    -0.265 OA
ATOM      7  C   UNL d   1      60.494  49.620  52.277  0.00  0.00     0.102 A 
ATOM      8  O   UNL d   1      58.127  49.708  51.577  0.00  0.00    -0.287 OA
ATOM      9  C   UNL d   1      59.703  49.649  52.038  0.00  0.00     0.024 A 
ATOM     10  C   UNL d   1      59.918  49.663  49.867  0.00  0.00     0.005 A 
ATOM     11  C   UNL d   1      59.131  49.692  49.637  0.00  0.00     0.003 A 
ATOM     12  C   UNL d   1      58.536  49.707  50.206  0.00  0.00     0.042 A 
ENDROOT
TORSDOF 0
ENDMDL
