MODEL 1
REMARK VINA RESULT:      12.5      0.000      0.000
REMARK  5 active torsions:
REMARK  status: ('A' for Active; 'I' for Inactive)
REMARK    1  A    between atoms: C_2  and  S_1 
REMARK    2  A    between atoms: C_9  and  S_1 
REMARK    3  A    between atoms: N_5  and  C_3 
REMARK    4  A    between atoms: O_28  and  C_23 
REMARK    5  A    between atoms: O_29  and  C_24 
ROOT
ATOM      1  C   UNL d   1      57.911   0.139  31.843  0.00  0.00     0.123 A 
ATOM      2  C   UNL d   1      57.410  -0.507  31.748  0.00  0.00     0.078 A 
ATOM      3  C   UNL d   1      56.774  -0.610  32.262  0.00  0.00     0.036 A 
ATOM      4  C   UNL d   1      57.777   0.682  32.449  0.00  0.00     0.112 A 
ATOM      5  N   UNL d   1      57.142   0.579  32.962  0.00  0.00    -0.243 NA
ATOM      6  C   UNL d   1      56.640  -0.067  32.868  0.00  0.00     0.083 A 
ATOM      7  C   UNL d   1      56.273  -1.256  32.167  0.00  0.00     0.027 A 
ATOM      8  C   UNL d   1      56.004  -0.171  33.381  0.00  0.00     0.021 A 
ATOM      9  C   UNL d   1      55.636  -1.359  32.681  0.00  0.00     0.094 A 
ATOM     10  C   UNL d   1      55.502  -0.816  33.287  0.00  0.00     0.026 A 
ENDROOT
BRANCH   1  11
ATOM     11  S   UNL d   1      58.557   0.249  31.326  0.00  0.00     0.213 S 
ATOM     12  O   UNL d   1      59.053  -0.157  31.860  0.00  0.00    -0.217 OA
ATOM     13  O   UNL d   1      58.062   0.652  30.795  0.00  0.00    -0.217 OA
BRANCH  11  14
ATOM     14  C   UNL d   1      59.203   0.358  30.810  0.00  0.00     0.088 A 
ATOM     15  C   UNL d   1      59.973   0.256  31.092  0.00  0.00     0.013 A 
ATOM     16  C   UNL d   1      60.614   0.362  30.587  0.00  0.00     0.025 A 
ATOM     17  C   UNL d   1      60.488   0.573  29.788  0.00  0.00     0.094 A 
ATOM     18  C   UNL d   1      59.707   0.673  29.515  0.00  0.00     0.025 A 
ATOM     19  C   UNL d   1      59.073   0.566  30.022  0.00  0.00     0.013 A 
BRANCH  17  20
ATOM     20  O   UNL d   1      61.133   0.681  29.277  0.00  0.00    -0.328 OA
ATOM     21  C   UNL d   1      61.035   0.598  28.462  0.00  0.00     0.181 C 
ENDBRANCH  17  20
ENDBRANCH  11  14
ENDBRANCH   1  11
BRANCH   2  22
ATOM     22  N   UNL d   1      57.544  -1.050  31.142  0.00  0.00    -0.303 N 
ATOM     23  C   UNL d   1      57.999  -1.722  31.282  0.00  0.00     0.081 A 
ATOM     24  C   UNL d   1      58.134  -2.270  30.670  0.00  0.00     0.053 A 
ATOM     25  C   UNL d   1      57.814  -2.140  29.923  0.00  0.00     0.239 A 
ATOM     26  C   UNL d   1      57.353  -1.462  29.774  0.00  0.00     0.053 A 
ATOM     27  O   UNL d   1      57.527  -2.085  29.140  0.00  0.00    -0.298 OA
ATOM     28  O   UNL d   1      58.253  -2.834  29.977  0.00  0.00    -0.298 OA
ATOM     29  C   UNL d   1      57.217  -0.914  30.386  0.00  0.00     0.081 A 
ATOM     30  C   UNL d   1      57.798  -2.750  28.725  0.00  0.00     0.146 A 
ATOM     31  C   UNL d   1      58.245  -3.212  29.242  0.00  0.00     0.146 A 
ENDBRANCH   2  22
BRANCH   9  32
ATOM     32  O   UNL d   1      55.136  -2.011  32.580  0.00  0.00    -0.328 OA
ATOM     33  C   UNL d   1      54.504  -2.123  33.101  0.00  0.00     0.181 C 
ENDBRANCH   9  32
TORSDOF 5
ENDMDL
