MODEL 1
REMARK VINA RESULT:      -8.1      0.000      0.000
REMARK  4 active torsions:
REMARK  status: ('A' for Active; 'I' for Inactive)
REMARK    1  A    between atoms: C_9  and  N_1 
REMARK    2  A    between atoms: C_2  and  C_9 
REMARK    3  A    between atoms: S_13  and  C_5 
REMARK    4  A    between atoms: C_17  and  S_13 
ROOT
ATOM      1  N   UNL d   1      53.051  32.886  53.298  0.00  0.00    -0.265 N 
ATOM      2  C   UNL d   1      53.090  32.064  53.216  0.00  0.00     0.296 A 
ATOM      3  S   UNL d   1      53.574  31.778  53.817  0.00  0.00    -0.025 SA
ATOM      4  C   UNL d   1      53.503  33.111  53.941  0.00  0.00     0.074 A 
ATOM      5  C   UNL d   1      53.830  32.431  54.268  0.00  0.00     0.050 A 
ATOM      6  O   UNL d   1      52.714  31.617  52.639  0.00  0.00    -0.259 OA
ATOM      7  C   UNL d   1      53.667  33.850  54.282  0.00  0.00     0.018 A 
ATOM      8  C   UNL d   1      54.320  32.482  54.932  0.00  0.00     0.008 A 
ATOM      9  C   UNL d   1      54.155  33.905  54.945  0.00  0.00     0.002 A 
ATOM     10  C   UNL d   1      54.479  33.210  55.266  0.00  0.00     0.001 A 
ENDROOT
BRANCH   1  11
ATOM     11  C   UNL d   1      52.626  33.402  52.813  0.00  0.00     0.123 C 
BRANCH  11  12
ATOM     12  C   UNL d   1      51.831  33.533  52.945  0.00  0.00     0.189 A 
ATOM     13  N   UNL d   1      51.416  34.046  52.462  0.00  0.00    -0.265 N 
ATOM     14  C   UNL d   1      50.637  34.067  52.725  0.00  0.00     0.201 A 
ATOM     15  C   UNL d   1      51.712  34.474  51.823  0.00  0.00     0.103 C 
ATOM     16  N   UNL d   1      50.572  33.564  53.371  0.00  0.00    -0.121 NA
ATOM     17  N   UNL d   1      51.313  33.234  53.505  0.00  0.00    -0.126 NA
BRANCH  14  18
ATOM     18  S   UNL d   1      50.026  34.513  52.399  0.00  0.00    -0.048 SA
BRANCH  18  19
ATOM     19  C   UNL d   1      49.419  34.805  52.875  0.00  0.00     0.038 C 
ATOM     20  C   UNL d   1      48.789  35.220  52.540  0.00  0.00     0.008 C 
ENDBRANCH  18  19
ENDBRANCH  14  18
ENDBRANCH  11  12
ENDBRANCH   1  11
TORSDOF 4
ENDMDL
MODEL 2
REMARK VINA RESULT:      -7.2      1.836      4.030
REMARK  4 active torsions:
REMARK  status: ('A' for Active; 'I' for Inactive)
REMARK    1  A    between atoms: C_9  and  N_1 
REMARK    2  A    between atoms: C_2  and  C_9 
REMARK    3  A    between atoms: S_13  and  C_5 
REMARK    4  A    between atoms: C_17  and  S_13 
ROOT
ATOM      1  N   UNL d   1      52.896  32.949  53.073  0.00  0.00    -0.265 N 
ATOM      2  C   UNL d   1      53.505  33.467  53.284  0.00  0.00     0.296 A 
ATOM      3  S   UNL d   1      53.166  34.200  53.439  0.00  0.00    -0.025 SA
ATOM      4  C   UNL d   1      52.185  33.353  53.095  0.00  0.00     0.074 A 
ATOM      5  C   UNL d   1      52.343  34.127  53.321  0.00  0.00     0.050 A 
ATOM      6  O   UNL d   1      54.304  33.281  53.331  0.00  0.00    -0.259 OA
ATOM      7  C   UNL d   1      51.403  33.122  52.940  0.00  0.00     0.018 A 
ATOM      8  C   UNL d   1      51.727  34.675  53.393  0.00  0.00     0.008 A 
ATOM      9  C   UNL d   1      50.786  33.665  53.010  0.00  0.00     0.002 A 
ATOM     10  C   UNL d   1      50.958  34.444  53.239  0.00  0.00     0.001 A 
ENDROOT
BRANCH   1  11
ATOM     11  C   UNL d   1      52.985  32.154  52.871  0.00  0.00     0.123 C 
BRANCH  11  12
ATOM     12  C   UNL d   1      53.148  31.597  53.445  0.00  0.00     0.189 A 
ATOM     13  N   UNL d   1      53.094  30.801  53.269  0.00  0.00    -0.265 N 
ATOM     14  C   UNL d   1      53.288  30.377  53.947  0.00  0.00     0.201 A 
ATOM     15  C   UNL d   1      52.886  30.466  52.545  0.00  0.00     0.103 C 
ATOM     16  N   UNL d   1      53.461  30.915  54.543  0.00  0.00    -0.121 NA
ATOM     17  N   UNL d   1      53.373  31.670  54.230  0.00  0.00    -0.126 NA
BRANCH  14  18
ATOM     18  S   UNL d   1      53.306  29.557  54.020  0.00  0.00    -0.048 SA
BRANCH  18  19
ATOM     19  C   UNL d   1      53.369  29.203  54.761  0.00  0.00     0.038 C 
ATOM     20  C   UNL d   1      53.451  28.383  54.827  0.00  0.00     0.008 C 
ENDBRANCH  18  19
ENDBRANCH  14  18
ENDBRANCH  11  12
ENDBRANCH   1  11
TORSDOF 4
ENDMDL
MODEL 3
REMARK VINA RESULT:      -6.7      2.194      3.164
REMARK  4 active torsions:
REMARK  status: ('A' for Active; 'I' for Inactive)
REMARK    1  A    between atoms: C_9  and  N_1 
REMARK    2  A    between atoms: C_2  and  C_9 
REMARK    3  A    between atoms: S_13  and  C_5 
REMARK    4  A    between atoms: C_17  and  S_13 
ROOT
ATOM      1  N   UNL d   1      53.387  31.081  53.472  0.00  0.00    -0.265 N 
ATOM      2  C   UNL d   1      52.950  30.978  52.778  0.00  0.00     0.296 A 
ATOM      3  S   UNL d   1      52.638  30.218  52.790  0.00  0.00    -0.025 SA
ATOM      4  C   UNL d   1      53.348  30.393  53.913  0.00  0.00     0.074 A 
ATOM      5  C   UNL d   1      52.887  29.854  53.499  0.00  0.00     0.050 A 
ATOM      6  O   UNL d   1      52.847  31.537  52.184  0.00  0.00    -0.259 OA
ATOM      7  C   UNL d   1      53.674  30.177  54.646  0.00  0.00     0.018 A 
ATOM      8  C   UNL d   1      52.746  29.100  53.808  0.00  0.00     0.008 A 
ATOM      9  C   UNL d   1      53.536  29.426  54.959  0.00  0.00     0.002 A 
ATOM     10  C   UNL d   1      53.067  28.890  54.529  0.00  0.00     0.001 A 
ENDROOT
BRANCH   1  11
ATOM     11  C   UNL d   1      53.797  31.763  53.691  0.00  0.00     0.123 C 
BRANCH  11  12
ATOM     12  C   UNL d   1      53.393  32.445  53.881  0.00  0.00     0.189 A 
ATOM     13  N   UNL d   1      53.803  33.103  54.142  0.00  0.00    -0.265 N 
ATOM     14  C   UNL d   1      53.256  33.700  54.290  0.00  0.00     0.201 A 
ATOM     15  C   UNL d   1      54.618  33.173  54.243  0.00  0.00     0.103 C 
ATOM     16  N   UNL d   1      52.507  33.408  54.121  0.00  0.00    -0.121 NA
ATOM     17  N   UNL d   1      52.595  32.631  53.868  0.00  0.00    -0.126 NA
BRANCH  14  18
ATOM     18  S   UNL d   1      53.426  34.459  54.562  0.00  0.00    -0.048 SA
BRANCH  18  19
ATOM     19  C   UNL d   1      52.885  35.073  54.458  0.00  0.00     0.038 C 
ATOM     20  C   UNL d   1      53.070  35.838  54.705  0.00  0.00     0.008 C 
ENDBRANCH  18  19
ENDBRANCH  14  18
ENDBRANCH  11  12
ENDBRANCH   1  11
TORSDOF 4
ENDMDL
