MODEL 1
REMARK VINA RESULT:      57.7      0.000      0.000
REMARK  5 active torsions:
REMARK  status: ('A' for Active; 'I' for Inactive)
REMARK    1  A    between atoms: C_14  and  N_4 
REMARK    2  A    between atoms: C_12  and  N_6 
REMARK    3  A    between atoms: C_10  and  C_12 
REMARK       I    between atoms: N_11  and  C_10 
REMARK    4  A    between atoms: C_13  and  N_11 
REMARK    5  A    between atoms: O_18  and  C_17 
ROOT
ATOM      1  C   UNL d   1      13.675  13.049  -2.979  0.00  0.00     0.172 A 
ATOM      2  C   UNL d   1      13.271  12.908  -3.685  0.00  0.00     0.113 A 
ATOM      3  N   UNL d   1      13.986  13.792  -2.823  0.00  0.00    -0.206 NA
ATOM      4  N   UNL d   1      13.674  12.341  -2.547  0.00  0.00    -0.212 N 
ATOM      5  C   UNL d   1      13.179  13.509  -4.235  0.00  0.00     0.271 A 
ATOM      6  N   UNL d   1      13.492  14.261  -4.082  0.00  0.00    -0.251 N 
ATOM      7  N   UNL d   1      13.274  11.779  -2.988  0.00  0.00    -0.162 NA
ATOM      8  C   UNL d   1      13.895  14.402  -3.376  0.00  0.00     0.187 A 
ATOM      9  C   UNL d   1      13.028  12.114  -3.677  0.00  0.00     0.129 A 
ATOM     10  O   UNL d   1      12.776  13.368  -4.941  0.00  0.00    -0.266 OA
ENDROOT
BRANCH   6  11
ATOM     11  C   UNL d   1      13.402  14.878  -4.637  0.00  0.00     0.147 C 
BRANCH  11  12
ATOM     12  C   UNL d   1      13.942  15.511  -4.645  0.00  0.00     0.297 C 
ATOM     13  N   UNL d   1      13.728  16.214  -5.022  0.00  0.00    -0.205 NA
ATOM     14  O   UNL d   1      14.670  15.429  -4.284  0.00  0.00    -0.264 OA
BRANCH  13  15
ATOM     15  C   UNL d   1      14.268  16.847  -5.031  0.00  0.00     0.107 A 
ATOM     16  C   UNL d   1      14.219  17.396  -5.635  0.00  0.00     0.112 A 
ATOM     17  C   UNL d   1      14.759  18.029  -5.644  0.00  0.00     0.026 A 
ATOM     18  C   UNL d   1      15.325  18.098  -5.059  0.00  0.00     0.002 A 
ATOM     19  C   UNL d   1      15.374  17.549  -4.454  0.00  0.00     0.002 A 
ATOM     20  C   UNL d   1      14.837  16.922  -4.449  0.00  0.00     0.021 A 
BRANCH  16  21
ATOM     21  O   UNL d   1      13.652  17.328  -6.220  0.00  0.00    -0.327 OA
ATOM     22  C   UNL d   1      13.146  17.946  -6.389  0.00  0.00     0.181 C 
ENDBRANCH  16  21
ENDBRANCH  13  15
ENDBRANCH  11  12
ENDBRANCH   6  11
BRANCH   4  23
ATOM     23  C   UNL d   1      13.998  12.188  -1.815  0.00  0.00     0.085 A 
ATOM     24  C   UNL d   1      14.818  12.282  -1.695  0.00  0.00     0.019 A 
ATOM     25  C   UNL d   1      15.138  12.127  -0.958  0.00  0.00     0.002 A 
ATOM     26  C   UNL d   1      14.645  11.875  -0.324  0.00  0.00     0.000 A 
ATOM     27  C   UNL d   1      13.847  11.788  -0.454  0.00  0.00     0.002 A 
ATOM     28  C   UNL d   1      13.517  11.941  -1.192  0.00  0.00     0.019 A 
ENDBRANCH   4  23
TORSDOF 5
ENDMDL
