MODEL 1
REMARK VINA RESULT:      69.2      0.000      0.000
REMARK  3 active torsions:
REMARK  status: ('A' for Active; 'I' for Inactive)
REMARK    1  A    between atoms: N_11  and  C_4 
REMARK       I    between atoms: C_5  and  N_9 
REMARK       I    between atoms: N_12  and  C_5 
REMARK    2  A    between atoms: C_6  and  C_7 
REMARK    3  A    between atoms: C_14  and  N_12 
ROOT
ATOM      1  C   UNL d   1     -49.508  26.967  34.373  0.00  0.00     0.354 C 
ATOM      2  N   UNL d   1     -49.132  27.695  34.531  0.00  0.00    -0.253 N 
ATOM      3  N   UNL d   1     -48.399  29.134  34.834  0.00  0.00    -0.285 N 
ATOM      4  N   UNL d   1     -50.069  26.911  33.770  0.00  0.00    -0.192 NA
ATOM      5  O   UNL d   1     -49.315  26.299  34.824  0.00  0.00    -0.244 OA
ATOM      6  C   UNL d   1     -49.324  28.360  34.082  0.00  0.00     0.104 A 
ATOM      7  C   UNL d   1     -48.571  27.751  35.134  0.00  0.00     0.104 A 
ATOM      8  C   UNL d   1     -48.954  29.081  34.236  0.00  0.00     0.101 A 
ATOM      9  C   UNL d   1     -48.207  28.468  35.283  0.00  0.00     0.101 A 
ENDROOT
BRANCH   4  10
ATOM     10  C   UNL d   1     -50.438  26.189  33.617  0.00  0.00     0.090 A 
ATOM     11  C   UNL d   1     -51.249  26.165  33.459  0.00  0.00     0.089 A 
ATOM     12  C   UNL d   1     -51.615  25.445  33.307  0.00  0.00     0.005 A 
ATOM     13  C   UNL d   1     -51.177  24.751  33.311  0.00  0.00     0.000 A 
ATOM     14  C   UNL d   1     -50.363  24.778  33.469  0.00  0.00     0.002 A 
ATOM     15  C   UNL d   1     -50.001  25.495  33.621  0.00  0.00     0.019 A 
BRANCH  11  16
ATOM     16  C   UNL d   1     -51.689  26.863  33.455  0.00  0.00     0.420 C 
ATOM     17  F   UNL d   1     -52.129  27.560  33.451  0.00  0.00    -0.166 F 
ATOM     18  F   UNL d   1     -52.377  26.429  33.562  0.00  0.00    -0.166 F 
ATOM     19  F   UNL d   1     -50.997  27.299  33.347  0.00  0.00    -0.166 F 
ENDBRANCH  11  16
ENDBRANCH   4  10
BRANCH   3  20
ATOM     20  C   UNL d   1     -48.029  29.855  34.988  0.00  0.00     0.168 A 
ATOM     21  N   UNL d   1     -48.237  30.527  34.556  0.00  0.00    -0.144 NA
ATOM     22  N   UNL d   1     -47.868  31.244  34.711  0.00  0.00    -0.187 N 
ATOM     23  C   UNL d   1     -47.290  31.293  35.297  0.00  0.00     0.187 A 
ATOM     24  C   UNL d   1     -47.952  31.993  34.383  0.00  0.00     0.224 A 
ATOM     25  N   UNL d   1     -47.021  32.073  35.328  0.00  0.00    -0.127 NA
ATOM     26  C   UNL d   1     -47.081  30.626  35.729  0.00  0.00     0.044 A 
ATOM     27  N   UNL d   1     -47.439  32.501  34.755  0.00  0.00    -0.124 NA
ATOM     28  C   UNL d   1     -47.451  29.905  35.574  0.00  0.00     0.042 A 
ENDBRANCH   3  20
TORSDOF 3
ENDMDL
MODEL 2
REMARK VINA RESULT:      70.3      2.279      5.758
REMARK  3 active torsions:
REMARK  status: ('A' for Active; 'I' for Inactive)
REMARK    1  A    between atoms: N_11  and  C_4 
REMARK       I    between atoms: C_5  and  N_9 
REMARK       I    between atoms: N_12  and  C_5 
REMARK    2  A    between atoms: C_6  and  C_7 
REMARK    3  A    between atoms: C_14  and  N_12 
ROOT
ATOM      1  C   UNL d   1     -48.777  29.428  34.233  0.00  0.00     0.354 C 
ATOM      2  N   UNL d   1     -49.139  28.690  34.095  0.00  0.00    -0.253 N 
ATOM      3  N   UNL d   1     -49.847  27.230  33.833  0.00  0.00    -0.285 N 
ATOM      4  N   UNL d   1     -48.294  29.538  34.894  0.00  0.00    -0.192 NA
ATOM      5  O   UNL d   1     -48.903  30.053  33.703  0.00  0.00    -0.244 OA
ATOM      6  C   UNL d   1     -49.013  28.068  34.622  0.00  0.00     0.104 A 
ATOM      7  C   UNL d   1     -49.621  28.580  33.434  0.00  0.00     0.104 A 
ATOM      8  C   UNL d   1     -49.370  27.336  34.488  0.00  0.00     0.101 A 
ATOM      9  C   UNL d   1     -49.972  27.852  33.306  0.00  0.00     0.101 A 
ENDROOT
BRANCH   4  10
ATOM     10  C   UNL d   1     -47.938  30.271  35.027  0.00  0.00     0.090 A 
ATOM     11  C   UNL d   1     -47.360  30.348  35.612  0.00  0.00     0.089 A 
ATOM     12  C   UNL d   1     -47.006  31.079  35.743  0.00  0.00     0.005 A 
ATOM     13  C   UNL d   1     -47.225  31.729  35.294  0.00  0.00     0.000 A 
ATOM     14  C   UNL d   1     -47.807  31.649  34.707  0.00  0.00     0.002 A 
ATOM     15  C   UNL d   1     -48.157  30.921  34.579  0.00  0.00     0.019 A 
BRANCH  11  16
ATOM     16  C   UNL d   1     -47.139  29.694  36.063  0.00  0.00     0.420 C 
ATOM     17  F   UNL d   1     -46.918  29.039  36.514  0.00  0.00    -0.166 F 
ATOM     18  F   UNL d   1     -46.439  29.637  35.637  0.00  0.00    -0.166 F 
ATOM     19  F   UNL d   1     -47.842  29.751  36.490  0.00  0.00    -0.166 F 
ENDBRANCH  11  16
ENDBRANCH   4  10
BRANCH   3  20
ATOM     20  C   UNL d   1     -50.203  26.498  33.699  0.00  0.00     0.168 A 
ATOM     21  N   UNL d   1     -51.025  26.441  33.652  0.00  0.00    -0.144 NA
ATOM     22  N   UNL d   1     -51.378  25.712  33.519  0.00  0.00    -0.187 N 
ATOM     23  C   UNL d   1     -50.912  25.036  33.432  0.00  0.00     0.187 A 
ATOM     24  C   UNL d   1     -52.163  25.481  33.445  0.00  0.00     0.224 A 
ATOM     25  N   UNL d   1     -51.413  24.393  33.306  0.00  0.00    -0.127 NA
ATOM     26  C   UNL d   1     -50.094  25.090  33.479  0.00  0.00     0.044 A 
ATOM     27  N   UNL d   1     -52.190  24.679  33.316  0.00  0.00    -0.124 NA
ATOM     28  C   UNL d   1     -49.738  25.823  33.613  0.00  0.00     0.042 A 
ENDBRANCH   3  20
TORSDOF 3
ENDMDL
MODEL 3
REMARK VINA RESULT:      71.2      1.277      2.174
REMARK  3 active torsions:
REMARK  status: ('A' for Active; 'I' for Inactive)
REMARK    1  A    between atoms: N_11  and  C_4 
REMARK       I    between atoms: C_5  and  N_9 
REMARK       I    between atoms: N_12  and  C_5 
REMARK    2  A    between atoms: C_6  and  C_7 
REMARK    3  A    between atoms: C_14  and  N_12 
ROOT
ATOM      1  C   UNL d   1     -50.518  25.396  33.660  0.00  0.00     0.354 C 
ATOM      2  N   UNL d   1     -50.126  26.112  33.825  0.00  0.00    -0.253 N 
ATOM      3  N   UNL d   1     -49.363  27.530  34.153  0.00  0.00    -0.285 N 
ATOM      4  N   UNL d   1     -51.328  25.322  33.803  0.00  0.00    -0.192 NA
ATOM      5  O   UNL d   1     -50.091  24.755  33.352  0.00  0.00    -0.244 OA
ATOM      6  C   UNL d   1     -50.550  26.750  34.132  0.00  0.00     0.104 A 
ATOM      7  C   UNL d   1     -49.316  26.186  33.682  0.00  0.00     0.104 A 
ATOM      8  C   UNL d   1     -50.165  27.461  34.296  0.00  0.00     0.101 A 
ATOM      9  C   UNL d   1     -48.939  26.893  33.846  0.00  0.00     0.101 A 
ENDROOT
BRANCH   4  10
ATOM     10  C   UNL d   1     -51.712  24.610  33.638  0.00  0.00     0.090 A 
ATOM     11  C   UNL d   1     -52.521  24.607  33.471  0.00  0.00     0.089 A 
ATOM     12  C   UNL d   1     -52.902  23.897  33.308  0.00  0.00     0.005 A 
ATOM     13  C   UNL d   1     -52.481  23.193  33.310  0.00  0.00     0.000 A 
ATOM     14  C   UNL d   1     -51.669  23.199  33.479  0.00  0.00     0.002 A 
ATOM     15  C   UNL d   1     -51.291  23.906  33.641  0.00  0.00     0.019 A 
BRANCH  11  16
ATOM     16  C   UNL d   1     -52.944  25.315  33.468  0.00  0.00     0.420 C 
ATOM     17  F   UNL d   1     -53.368  26.023  33.466  0.00  0.00    -0.166 F 
ATOM     18  F   UNL d   1     -53.636  24.902  33.625  0.00  0.00    -0.166 F 
ATOM     19  F   UNL d   1     -52.249  25.730  33.311  0.00  0.00    -0.166 F 
ENDBRANCH  11  16
ENDBRANCH   4  10
BRANCH   3  20
ATOM     20  C   UNL d   1     -48.978  28.242  34.317  0.00  0.00     0.168 A 
ATOM     21  N   UNL d   1     -48.468  28.296  34.964  0.00  0.00    -0.144 NA
ATOM     22  N   UNL d   1     -48.086  29.005  35.125  0.00  0.00    -0.187 N 
ATOM     23  C   UNL d   1     -48.211  29.662  34.642  0.00  0.00     0.187 A 
ATOM     24  C   UNL d   1     -47.559  29.228  35.715  0.00  0.00     0.224 A 
ATOM     25  N   UNL d   1     -47.759  30.287  34.936  0.00  0.00    -0.127 NA
ATOM     26  C   UNL d   1     -48.718  29.610  33.998  0.00  0.00     0.044 A 
ATOM     27  N   UNL d   1     -47.356  30.007  35.604  0.00  0.00    -0.124 NA
ATOM     28  C   UNL d   1     -49.103  28.899  33.834  0.00  0.00     0.042 A 
ENDBRANCH   3  20
TORSDOF 3
ENDMDL
MODEL 4
REMARK VINA RESULT:      72.0      1.589      2.481
REMARK  3 active torsions:
REMARK  status: ('A' for Active; 'I' for Inactive)
REMARK    1  A    between atoms: N_11  and  C_4 
REMARK       I    between atoms: C_5  and  N_9 
REMARK       I    between atoms: N_12  and  C_5 
REMARK    2  A    between atoms: C_6  and  C_7 
REMARK    3  A    between atoms: C_14  and  N_12 
ROOT
ATOM      1  C   UNL d   1     -51.206  26.258  33.828  0.00  0.00     0.354 C 
ATOM      2  N   UNL d   1     -50.652  26.834  34.065  0.00  0.00    -0.253 N 
ATOM      3  N   UNL d   1     -49.555  27.962  34.539  0.00  0.00    -0.285 N 
ATOM      4  N   UNL d   1     -51.094  25.465  34.031  0.00  0.00    -0.192 NA
ATOM      5  O   UNL d   1     -51.870  26.483  33.387  0.00  0.00    -0.244 OA
ATOM      6  C   UNL d   1     -49.991  26.610  34.505  0.00  0.00     0.104 A 
ATOM      7  C   UNL d   1     -50.764  27.627  33.863  0.00  0.00     0.104 A 
ATOM      8  C   UNL d   1     -49.442  27.179  34.742  0.00  0.00     0.101 A 
ATOM      9  C   UNL d   1     -50.217  28.186  34.099  0.00  0.00     0.101 A 
ENDROOT
BRANCH   4  10
ATOM     10  C   UNL d   1     -51.644  24.897  33.794  0.00  0.00     0.090 A 
ATOM     11  C   UNL d   1     -51.388  24.154  33.541  0.00  0.00     0.089 A 
ATOM     12  C   UNL d   1     -51.937  23.590  33.305  0.00  0.00     0.005 A 
ATOM     13  C   UNL d   1     -52.738  23.764  33.321  0.00  0.00     0.000 A 
ATOM     14  C   UNL d   1     -52.994  24.511  33.576  0.00  0.00     0.002 A 
ATOM     15  C   UNL d   1     -52.446  25.071  33.810  0.00  0.00     0.019 A 
BRANCH  11  16
ATOM     16  C   UNL d   1     -50.581  23.980  33.525  0.00  0.00     0.420 C 
ATOM     17  F   UNL d   1     -49.775  23.805  33.510  0.00  0.00    -0.166 F 
ATOM     18  F   UNL d   1     -50.417  24.757  33.320  0.00  0.00    -0.166 F 
ATOM     19  F   UNL d   1     -50.747  23.198  33.732  0.00  0.00    -0.166 F 
ENDBRANCH  11  16
ENDBRANCH   4  10
BRANCH   3  20
ATOM     20  C   UNL d   1     -49.006  28.531  34.775  0.00  0.00     0.168 A 
ATOM     21  N   UNL d   1     -48.683  28.503  35.534  0.00  0.00    -0.144 NA
ATOM     22  N   UNL d   1     -48.136  29.070  35.767  0.00  0.00    -0.187 N 
ATOM     23  C   UNL d   1     -47.909  29.666  35.244  0.00  0.00     0.187 A 
ATOM     24  C   UNL d   1     -47.726  29.187  36.470  0.00  0.00     0.224 A 
ATOM     25  N   UNL d   1     -47.360  30.148  35.627  0.00  0.00    -0.127 NA
ATOM     26  C   UNL d   1     -48.229  29.696  34.488  0.00  0.00     0.044 A 
ATOM     27  N   UNL d   1     -47.252  29.843  36.389  0.00  0.00    -0.124 NA
ATOM     28  C   UNL d   1     -48.779  29.127  34.253  0.00  0.00     0.042 A 
ENDBRANCH   3  20
TORSDOF 3
ENDMDL
