MODEL 1
REMARK VINA RESULT:      27.3      0.000      0.000
REMARK  2 active torsions:
REMARK  status: ('A' for Active; 'I' for Inactive)
REMARK       I    between atoms: C_3  and  N_1 
REMARK    1  A    between atoms: C_6  and  C_3 
REMARK    2  A    between atoms: O_16  and  C_11 
ROOT
ATOM      1  N   UNL d   1      58.219  49.654  50.567  0.00  0.00    -0.175 N 
ATOM      2  N   UNL d   1      57.951  49.629  51.344  0.00  0.00    -0.057 NA
ATOM      3  C   UNL d   1      59.007  49.683  50.327  0.00  0.00     0.282 C 
ATOM      4  N   UNL d   1      57.131  49.604  51.338  0.00  0.00    -0.129 NA
ATOM      5  C   UNL d   1      57.545  49.645  50.077  0.00  0.00     0.107 A 
ATOM      6  C   UNL d   1      56.883  49.615  50.545  0.00  0.00     0.122 A 
ATOM      7  O   UNL d   1      59.190  49.706  49.527  0.00  0.00    -0.265 OA
ATOM      8  C   UNL d   1      57.465  49.660  49.257  0.00  0.00     0.021 A 
ATOM      9  C   UNL d   1      56.120  49.599  50.202  0.00  0.00     0.022 A 
ATOM     10  C   UNL d   1      56.723  49.646  48.902  0.00  0.00     0.002 A 
ATOM     11  C   UNL d   1      56.037  49.615  49.379  0.00  0.00     0.002 A 
ENDROOT
BRANCH   3  12
ATOM     12  C   UNL d   1      59.606  49.688  50.891  0.00  0.00     0.059 A 
ATOM     13  C   UNL d   1      60.395  49.684  50.665  0.00  0.00     0.013 A 
ATOM     14  C   UNL d   1      61.001  49.689  51.228  0.00  0.00     0.057 A 
ATOM     15 BR   UNL d   1      61.791  49.684  50.993  0.00  0.00    -0.047 Br
ATOM     16  C   UNL d   1      60.811  49.699  52.033  0.00  0.00     0.100 A 
ATOM     17  C   UNL d   1      60.020  49.704  52.266  0.00  0.00     0.025 A 
ATOM     18  C   UNL d   1      59.420  49.698  51.694  0.00  0.00     0.007 A 
BRANCH  16  19
ATOM     19  O   UNL d   1      61.406  49.705  52.617  0.00  0.00    -0.328 OA
ATOM     20  C   UNL d   1      61.203  49.698  53.422  0.00  0.00     0.181 C 
ENDBRANCH  16  19
ENDBRANCH   3  12
TORSDOF 2
ENDMDL
