MODEL 1
REMARK VINA RESULT:      -8.5      0.000      0.000
REMARK  7 active torsions:
REMARK  status: ('A' for Active; 'I' for Inactive)
REMARK    1  A    between atoms: C_4  and  S_1 
REMARK    2  A    between atoms: N_6  and  S_1 
REMARK    3  A    between atoms: S_2  and  N_3 
REMARK    4  A    between atoms: C_8  and  S_2 
REMARK    5  A    between atoms: N_3  and  C_7 
REMARK    6  A    between atoms: C_20  and  N_13 
REMARK    7  A    between atoms: C_18  and  C_20 
ROOT
ATOM      1  C   UNL d   1      52.249  33.945  53.590  0.00  0.00     0.105 A 
ATOM      2  C   UNL d   1      52.771  33.347  53.369  0.00  0.00     0.029 A 
ATOM      3  C   UNL d   1      53.445  33.199  53.820  0.00  0.00     0.076 A 
ATOM      4  C   UNL d   1      52.406  34.400  54.272  0.00  0.00     0.013 A 
ATOM      5  C   UNL d   1      53.599  33.645  54.490  0.00  0.00     0.017 A 
ATOM      6  C   UNL d   1      53.083  34.245  54.719  0.00  0.00     0.002 A 
ATOM      7  C   UNL d   1      52.614  32.899  52.695  0.00  0.00     0.002 C 
ATOM      8  C   UNL d   1      54.274  33.494  54.939  0.00  0.00     0.002 C 
ENDROOT
BRANCH   1   9
ATOM      9  S   UNL d   1      51.574  34.094  53.138  0.00  0.00     0.272 S 
ATOM     10  O   UNL d   1      51.615  34.602  52.493  0.00  0.00    -0.200 OA
ATOM     11  O   UNL d   1      50.859  33.731  53.338  0.00  0.00    -0.200 OA
BRANCH   9  12
ATOM     12  N   UNL d   1      50.895  34.238  52.692  0.00  0.00    -0.226 N 
ATOM     13  C   UNL d   1      50.949  34.270  51.875  0.00  0.00     0.111 A 
ATOM     14  C   UNL d   1      50.270  34.414  51.429  0.00  0.00     0.100 A 
ATOM     15  N   UNL d   1      49.545  34.524  51.804  0.00  0.00    -0.300 N 
ATOM     16  C   UNL d   1      49.499  34.490  52.625  0.00  0.00     0.100 A 
ATOM     17  C   UNL d   1      50.178  34.346  53.071  0.00  0.00     0.111 A 
BRANCH  15  18
ATOM     18  C   UNL d   1      48.870  34.667  51.351  0.00  0.00     0.080 C 
BRANCH  18  19
ATOM     19  C   UNL d   1      48.283  35.181  51.624  0.00  0.00     0.018 C 
ATOM     20  C   UNL d   1      47.594  34.876  51.960  0.00  0.00     0.002 C 
ATOM     21  C   UNL d   1      48.386  35.996  51.563  0.00  0.00     0.002 C 
ENDBRANCH  18  19
ENDBRANCH  15  18
ENDBRANCH   9  12
ENDBRANCH   1   9
BRANCH   3  22
ATOM     22  N   UNL d   1      53.961  32.600  53.593  0.00  0.00    -0.229 N 
ATOM     23  C   UNL d   1      54.665  32.784  53.192  0.00  0.00     0.111 C 
BRANCH  22  24
ATOM     24  S   UNL d   1      53.781  31.812  53.762  0.00  0.00     0.271 S 
ATOM     25  O   UNL d   1      54.211  31.999  53.080  0.00  0.00    -0.200 OA
ATOM     26  O   UNL d   1      53.535  32.419  54.269  0.00  0.00    -0.200 OA
BRANCH  24  27
ATOM     27  C   UNL d   1      53.601  31.025  53.931  0.00  0.00     0.104 A 
ATOM     28  C   UNL d   1      53.436  30.499  53.319  0.00  0.00     0.013 A 
ATOM     29  C   UNL d   1      53.259  29.724  53.486  0.00  0.00     0.001 A 
ATOM     30  C   UNL d   1      53.242  29.461  54.259  0.00  0.00     0.000 A 
ATOM     31  C   UNL d   1      53.404  29.977  54.881  0.00  0.00     0.001 A 
ATOM     32  C   UNL d   1      53.062  28.674  54.429  0.00  0.00     0.000 C 
ATOM     33  C   UNL d   1      53.585  30.765  54.716  0.00  0.00     0.013 A 
ENDBRANCH  24  27
ENDBRANCH  22  24
ENDBRANCH   3  22
TORSDOF 7
ENDMDL
MODEL 2
REMARK VINA RESULT:      -7.0      1.018      1.504
REMARK  7 active torsions:
REMARK  status: ('A' for Active; 'I' for Inactive)
REMARK    1  A    between atoms: C_4  and  S_1 
REMARK    2  A    between atoms: N_6  and  S_1 
REMARK    3  A    between atoms: S_2  and  N_3 
REMARK    4  A    between atoms: C_8  and  S_2 
REMARK    5  A    between atoms: N_3  and  C_7 
REMARK    6  A    between atoms: C_20  and  N_13 
REMARK    7  A    between atoms: C_18  and  C_20 
ROOT
ATOM      1  C   UNL d   1      51.637  34.381  52.748  0.00  0.00     0.105 A 
ATOM      2  C   UNL d   1      51.899  33.845  53.317  0.00  0.00     0.029 A 
ATOM      3  C   UNL d   1      52.704  33.682  53.394  0.00  0.00     0.076 A 
ATOM      4  C   UNL d   1      52.191  34.758  52.251  0.00  0.00     0.013 A 
ATOM      5  C   UNL d   1      53.247  34.053  52.905  0.00  0.00     0.017 A 
ATOM      6  C   UNL d   1      52.995  34.591  52.334  0.00  0.00     0.002 A 
ATOM      7  C   UNL d   1      51.350  33.473  53.807  0.00  0.00     0.002 C 
ATOM      8  C   UNL d   1      54.051  33.888  52.985  0.00  0.00     0.002 C 
ENDROOT
BRANCH   1   9
ATOM      9  S   UNL d   1      50.832  34.543  52.671  0.00  0.00     0.272 S 
ATOM     10  O   UNL d   1      50.388  34.160  52.095  0.00  0.00    -0.200 OA
ATOM     11  O   UNL d   1      50.474  35.092  53.174  0.00  0.00    -0.200 OA
BRANCH   9  12
ATOM     12  N   UNL d   1      50.027  34.711  52.600  0.00  0.00    -0.226 N 
ATOM     13  C   UNL d   1      49.648  35.128  53.195  0.00  0.00     0.111 A 
ATOM     14  C   UNL d   1      48.843  35.296  53.124  0.00  0.00     0.100 A 
ATOM     15  N   UNL d   1      48.426  35.046  52.459  0.00  0.00    -0.300 N 
ATOM     16  C   UNL d   1      48.814  34.627  51.866  0.00  0.00     0.100 A 
ATOM     17  C   UNL d   1      49.619  34.459  51.937  0.00  0.00     0.111 A 
BRANCH  15  18
ATOM     18  C   UNL d   1      47.621  35.217  52.395  0.00  0.00     0.080 C 
BRANCH  18  19
ATOM     19  C   UNL d   1      47.370  35.911  52.022  0.00  0.00     0.018 C 
ATOM     20  C   UNL d   1      47.160  35.897  51.224  0.00  0.00     0.002 C 
ATOM     21  C   UNL d   1      47.328  36.616  52.446  0.00  0.00     0.002 C 
ENDBRANCH  18  19
ENDBRANCH  15  18
ENDBRANCH   9  12
ENDBRANCH   1   9
BRANCH   3  22
ATOM     22  N   UNL d   1      52.956  33.145  53.964  0.00  0.00    -0.229 N 
ATOM     23  C   UNL d   1      53.154  33.408  54.726  0.00  0.00     0.111 C 
BRANCH  22  24
ATOM     24  S   UNL d   1      53.012  32.343  53.780  0.00  0.00     0.271 S 
ATOM     25  O   UNL d   1      52.934  32.581  54.568  0.00  0.00    -0.200 OA
ATOM     26  O   UNL d   1      53.034  32.915  53.181  0.00  0.00    -0.200 OA
BRANCH  24  27
ATOM     27  C   UNL d   1      53.069  31.541  53.596  0.00  0.00     0.104 A 
ATOM     28  C   UNL d   1      52.486  31.180  53.140  0.00  0.00     0.013 A 
ATOM     29  C   UNL d   1      52.542  30.390  52.959  0.00  0.00     0.001 A 
ATOM     30  C   UNL d   1      53.175  29.949  53.227  0.00  0.00     0.000 A 
ATOM     31  C   UNL d   1      53.765  30.297  53.684  0.00  0.00     0.001 A 
ATOM     32  C   UNL d   1      53.232  29.146  53.043  0.00  0.00     0.000 C 
ATOM     33  C   UNL d   1      53.713  31.099  53.870  0.00  0.00     0.013 A 
ENDBRANCH  24  27
ENDBRANCH  22  24
ENDBRANCH   3  22
TORSDOF 7
ENDMDL
MODEL 3
REMARK VINA RESULT:      -6.6      2.020      6.352
REMARK  7 active torsions:
REMARK  status: ('A' for Active; 'I' for Inactive)
REMARK    1  A    between atoms: C_4  and  S_1 
REMARK    2  A    between atoms: N_6  and  S_1 
REMARK    3  A    between atoms: S_2  and  N_3 
REMARK    4  A    between atoms: C_8  and  S_2 
REMARK    5  A    between atoms: N_3  and  C_7 
REMARK    6  A    between atoms: C_20  and  N_13 
REMARK    7  A    between atoms: C_18  and  C_20 
ROOT
ATOM      1  C   UNL d   1      49.457  34.457  51.937  0.00  0.00     0.105 A 
ATOM      2  C   UNL d   1      48.993  35.083  52.204  0.00  0.00     0.029 A 
ATOM      3  C   UNL d   1      48.317  35.307  51.786  0.00  0.00     0.076 A 
ATOM      4  C   UNL d   1      49.240  34.050  51.240  0.00  0.00     0.013 A 
ATOM      5  C   UNL d   1      48.106  34.906  51.103  0.00  0.00     0.017 A 
ATOM      6  C   UNL d   1      48.564  34.280  50.828  0.00  0.00     0.002 A 
ATOM      7  C   UNL d   1      49.208  35.484  52.892  0.00  0.00     0.002 C 
ATOM      8  C   UNL d   1      47.430  35.133  50.687  0.00  0.00     0.002 C 
ENDROOT
BRANCH   1   9
ATOM      9  S   UNL d   1      50.132  34.234  52.355  0.00  0.00     0.272 S 
ATOM     10  O   UNL d   1      50.875  34.469  52.093  0.00  0.00    -0.200 OA
ATOM     11  O   UNL d   1      50.058  33.773  53.037  0.00  0.00    -0.200 OA
BRANCH   9  12
ATOM     12  N   UNL d   1      50.802  34.006  52.779  0.00  0.00    -0.226 N 
ATOM     13  C   UNL d   1      50.777  33.332  53.243  0.00  0.00     0.111 A 
ATOM     14  C   UNL d   1      51.448  33.104  53.667  0.00  0.00     0.100 A 
ATOM     15  N   UNL d   1      52.137  33.553  53.621  0.00  0.00    -0.300 N 
ATOM     16  C   UNL d   1      52.154  34.229  53.152  0.00  0.00     0.100 A 
ATOM     17  C   UNL d   1      51.484  34.457  52.729  0.00  0.00     0.111 A 
BRANCH  15  18
ATOM     18  C   UNL d   1      52.804  33.320  54.048  0.00  0.00     0.080 C 
BRANCH  18  19
ATOM     19  C   UNL d   1      53.400  32.877  53.684  0.00  0.00     0.018 C 
ATOM     20  C   UNL d   1      53.305  32.064  53.584  0.00  0.00     0.002 C 
ATOM     21  C   UNL d   1      54.087  33.247  53.421  0.00  0.00     0.002 C 
ENDBRANCH  18  19
ENDBRANCH  15  18
ENDBRANCH   9  12
ENDBRANCH   1   9
BRANCH   3  22
ATOM     22  N   UNL d   1      47.860  35.933  52.060  0.00  0.00    -0.229 N 
ATOM     23  C   UNL d   1      48.027  36.709  51.819  0.00  0.00     0.111 C 
BRANCH  22  24
ATOM     24  S   UNL d   1      47.232  35.791  52.577  0.00  0.00     0.271 S 
ATOM     25  O   UNL d   1      47.638  36.510  52.610  0.00  0.00    -0.200 OA
ATOM     26  O   UNL d   1      47.460  35.218  52.024  0.00  0.00    -0.200 OA
BRANCH  24  27
ATOM     27  C   UNL d   1      46.605  35.649  53.093  0.00  0.00     0.104 A 
ATOM     28  C   UNL d   1      45.870  35.420  52.797  0.00  0.00     0.013 A 
ATOM     29  C   UNL d   1      45.253  35.280  53.305  0.00  0.00     0.001 A 
ATOM     30  C   UNL d   1      45.354  35.365  54.112  0.00  0.00     0.000 A 
ATOM     31  C   UNL d   1      46.082  35.593  54.421  0.00  0.00     0.001 A 
ATOM     32  C   UNL d   1      44.726  35.223  54.628  0.00  0.00     0.000 C 
ATOM     33  C   UNL d   1      46.713  35.736  53.908  0.00  0.00     0.013 A 
ENDBRANCH  24  27
ENDBRANCH  22  24
ENDBRANCH   3  22
TORSDOF 7
ENDMDL
MODEL 4
REMARK VINA RESULT:      -6.4      1.717      2.806
REMARK  7 active torsions:
REMARK  status: ('A' for Active; 'I' for Inactive)
REMARK    1  A    between atoms: C_4  and  S_1 
REMARK    2  A    between atoms: N_6  and  S_1 
REMARK    3  A    between atoms: S_2  and  N_3 
REMARK    4  A    between atoms: C_8  and  S_2 
REMARK    5  A    between atoms: N_3  and  C_7 
REMARK    6  A    between atoms: C_20  and  N_13 
REMARK    7  A    between atoms: C_18  and  C_20 
ROOT
ATOM      1  C   UNL d   1      50.486  33.833  52.919  0.00  0.00     0.105 A 
ATOM      2  C   UNL d   1      51.273  34.064  52.846  0.00  0.00     0.029 A 
ATOM      3  C   UNL d   1      51.876  33.501  52.874  0.00  0.00     0.076 A 
ATOM      4  C   UNL d   1      50.301  33.025  53.023  0.00  0.00     0.013 A 
ATOM      5  C   UNL d   1      51.693  32.709  52.977  0.00  0.00     0.017 A 
ATOM      6  C   UNL d   1      50.909  32.468  53.051  0.00  0.00     0.002 A 
ATOM      7  C   UNL d   1      51.454  34.862  52.743  0.00  0.00     0.002 C 
ATOM      8  C   UNL d   1      52.298  32.149  53.005  0.00  0.00     0.002 C 
ENDROOT
BRANCH   1   9
ATOM      9  S   UNL d   1      49.884  34.396  52.891  0.00  0.00     0.272 S 
ATOM     10  O   UNL d   1      49.713  34.850  53.555  0.00  0.00    -0.200 OA
ATOM     11  O   UNL d   1      49.454  34.502  52.193  0.00  0.00    -0.200 OA
BRANCH   9  12
ATOM     12  N   UNL d   1      49.280  34.957  52.854  0.00  0.00    -0.226 N 
ATOM     13  C   UNL d   1      49.076  35.375  53.529  0.00  0.00     0.111 A 
ATOM     14  C   UNL d   1      48.472  35.936  53.493  0.00  0.00     0.100 A 
ATOM     15  N   UNL d   1      48.079  36.074  52.782  0.00  0.00    -0.300 N 
ATOM     16  C   UNL d   1      48.290  35.650  52.109  0.00  0.00     0.100 A 
ATOM     17  C   UNL d   1      48.893  35.089  52.145  0.00  0.00     0.111 A 
BRANCH  15  18
ATOM     18  C   UNL d   1      47.476  36.637  52.753  0.00  0.00     0.080 C 
BRANCH  18  19
ATOM     19  C   UNL d   1      46.683  36.402  52.753  0.00  0.00     0.018 C 
ATOM     20  C   UNL d   1      46.288  36.288  52.038  0.00  0.00     0.002 C 
ATOM     21  C   UNL d   1      46.288  36.283  53.466  0.00  0.00     0.002 C 
ENDBRANCH  18  19
ENDBRANCH  15  18
ENDBRANCH   9  12
ENDBRANCH   1   9
BRANCH   3  22
ATOM     22  N   UNL d   1      52.659  33.742  52.800  0.00  0.00    -0.229 N 
ATOM     23  C   UNL d   1      52.955  33.978  52.061  0.00  0.00     0.111 C 
BRANCH  22  24
ATOM     24  S   UNL d   1      53.154  33.748  53.460  0.00  0.00     0.271 S 
ATOM     25  O   UNL d   1      53.301  34.262  52.829  0.00  0.00    -0.200 OA
ATOM     26  O   UNL d   1      52.508  33.230  53.423  0.00  0.00    -0.200 OA
BRANCH  24  27
ATOM     27  C   UNL d   1      53.648  33.754  54.120  0.00  0.00     0.104 A 
ATOM     28  C   UNL d   1      54.300  33.251  54.153  0.00  0.00     0.013 A 
ATOM     29  C   UNL d   1      54.787  33.258  54.802  0.00  0.00     0.001 A 
ATOM     30  C   UNL d   1      54.635  33.762  55.427  0.00  0.00     0.000 A 
ATOM     31  C   UNL d   1      53.987  34.270  55.408  0.00  0.00     0.001 A 
ATOM     32  C   UNL d   1      55.130  33.768  56.088  0.00  0.00     0.000 C 
ATOM     33  C   UNL d   1      53.490  34.267  54.750  0.00  0.00     0.013 A 
ENDBRANCH  24  27
ENDBRANCH  22  24
ENDBRANCH   3  22
TORSDOF 7
ENDMDL
