MODEL 1
REMARK VINA RESULT:      17.2      0.000      0.000
REMARK  2 active torsions:
REMARK  status: ('A' for Active; 'I' for Inactive)
REMARK    1  A    between atoms: C_6  and  C_2 
REMARK    2  A    between atoms: C_7  and  C_6 
ROOT
ATOM      1  N   UNL d   1      58.910  49.707  49.321  0.00  0.00    -0.193 NA
ATOM      2  C   UNL d   1      59.178  49.707  50.627  0.00  0.00     0.153 A 
ATOM      3  N   UNL d   1      58.360  49.707  50.537  0.00  0.00    -0.306 N 
ATOM      4  C   UNL d   1      58.195  49.707  49.730  0.00  0.00     0.147 A 
ATOM      5  C   UNL d   1      59.524  49.707  49.878  0.00  0.00     0.276 A 
ATOM      6  C   UNL d   1      57.738  49.707  51.086  0.00  0.00     0.077 A 
ATOM      7  C   UNL d   1      57.404  49.708  49.462  0.00  0.00     0.037 A 
ATOM      8  O   UNL d   1      60.333  49.707  49.712  0.00  0.00    -0.268 OA
ATOM      9  C   UNL d   1      56.960  49.707  50.825  0.00  0.00     0.019 A 
ATOM     10  C   UNL d   1      56.792  49.708  50.009  0.00  0.00     0.005 A 
ATOM     11  C   UNL d   1      58.918  49.707  51.410  0.00  0.00     0.033 C 
ENDROOT
BRANCH   2  12
ATOM     12  C   UNL d   1      60.005  49.707  50.691  0.00  0.00     0.128 C 
BRANCH  12  13
ATOM     13  C   UNL d   1      60.358  49.453  51.391  0.00  0.00     0.188 C 
ATOM     14  O   UNL d   1      60.073  49.705  52.119  0.00  0.00    -0.647 OA
ATOM     15  O   UNL d   1      61.007  48.937  51.358  0.00  0.00    -0.647 OA
ENDBRANCH  12  13
ENDBRANCH   2  12
TORSDOF 2
ENDMDL
