MODEL 1
REMARK VINA RESULT:      -4.1      0.000      0.000
REMARK  4 active torsions:
REMARK  status: ('A' for Active; 'I' for Inactive)
REMARK    1  A    between atoms: C_21  and  N_5 
REMARK    2  A    between atoms: C_11  and  C_6 
REMARK       I    between atoms: N_15  and  C_11 
REMARK    3  A    between atoms: C_23  and  N_15 
REMARK    4  A    between atoms: C_22  and  C_23 
ROOT
ATOM      1  C   UNL d   1      59.454  -1.421  29.442  0.00  0.00     0.155 A 
ATOM      2  C   UNL d   1      58.679  -1.683  29.579  0.00  0.00     0.091 A 
ATOM      3  N   UNL d   1      60.009  -1.937  29.129  0.00  0.00    -0.210 NA
ATOM      4  N   UNL d   1      59.035  -2.971  29.084  0.00  0.00    -0.258 N 
ATOM      5  N   UNL d   1      59.660  -0.647  29.622  0.00  0.00    -0.274 N 
ATOM      6  C   UNL d   1      58.328  -0.387  30.074  0.00  0.00     0.094 A 
ATOM      7  C   UNL d   1      59.804  -2.711  28.949  0.00  0.00     0.152 A 
ATOM      8  C   UNL d   1      58.465  -2.459  29.401  0.00  0.00     0.269 A 
ATOM      9  C   UNL d   1      59.096  -0.127  29.939  0.00  0.00     0.175 A 
ATOM     10  C   UNL d   1      58.115  -1.168  29.894  0.00  0.00     0.016 A 
ATOM     11  C   UNL d   1      60.359  -3.231  28.634  0.00  0.00     0.035 A 
ATOM     12  C   UNL d   1      58.815  -3.753  28.906  0.00  0.00     0.084 A 
ATOM     13  N   UNL d   1      59.315   0.651  30.116  0.00  0.00    -0.128 N 
ATOM     14  O   UNL d   1      57.698  -2.726  29.533  0.00  0.00    -0.266 OA
ATOM     15  C   UNL d   1      59.385  -4.262  28.591  0.00  0.00     0.019 A 
ATOM     16  C   UNL d   1      60.153  -4.003  28.455  0.00  0.00     0.005 A 
ATOM     17  C   UNL d   1      61.133  -2.970  28.498  0.00  0.00     0.003 C 
ENDROOT
BRANCH   6  18
ATOM     18  C   UNL d   1      57.765   0.127  30.389  0.00  0.00     0.282 C 
ATOM     19  N   UNL d   1      57.576   0.081  31.192  0.00  0.00    -0.206 NA
ATOM     20  O   UNL d   1      57.395   0.682  29.908  0.00  0.00    -0.265 OA
BRANCH  19  21
ATOM     21  C   UNL d   1      57.008   0.598  31.513  0.00  0.00     0.104 C 
BRANCH  21  22
ATOM     22  C   UNL d   1      56.729   0.476  32.283  0.00  0.00     0.038 A 
ATOM     23  C   UNL d   1      57.235   0.598  32.923  0.00  0.00     0.101 A 
ATOM     24  N   UNL d   1      56.956   0.476  33.690  0.00  0.00    -0.242 NA
ATOM     25  C   UNL d   1      56.181   0.236  33.821  0.00  0.00     0.099 A 
ATOM     26  C   UNL d   1      55.675   0.114  33.174  0.00  0.00     0.021 A 
ATOM     27  C   UNL d   1      55.953   0.236  32.408  0.00  0.00     0.005 A 
ENDBRANCH  21  22
ENDBRANCH  19  21
ENDBRANCH   6  18
BRANCH   5  28
ATOM     28  C   UNL d   1      60.434  -0.385  29.485  0.00  0.00     0.083 C 
ATOM     29  C   UNL d   1      60.569   0.236  28.957  0.00  0.00     0.021 C 
ENDBRANCH   5  28
TORSDOF 4
ENDMDL
MODEL 2
REMARK VINA RESULT:      -2.6      1.205      4.942
REMARK  4 active torsions:
REMARK  status: ('A' for Active; 'I' for Inactive)
REMARK    1  A    between atoms: C_21  and  N_5 
REMARK    2  A    between atoms: C_11  and  C_6 
REMARK       I    between atoms: N_15  and  C_11 
REMARK    3  A    between atoms: C_23  and  N_15 
REMARK    4  A    between atoms: C_22  and  C_23 
ROOT
ATOM      1  C   UNL d   1      57.662  -0.190  31.824  0.00  0.00     0.155 A 
ATOM      2  C   UNL d   1      57.203  -0.776  31.455  0.00  0.00     0.091 A 
ATOM      3  N   UNL d   1      57.442   0.095  32.561  0.00  0.00    -0.210 NA
ATOM      4  N   UNL d   1      56.317  -0.773  32.572  0.00  0.00    -0.258 N 
ATOM      5  N   UNL d   1      58.332   0.098  31.448  0.00  0.00    -0.274 N 
ATOM      6  C   UNL d   1      58.096  -0.772  30.337  0.00  0.00     0.094 A 
ATOM      7  C   UNL d   1      56.772  -0.194  32.937  0.00  0.00     0.152 A 
ATOM      8  C   UNL d   1      56.528  -1.071  31.827  0.00  0.00     0.269 A 
ATOM      9  C   UNL d   1      58.550  -0.193  30.702  0.00  0.00     0.175 A 
ATOM     10  C   UNL d   1      57.418  -1.067  30.714  0.00  0.00     0.016 A 
ATOM     11  C   UNL d   1      56.550   0.091  33.677  0.00  0.00     0.035 A 
ATOM     12  C   UNL d   1      55.636  -1.074  32.943  0.00  0.00     0.084 A 
ATOM     13  N   UNL d   1      59.228   0.106  30.332  0.00  0.00    -0.128 N 
ATOM     14  O   UNL d   1      56.068  -1.650  31.468  0.00  0.00    -0.266 OA
ATOM     15  C   UNL d   1      55.427  -0.777  33.686  0.00  0.00     0.019 A 
ATOM     16  C   UNL d   1      55.882  -0.197  34.051  0.00  0.00     0.005 A 
ATOM     17  C   UNL d   1      57.008   0.675  34.045  0.00  0.00     0.003 C 
ENDROOT
BRANCH   6  18
ATOM     18  C   UNL d   1      58.311  -1.064  29.596  0.00  0.00     0.282 C 
ATOM     19  N   UNL d   1      58.639  -1.819  29.536  0.00  0.00    -0.206 NA
ATOM     20  O   UNL d   1      58.199  -0.606  28.922  0.00  0.00    -0.265 OA
BRANCH  19  21
ATOM     21  C   UNL d   1      58.857  -2.117  28.789  0.00  0.00     0.104 C 
BRANCH  21  22
ATOM     22  C   UNL d   1      59.259  -2.838  28.735  0.00  0.00     0.038 A 
ATOM     23  C   UNL d   1      60.082  -2.850  28.783  0.00  0.00     0.101 A 
ATOM     24  N   UNL d   1      60.482  -3.570  28.729  0.00  0.00    -0.242 NA
ATOM     25  C   UNL d   1      60.068  -4.273  28.627  0.00  0.00     0.099 A 
ATOM     26  C   UNL d   1      59.239  -4.257  28.578  0.00  0.00     0.021 A 
ATOM     27  C   UNL d   1      58.840  -3.538  28.633  0.00  0.00     0.005 A 
ENDBRANCH  21  22
ENDBRANCH  19  21
ENDBRANCH   6  18
BRANCH   5  28
ATOM     28  C   UNL d   1      58.790   0.682  31.815  0.00  0.00     0.083 C 
ATOM     29  C   UNL d   1      59.612   0.669  31.735  0.00  0.00     0.021 C 
ENDBRANCH   5  28
TORSDOF 4
ENDMDL
MODEL 3
REMARK VINA RESULT:      -1.1      8.567      9.103
REMARK  4 active torsions:
REMARK  status: ('A' for Active; 'I' for Inactive)
REMARK    1  A    between atoms: C_21  and  N_5 
REMARK    2  A    between atoms: C_11  and  C_6 
REMARK       I    between atoms: N_15  and  C_11 
REMARK    3  A    between atoms: C_23  and  N_15 
REMARK    4  A    between atoms: C_22  and  C_23 
ROOT
ATOM      1  C   UNL d   1      59.065  -9.808  30.821  0.00  0.00     0.155 A 
ATOM      2  C   UNL d   1      58.594  -9.807  31.504  0.00  0.00     0.091 A 
ATOM      3  N   UNL d   1      58.709  -9.811  30.082  0.00  0.00    -0.210 NA
ATOM      4  N   UNL d   1      57.425  -9.811  30.689  0.00  0.00    -0.258 N 
ATOM      5  N   UNL d   1      59.883  -9.806  30.890  0.00  0.00    -0.274 N 
ATOM      6  C   UNL d   1      59.772  -9.803  32.316  0.00  0.00     0.094 A 
ATOM      7  C   UNL d   1      57.891  -9.813  30.012  0.00  0.00     0.152 A 
ATOM      8  C   UNL d   1      57.771  -9.809  31.443  0.00  0.00     0.269 A 
ATOM      9  C   UNL d   1      60.238  -9.804  31.640  0.00  0.00     0.175 A 
ATOM     10  C   UNL d   1      58.944  -9.804  32.251  0.00  0.00     0.016 A 
ATOM     11  C   UNL d   1      57.533  -9.815  29.271  0.00  0.00     0.035 A 
ATOM     12  C   UNL d   1      56.595  -9.813  30.631  0.00  0.00     0.084 A 
ATOM     13  N   UNL d   1      61.064  -9.802  31.698  0.00  0.00    -0.128 N 
ATOM     14  O   UNL d   1      57.298  -9.808  32.115  0.00  0.00    -0.266 OA
ATOM     15  C   UNL d   1      56.251  -9.816  29.879  0.00  0.00     0.019 A 
ATOM     16  C   UNL d   1      56.717  -9.817  29.203  0.00  0.00     0.005 A 
ATOM     17  C   UNL d   1      58.003  -9.816  28.589  0.00  0.00     0.003 C 
ENDROOT
BRANCH   6  18
ATOM     18  C   UNL d   1      60.123  -9.800  33.064  0.00  0.00     0.282 C 
ATOM     19  N   UNL d   1      59.645  -9.779  33.737  0.00  0.00    -0.206 NA
ATOM     20  O   UNL d   1      60.941  -9.818  33.137  0.00  0.00    -0.265 OA
BRANCH  19  21
ATOM     21  C   UNL d   1      59.995  -9.776  34.492  0.00  0.00     0.104 C 
BRANCH  21  22
ATOM     22  C   UNL d   1      59.714  -9.259  35.074  0.00  0.00     0.038 A 
ATOM     23  C   UNL d   1      59.247  -9.552  35.688  0.00  0.00     0.101 A 
ATOM     24  N   UNL d   1      58.968  -9.036  36.268  0.00  0.00    -0.242 NA
ATOM     25  C   UNL d   1      59.151  -8.235  36.239  0.00  0.00     0.099 A 
ATOM     26  C   UNL d   1      59.621  -7.943  35.621  0.00  0.00     0.021 A 
ATOM     27  C   UNL d   1      59.900  -8.459  35.041  0.00  0.00     0.005 A 
ENDBRANCH  21  22
ENDBRANCH  19  21
ENDBRANCH   6  18
BRANCH   5  28
ATOM     28  C   UNL d   1      60.353  -9.807  30.209  0.00  0.00     0.083 C 
ATOM     29  C   UNL d   1      60.967  -9.260  30.134  0.00  0.00     0.021 C 
ENDBRANCH   5  28
TORSDOF 4
ENDMDL
