MODEL 1
REMARK VINA RESULT:       9.4      0.000      0.000
REMARK  5 active torsions:
REMARK  status: ('A' for Active; 'I' for Inactive)
REMARK    1  A    between atoms: C_2  and  C_1 
REMARK    2  A    between atoms: O_6  and  C_1 
REMARK    3  A    between atoms: C_11  and  O_6 
REMARK    4  A    between atoms: C_12  and  C_11 
REMARK    5  A    between atoms: C_13  and  C_12 
ROOT
ATOM      1  C   UNL d   1     -57.800 -98.758 -44.259  0.00  0.00     0.064 A 
ATOM      2  C   UNL d   1     -57.796 -98.757 -43.432  0.00  0.00     0.009 A 
ATOM      3  C   UNL d   1     -58.522 -98.760 -44.661  0.00  0.00     0.009 A 
ATOM      4  C   UNL d   1     -59.222 -98.760 -43.404  0.00  0.00     0.196 A 
ATOM      5  C   UNL d   1     -58.500 -98.758 -43.002  0.00  0.00     0.042 A 
ATOM      6  C   UNL d   1     -59.224 -98.761 -44.228  0.00  0.00     0.042 A 
ATOM      7  O   UNL d   1     -59.950 -98.761 -42.995  0.00  0.00    -0.287 OA
ENDROOT
BRANCH   1   8
ATOM      8  C   UNL d   1     -57.086 -98.757 -44.679  0.00  0.00     0.300 C 
ATOM      9  O   UNL d   1     -57.086 -98.757 -45.504  0.00  0.00    -0.259 OA
BRANCH   8  10
ATOM     10  O   UNL d   1     -56.376 -98.756 -44.259  0.00  0.00    -0.271 OA
BRANCH  10  11
ATOM     11  C   UNL d   1     -55.682 -98.979 -44.649  0.00  0.00     0.126 C 
BRANCH  11  12
ATOM     12  C   UNL d   1     -55.106 -99.399 -44.230  0.00  0.00     0.027 C 
BRANCH  12  13
ATOM     13  C   UNL d   1     -54.720-100.027 -44.588  0.00  0.00     0.002 C 
ATOM     14  C   UNL d   1     -54.737-100.774 -44.242  0.00  0.00     0.000 C 
ENDBRANCH  12  13
ENDBRANCH  11  12
ENDBRANCH  10  11
ENDBRANCH   8  10
ENDBRANCH   1   8
TORSDOF 5
ENDMDL
