MODEL 1
REMARK VINA RESULT:      -3.0      0.000      0.000
REMARK  2 active torsions:
REMARK  status: ('A' for Active; 'I' for Inactive)
REMARK    1  A    between atoms: C_2  and  C_1 
REMARK    2  A    between atoms: C_14  and  C_8 
ROOT
ATOM      1  C   UNL d   1     -41.489-122.373 -51.574  0.00  0.00     0.106 A 
ATOM      2  C   UNL d   1     -41.351-121.569 -51.532  0.00  0.00     0.304 A 
ATOM      3  C   UNL d   1     -41.602-122.727 -52.313  0.00  0.00     0.011 A 
ATOM      4  C   UNL d   1     -41.578-122.283 -53.000  0.00  0.00     0.023 A 
ATOM      5  O   UNL d   1     -41.321-121.087 -52.227  0.00  0.00    -0.273 OA
ATOM      6  C   UNL d   1     -41.440-121.479 -52.957  0.00  0.00     0.103 A 
ATOM      7  C   UNL d   1     -41.691-122.638 -53.739  0.00  0.00     0.002 A 
ATOM      8  O   UNL d   1     -41.235-121.206 -50.767  0.00  0.00    -0.259 OA
ATOM      9  C   UNL d   1     -41.410-120.998 -53.653  0.00  0.00     0.025 A 
ATOM     10  C   UNL d   1     -41.667-122.193 -54.430  0.00  0.00     0.000 A 
ATOM     11  C   UNL d   1     -41.529-121.389 -54.388  0.00  0.00     0.002 A 
ATOM     12  C   UNL d   1     -41.832-123.458 -53.781  0.00  0.00     0.000 A 
ATOM     13  C   UNL d   1     -41.780-122.548 -55.169  0.00  0.00     0.000 A 
ATOM     14  C   UNL d   1     -41.946-123.817 -54.515  0.00  0.00     0.000 A 
ATOM     15  C   UNL d   1     -41.922-123.366 -55.228  0.00  0.00     0.000 A 
ENDROOT
BRANCH   1  16
ATOM     16  C   UNL d   1     -41.513-122.818 -50.877  0.00  0.00     0.210 A 
ATOM     17  O   UNL d   1     -41.898-122.650 -50.166  0.00  0.00    -0.268 OA
ATOM     18  C   UNL d   1     -41.743-123.273 -49.655  0.00  0.00     0.204 A 
ATOM     19  N   UNL d   1     -41.271-123.817 -50.038  0.00  0.00    -0.121 NA
ATOM     20  N   UNL d   1     -41.123-123.544 -50.796  0.00  0.00    -0.121 NA
BRANCH  18  21
ATOM     21  C   UNL d   1     -41.982-123.399 -48.883  0.00  0.00     0.043 A 
ATOM     22  C   UNL d   1     -41.431-123.450 -48.287  0.00  0.00     0.004 A 
ATOM     23  C   UNL d   1     -41.668-123.579 -47.504  0.00  0.00     0.000 A 
ATOM     24  C   UNL d   1     -42.457-123.654 -47.329  0.00  0.00     0.000 A 
ATOM     25  C   UNL d   1     -43.010-123.602 -47.937  0.00  0.00     0.000 A 
ATOM     26  C   UNL d   1     -42.777-123.475 -48.710  0.00  0.00     0.004 A 
ENDBRANCH  18  21
ENDBRANCH   1  16
TORSDOF 2
ENDMDL
MODEL 2
REMARK VINA RESULT:      -2.7      1.195      5.083
REMARK  2 active torsions:
REMARK  status: ('A' for Active; 'I' for Inactive)
REMARK    1  A    between atoms: C_2  and  C_1 
REMARK    2  A    between atoms: C_14  and  C_8 
ROOT
ATOM      1  C   UNL d   1     -42.467-122.289 -50.970  0.00  0.00     0.106 A 
ATOM      2  C   UNL d   1     -43.204-121.942 -50.908  0.00  0.00     0.304 A 
ATOM      3  C   UNL d   1     -42.137-122.662 -50.309  0.00  0.00     0.011 A 
ATOM      4  C   UNL d   1     -42.539-122.687 -49.597  0.00  0.00     0.023 A 
ATOM      5  O   UNL d   1     -43.640-121.955 -50.183  0.00  0.00    -0.273 OA
ATOM      6  C   UNL d   1     -43.276-122.341 -49.535  0.00  0.00     0.103 A 
ATOM      7  C   UNL d   1     -42.209-123.060 -48.936  0.00  0.00     0.002 A 
ATOM      8  O   UNL d   1     -43.542-121.558 -51.593  0.00  0.00    -0.259 OA
ATOM      9  C   UNL d   1     -43.713-122.353 -48.810  0.00  0.00     0.025 A 
ATOM     10  C   UNL d   1     -42.612-123.087 -48.220  0.00  0.00     0.000 A 
ATOM     11  C   UNL d   1     -43.349-122.740 -48.158  0.00  0.00     0.002 A 
ATOM     12  C   UNL d   1     -41.457-123.413 -48.999  0.00  0.00     0.000 A 
ATOM     13  C   UNL d   1     -42.282-123.460 -47.559  0.00  0.00     0.000 A 
ATOM     14  C   UNL d   1     -41.123-123.787 -48.344  0.00  0.00     0.000 A 
ATOM     15  C   UNL d   1     -41.531-123.817 -47.607  0.00  0.00     0.000 A 
ENDROOT
BRANCH   1  16
ATOM     16  C   UNL d   1     -42.064-122.260 -51.692  0.00  0.00     0.210 A 
ATOM     17  O   UNL d   1     -42.265-122.609 -52.413  0.00  0.00    -0.268 OA
ATOM     18  C   UNL d   1     -41.678-122.408 -52.950  0.00  0.00     0.204 A 
ATOM     19  N   UNL d   1     -41.123-121.944 -52.572  0.00  0.00    -0.121 NA
ATOM     20  N   UNL d   1     -41.353-121.847 -51.792  0.00  0.00    -0.121 NA
BRANCH  18  21
ATOM     21  C   UNL d   1     -41.592-122.598 -53.740  0.00  0.00     0.043 A 
ATOM     22  C   UNL d   1     -41.883-122.102 -54.315  0.00  0.00     0.004 A 
ATOM     23  C   UNL d   1     -41.798-122.290 -55.117  0.00  0.00     0.000 A 
ATOM     24  C   UNL d   1     -41.421-122.976 -55.332  0.00  0.00     0.000 A 
ATOM     25  C   UNL d   1     -41.129-123.475 -54.746  0.00  0.00     0.000 A 
ATOM     26  C   UNL d   1     -41.212-123.289 -53.954  0.00  0.00     0.004 A 
ENDBRANCH  18  21
ENDBRANCH   1  16
TORSDOF 2
ENDMDL
