MODEL 1
REMARK VINA RESULT:      79.6      0.000      0.000
REMARK  6 active torsions:
REMARK  status: ('A' for Active; 'I' for Inactive)
REMARK    1  A    between atoms: C_3  and  S_1 
REMARK    2  A    between atoms: N_5  and  S_1 
REMARK    3  A    between atoms: S_2  and  N_6 
REMARK    4  A    between atoms: C_4  and  S_2 
REMARK    5  A    between atoms: O_25  and  C_15 
REMARK    6  A    between atoms: O_26  and  C_16 
ROOT
ATOM      1  N   UNL d   1      14.037  15.791  -4.774  0.00  0.00    -0.226 N 
ATOM      2  N   UNL d   1      14.388  17.350  -5.172  0.00  0.00    -0.226 N 
ATOM      3  C   UNL d   1      14.607  16.201  -4.339  0.00  0.00     0.111 A 
ATOM      4  C   UNL d   1      13.818  16.930  -5.600  0.00  0.00     0.111 A 
ATOM      5  C   UNL d   1      14.782  16.987  -4.542  0.00  0.00     0.111 A 
ATOM      6  C   UNL d   1      13.642  16.154  -5.404  0.00  0.00     0.111 A 
ENDROOT
BRANCH   1   7
ATOM      7  S   UNL d   1      13.861  15.001  -4.570  0.00  0.00     0.273 S 
ATOM      8  O   UNL d   1      13.871  14.419  -5.158  0.00  0.00    -0.200 OA
ATOM      9  O   UNL d   1      13.680  14.803  -3.795  0.00  0.00    -0.200 OA
BRANCH   7  10
ATOM     10  C   UNL d   1      13.686  14.218  -4.364  0.00  0.00     0.126 A 
ATOM     11  C   UNL d   1      13.820  13.956  -3.600  0.00  0.00     0.106 A 
ATOM     12  C   UNL d   1      13.643  13.173  -3.402  0.00  0.00     0.025 A 
ATOM     13  C   UNL d   1      13.333  12.660  -3.971  0.00  0.00     0.002 A 
ATOM     14  C   UNL d   1      13.200  12.934  -4.743  0.00  0.00     0.001 A 
ATOM     15  C   UNL d   1      13.374  13.709  -4.943  0.00  0.00     0.015 A 
ATOM     16  C   UNL d   1      12.887  12.417  -5.315  0.00  0.00     0.000 C 
BRANCH  11  17
ATOM     17  O   UNL d   1      14.129  14.464  -3.033  0.00  0.00    -0.327 OA
ATOM     18  C   UNL d   1      14.333  14.172  -2.288  0.00  0.00     0.181 C 
ENDBRANCH  11  17
ENDBRANCH   7  10
ENDBRANCH   1   7
BRANCH   2  19
ATOM     19  S   UNL d   1      14.565  18.132  -5.370  0.00  0.00     0.273 S 
ATOM     20  O   UNL d   1      14.058  18.555  -5.869  0.00  0.00    -0.200 OA
ATOM     21  O   UNL d   1      15.244  18.495  -5.075  0.00  0.00    -0.200 OA
BRANCH  19  22
ATOM     22  C   UNL d   1      14.715  18.916  -5.587  0.00  0.00     0.126 A 
ATOM     23  C   UNL d   1      14.136  19.350  -5.980  0.00  0.00     0.106 A 
ATOM     24  C   UNL d   1      14.285  20.126  -6.195  0.00  0.00     0.025 A 
ATOM     25  C   UNL d   1      15.012  20.472  -6.018  0.00  0.00     0.002 A 
ATOM     26  C   UNL d   1      15.590  20.035  -5.624  0.00  0.00     0.001 A 
ATOM     27  C   UNL d   1      15.433  19.251  -5.410  0.00  0.00     0.015 A 
ATOM     28  C   UNL d   1      16.315  20.369  -5.443  0.00  0.00     0.000 C 
BRANCH  23  29
ATOM     29  O   UNL d   1      13.409  19.004  -6.158  0.00  0.00    -0.327 OA
ATOM     30  C   UNL d   1      12.769  19.478  -6.372  0.00  0.00     0.181 C 
ENDBRANCH  23  29
ENDBRANCH  19  22
ENDBRANCH   2  19
TORSDOF 6
ENDMDL
MODEL 2
REMARK VINA RESULT:      81.4      8.596     11.659
REMARK  6 active torsions:
REMARK  status: ('A' for Active; 'I' for Inactive)
REMARK    1  A    between atoms: C_3  and  S_1 
REMARK    2  A    between atoms: N_5  and  S_1 
REMARK    3  A    between atoms: S_2  and  N_6 
REMARK    4  A    between atoms: C_4  and  S_2 
REMARK    5  A    between atoms: O_25  and  C_15 
REMARK    6  A    between atoms: O_26  and  C_16 
ROOT
ATOM      1  N   UNL d   1      22.437  23.550  -3.662  0.00  0.00    -0.226 N 
ATOM      2  N   UNL d   1      22.202  21.943  -3.929  0.00  0.00    -0.226 N 
ATOM      3  C   UNL d   1      21.760  23.185  -3.361  0.00  0.00     0.111 A 
ATOM      4  C   UNL d   1      22.876  22.319  -4.226  0.00  0.00     0.111 A 
ATOM      5  C   UNL d   1      21.644  22.374  -3.497  0.00  0.00     0.111 A 
ATOM      6  C   UNL d   1      22.995  23.119  -4.093  0.00  0.00     0.111 A 
ENDROOT
BRANCH   1   7
ATOM      7  S   UNL d   1      22.554  24.366  -3.524  0.00  0.00     0.273 S 
ATOM      8  O   UNL d   1      22.898  24.612  -2.813  0.00  0.00    -0.200 OA
ATOM      9  O   UNL d   1      22.330  24.917  -4.088  0.00  0.00    -0.200 OA
BRANCH   7  10
ATOM     10  C   UNL d   1      22.668  25.174  -3.392  0.00  0.00     0.126 A 
ATOM     11  C   UNL d   1      22.523  25.712  -3.993  0.00  0.00     0.106 A 
ATOM     12  C   UNL d   1      22.639  26.519  -3.853  0.00  0.00     0.025 A 
ATOM     13  C   UNL d   1      22.900  26.779  -3.112  0.00  0.00     0.002 A 
ATOM     14  C   UNL d   1      23.044  26.227  -2.510  0.00  0.00     0.001 A 
ATOM     15  C   UNL d   1      22.930  25.428  -2.645  0.00  0.00     0.015 A 
ATOM     16  C   UNL d   1      23.307  26.491  -1.765  0.00  0.00     0.000 C 
BRANCH  11  17
ATOM     17  O   UNL d   1      22.264  25.456  -4.728  0.00  0.00    -0.327 OA
ATOM     18  C   UNL d   1      22.043  26.008  -5.302  0.00  0.00     0.181 C 
ENDBRANCH  11  17
ENDBRANCH   7  10
ENDBRANCH   1   7
BRANCH   2  19
ATOM     19  S   UNL d   1      22.082  21.136  -4.063  0.00  0.00     0.273 S 
ATOM     20  O   UNL d   1      21.519  20.890  -4.616  0.00  0.00    -0.200 OA
ATOM     21  O   UNL d   1      22.522  20.574  -3.648  0.00  0.00    -0.200 OA
BRANCH  19  22
ATOM     22  C   UNL d   1      21.940  20.336  -4.219  0.00  0.00     0.126 A 
ATOM     23  C   UNL d   1      21.985  20.055  -4.991  0.00  0.00     0.106 A 
ATOM     24  C   UNL d   1      21.844  19.264  -5.145  0.00  0.00     0.025 A 
ATOM     25  C   UNL d   1      21.657  18.749  -4.528  0.00  0.00     0.002 A 
ATOM     26  C   UNL d   1      21.612  19.034  -3.755  0.00  0.00     0.001 A 
ATOM     27  C   UNL d   1      21.756  19.835  -3.607  0.00  0.00     0.015 A 
ATOM     28  C   UNL d   1      21.427  18.531  -3.136  0.00  0.00     0.000 C 
BRANCH  23  29
ATOM     29  O   UNL d   1      22.172  20.570  -5.608  0.00  0.00    -0.327 OA
ATOM     30  C   UNL d   1      22.134  20.306  -6.389  0.00  0.00     0.181 C 
ENDBRANCH  23  29
ENDBRANCH  19  22
ENDBRANCH   2  19
TORSDOF 6
ENDMDL
MODEL 3
REMARK VINA RESULT:      81.6      2.029      3.222
REMARK  6 active torsions:
REMARK  status: ('A' for Active; 'I' for Inactive)
REMARK    1  A    between atoms: C_3  and  S_1 
REMARK    2  A    between atoms: N_5  and  S_1 
REMARK    3  A    between atoms: S_2  and  N_6 
REMARK    4  A    between atoms: C_4  and  S_2 
REMARK    5  A    between atoms: O_25  and  C_15 
REMARK    6  A    between atoms: O_26  and  C_16 
ROOT
ATOM      1  N   UNL d   1      14.470  14.208  -2.260  0.00  0.00    -0.226 N 
ATOM      2  N   UNL d   1      14.538  15.422  -3.370  0.00  0.00    -0.226 N 
ATOM      3  C   UNL d   1      14.638  14.976  -2.008  0.00  0.00     0.111 A 
ATOM      4  C   UNL d   1      14.371  14.649  -3.610  0.00  0.00     0.111 A 
ATOM      5  C   UNL d   1      14.672  15.587  -2.570  0.00  0.00     0.111 A 
ATOM      6  C   UNL d   1      14.337  14.043  -3.059  0.00  0.00     0.111 A 
ENDROOT
BRANCH   1   7
ATOM      7  S   UNL d   1      14.437  13.593  -1.695  0.00  0.00     0.273 S 
ATOM      8  O   UNL d   1      13.920  12.959  -1.817  0.00  0.00    -0.200 OA
ATOM      9  O   UNL d   1      14.911  13.618  -1.027  0.00  0.00    -0.200 OA
BRANCH   7  10
ATOM     10  C   UNL d   1      14.406  12.986  -1.134  0.00  0.00     0.126 A 
ATOM     11  C   UNL d   1      15.099  12.689  -0.813  0.00  0.00     0.106 A 
ATOM     12  C   UNL d   1      15.061  12.083  -0.252  0.00  0.00     0.025 A 
ATOM     13  C   UNL d   1      14.328  11.780  -0.018  0.00  0.00     0.002 A 
ATOM     14  C   UNL d   1      13.632  12.086  -0.348  0.00  0.00     0.001 A 
ATOM     15  C   UNL d   1      13.666  12.686  -0.903  0.00  0.00     0.015 A 
ATOM     16  C   UNL d   1      12.895  11.779  -0.111  0.00  0.00     0.000 C 
BRANCH  11  17
ATOM     17  O   UNL d   1      15.828  12.990  -1.045  0.00  0.00    -0.327 OA
ATOM     18  C   UNL d   1      16.504  12.813  -0.604  0.00  0.00     0.181 C 
ENDBRANCH  11  17
ENDBRANCH   7  10
ENDBRANCH   1   7
BRANCH   2  19
ATOM     19  S   UNL d   1      14.572  16.033  -3.925  0.00  0.00     0.273 S 
ATOM     20  O   UNL d   1      14.160  15.962  -4.639  0.00  0.00    -0.200 OA
ATOM     21  O   UNL d   1      15.014  16.713  -3.773  0.00  0.00    -0.200 OA
BRANCH  19  22
ATOM     22  C   UNL d   1      14.587  16.627  -4.501  0.00  0.00     0.126 A 
ATOM     23  C   UNL d   1      14.078  16.583  -5.147  0.00  0.00     0.106 A 
ATOM     24  C   UNL d   1      14.093  17.170  -5.717  0.00  0.00     0.025 A 
ATOM     25  C   UNL d   1      14.615  17.804  -5.644  0.00  0.00     0.002 A 
ATOM     26  C   UNL d   1      15.123  17.845  -4.996  0.00  0.00     0.001 A 
ATOM     27  C   UNL d   1      15.103  17.248  -4.424  0.00  0.00     0.015 A 
ATOM     28  C   UNL d   1      15.646  18.471  -4.914  0.00  0.00     0.000 C 
BRANCH  23  29
ATOM     29  O   UNL d   1      13.556  15.949  -5.220  0.00  0.00    -0.327 OA
ATOM     30  C   UNL d   1      13.311  15.701  -5.968  0.00  0.00     0.181 C 
ENDBRANCH  23  29
ENDBRANCH  19  22
ENDBRANCH   2  19
TORSDOF 6
ENDMDL
MODEL 4
REMARK VINA RESULT:      81.8      8.551     10.423
REMARK  6 active torsions:
REMARK  status: ('A' for Active; 'I' for Inactive)
REMARK    1  A    between atoms: C_3  and  S_1 
REMARK    2  A    between atoms: N_5  and  S_1 
REMARK    3  A    between atoms: S_2  and  N_6 
REMARK    4  A    between atoms: C_4  and  S_2 
REMARK    5  A    between atoms: O_25  and  C_15 
REMARK    6  A    between atoms: O_26  and  C_16 
ROOT
ATOM      1  N   UNL d   1      22.148  21.973  -3.886  0.00  0.00    -0.226 N 
ATOM      2  N   UNL d   1      22.414  23.567  -3.569  0.00  0.00    -0.226 N 
ATOM      3  C   UNL d   1      21.513  22.453  -3.666  0.00  0.00     0.111 A 
ATOM      4  C   UNL d   1      23.043  23.076  -3.791  0.00  0.00     0.111 A 
ATOM      5  C   UNL d   1      21.650  23.257  -3.506  0.00  0.00     0.111 A 
ATOM      6  C   UNL d   1      22.912  22.283  -3.949  0.00  0.00     0.111 A 
ENDROOT
BRANCH   1   7
ATOM      7  S   UNL d   1      22.010  21.165  -4.046  0.00  0.00     0.273 S 
ATOM      8  O   UNL d   1      21.390  20.776  -3.660  0.00  0.00    -0.200 OA
ATOM      9  O   UNL d   1      22.483  20.762  -4.581  0.00  0.00    -0.200 OA
BRANCH   7  10
ATOM     10  C   UNL d   1      21.876  20.365  -4.207  0.00  0.00     0.126 A 
ATOM     11  C   UNL d   1      21.914  20.090  -4.979  0.00  0.00     0.106 A 
ATOM     12  C   UNL d   1      21.779  19.289  -5.132  0.00  0.00     0.025 A 
ATOM     13  C   UNL d   1      21.607  18.770  -4.511  0.00  0.00     0.002 A 
ATOM     14  C   UNL d   1      21.570  19.057  -3.734  0.00  0.00     0.001 A 
ATOM     15  C   UNL d   1      21.703  19.849  -3.578  0.00  0.00     0.015 A 
ATOM     16  C   UNL d   1      21.396  18.533  -3.110  0.00  0.00     0.000 C 
BRANCH  11  17
ATOM     17  O   UNL d   1      22.085  20.604  -5.596  0.00  0.00    -0.327 OA
ATOM     18  C   UNL d   1      21.904  20.388  -6.372  0.00  0.00     0.181 C 
ENDBRANCH  11  17
ENDBRANCH   7  10
ENDBRANCH   1   7
BRANCH   2  19
ATOM     19  S   UNL d   1      22.547  24.367  -3.410  0.00  0.00     0.273 S 
ATOM     20  O   UNL d   1      22.163  24.945  -3.861  0.00  0.00    -0.200 OA
ATOM     21  O   UNL d   1      23.058  24.593  -2.804  0.00  0.00    -0.200 OA
BRANCH  19  22
ATOM     22  C   UNL d   1      22.658  25.175  -3.275  0.00  0.00     0.126 A 
ATOM     23  C   UNL d   1      22.518  25.714  -3.880  0.00  0.00     0.106 A 
ATOM     24  C   UNL d   1      22.629  26.515  -3.747  0.00  0.00     0.025 A 
ATOM     25  C   UNL d   1      22.880  26.779  -3.007  0.00  0.00     0.002 A 
ATOM     26  C   UNL d   1      23.019  26.236  -2.402  0.00  0.00     0.001 A 
ATOM     27  C   UNL d   1      22.906  25.429  -2.544  0.00  0.00     0.015 A 
ATOM     28  C   UNL d   1      23.269  26.489  -1.664  0.00  0.00     0.000 C 
BRANCH  23  29
ATOM     29  O   UNL d   1      22.268  25.450  -4.620  0.00  0.00    -0.327 OA
ATOM     30  C   UNL d   1      22.095  25.995  -5.215  0.00  0.00     0.181 C 
ENDBRANCH  23  29
ENDBRANCH  19  22
ENDBRANCH   2  19
TORSDOF 6
ENDMDL
