MODEL 1
REMARK VINA RESULT:       9.7      0.000      0.000
REMARK  6 active torsions:
REMARK  status: ('A' for Active; 'I' for Inactive)
REMARK    1  A    between atoms: S_6  and  N_1 
REMARK    2  A    between atoms: C_2  and  C_4 
REMARK    3  A    between atoms: C_12  and  C_3 
REMARK    4  A    between atoms: C_17  and  N_8 
REMARK    5  A    between atoms: C_16  and  C_10 
REMARK    6  A    between atoms: O_27  and  C_24 
ROOT
ATOM      1  N   UNL d   1      31.842  21.096 -20.967  0.00  0.00    -0.155 N 
ATOM      2  C   UNL d   1      32.534  21.374 -21.324  0.00  0.00     0.099 A 
ATOM      3  N   UNL d   1      31.807  21.442 -20.225  0.00  0.00    -0.156 NA
ATOM      4  C   UNL d   1      32.470  21.930 -20.120  0.00  0.00     0.103 A 
ATOM      5  C   UNL d   1      32.907  21.871 -20.819  0.00  0.00     0.041 A 
ENDROOT
BRANCH   2   6
ATOM      6  C   UNL d   1      32.766  21.136 -22.113  0.00  0.00     0.058 A 
ATOM      7  C   UNL d   1      33.025  21.625 -22.696  0.00  0.00     0.110 A 
ATOM      8  N   UNL d   1      33.177  21.116 -23.349  0.00  0.00    -0.165 NA
ATOM      9  N   UNL d   1      33.003  20.335 -23.133  0.00  0.00    -0.228 N 
ATOM     10  C   UNL d   1      32.744  20.346 -22.355  0.00  0.00     0.103 A 
BRANCH   7  11
ATOM     11  C   UNL d   1      33.124  22.439 -22.675  0.00  0.00     0.049 A 
ATOM     12  S   UNL d   1      33.207  23.049 -22.437  0.00  0.00    -0.085 SA
ATOM     13  C   UNL d   1      33.239  23.550 -23.109  0.00  0.00     0.035 A 
ATOM     14  C   UNL d   1      33.167  23.207 -23.824  0.00  0.00     0.007 A 
ATOM     15  C   UNL d   1      33.088  22.470 -23.608  0.00  0.00     0.009 A 
ENDBRANCH   7  11
BRANCH   9  16
ATOM     16  C   UNL d   1      33.080  19.678 -23.621  0.00  0.00     0.083 A 
ATOM     17  C   UNL d   1      33.095  19.761 -24.432  0.00  0.00     0.019 A 
ATOM     18  C   UNL d   1      33.171  19.092 -24.833  0.00  0.00     0.002 A 
ATOM     19  C   UNL d   1      33.240  18.307 -24.577  0.00  0.00     0.000 A 
ATOM     20  C   UNL d   1      33.220  18.261 -23.739  0.00  0.00     0.002 A 
ATOM     21  C   UNL d   1      33.143  18.921 -23.253  0.00  0.00     0.019 A 
ENDBRANCH   9  16
ENDBRANCH   2   6
BRANCH   1  22
ATOM     22  S   UNL d   1      31.280  20.572 -21.274  0.00  0.00     0.266 S 
ATOM     23  O   UNL d   1      31.777  19.935 -21.099  0.00  0.00    -0.203 OA
ATOM     24  O   UNL d   1      30.784  21.208 -21.448  0.00  0.00    -0.203 OA
ATOM     25  C   UNL d   1      30.716  20.046 -21.582  0.00  0.00     0.165 C 
ENDBRANCH   1  22
BRANCH   4  26
ATOM     26  C   UNL d   1      32.668  22.387 -19.464  0.00  0.00     0.020 A 
ATOM     27  C   UNL d   1      32.983  23.147 -19.530  0.00  0.00     0.004 A 
ATOM     28  C   UNL d   1      33.170  23.578 -18.860  0.00  0.00     0.024 A 
ATOM     29  C   UNL d   1      33.041  23.246 -18.114  0.00  0.00     0.094 A 
ATOM     30  C   UNL d   1      32.726  22.486 -18.048  0.00  0.00     0.024 A 
ATOM     31  C   UNL d   1      32.551  22.082 -18.701  0.00  0.00     0.004 A 
BRANCH  29  32
ATOM     32  O   UNL d   1      33.239  23.702 -17.436  0.00  0.00    -0.328 OA
ATOM     33  C   UNL d   1      33.194  23.367 -16.689  0.00  0.00     0.181 C 
ENDBRANCH  29  32
ENDBRANCH   4  26
TORSDOF 6
ENDMDL
