MODEL 1
REMARK VINA RESULT:      55.1      0.000      0.000
REMARK  3 active torsions:
REMARK  status: ('A' for Active; 'I' for Inactive)
REMARK    1  A    between atoms: C_6  and  C_16 
REMARK    2  A    between atoms: S_14  and  C_8 
REMARK    3  A    between atoms: C_16  and  S_14 
ROOT
ATOM      1  C   UNL d   1     -50.722  25.978  33.336  0.00  0.00     0.141 A 
ATOM      2  O   UNL d   1     -50.118  25.414  33.343  0.00  0.00    -0.303 OA
ATOM      3  C   UNL d   1     -51.443  25.579  33.321  0.00  0.00     0.110 A 
ATOM      4  C   UNL d   1     -51.287  24.768  33.318  0.00  0.00     0.043 A 
ATOM      5  C   UNL d   1     -50.707  26.804  33.341  0.00  0.00     0.137 A 
ATOM      6  C   UNL d   1     -50.469  24.668  33.332  0.00  0.00     0.102 A 
ATOM      7  N   UNL d   1     -51.414  27.229  33.331  0.00  0.00    -0.215 NA
ATOM      8  N   UNL d   1     -52.151  26.003  33.311  0.00  0.00    -0.222 NA
ATOM      9  C   UNL d   1     -52.136  26.830  33.316  0.00  0.00     0.200 A 
ATOM     10  C   UNL d   1     -51.784  24.110  33.306  0.00  0.00     0.004 A 
ATOM     11  C   UNL d   1     -50.146  23.907  33.333  0.00  0.00     0.025 A 
ATOM     12  C   UNL d   1     -51.462  23.350  33.307  0.00  0.00     0.000 A 
ATOM     13  C   UNL d   1     -50.643  23.248  33.320  0.00  0.00     0.002 A 
ENDROOT
BRANCH   5  14
ATOM     14  S   UNL d   1     -49.984  27.203  33.357  0.00  0.00    -0.062 SA
BRANCH  14  15
ATOM     15  C   UNL d   1     -49.970  28.024  33.433  0.00  0.00     0.076 C 
BRANCH  15  16
ATOM     16  C   UNL d   1     -49.412  28.381  33.924  0.00  0.00     0.169 A 
ATOM     17  N   UNL d   1     -49.208  29.181  33.929  0.00  0.00    -0.225 NA
ATOM     18  C   UNL d   1     -48.630  29.295  34.506  0.00  0.00     0.101 A 
ATOM     19  C   UNL d   1     -48.224  29.967  34.756  0.00  0.00     0.021 A 
ATOM     20  C   UNL d   1     -48.475  28.565  34.859  0.00  0.00     0.101 A 
ATOM     21  C   UNL d   1     -47.663  29.911  35.359  0.00  0.00     0.002 A 
ATOM     22  C   UNL d   1     -47.508  29.182  35.711  0.00  0.00     0.002 A 
ATOM     23  C   UNL d   1     -47.915  28.509  35.461  0.00  0.00     0.021 A 
ATOM     24  N   UNL d   1     -48.958  28.001  34.500  0.00  0.00    -0.225 NA
ENDBRANCH  15  16
ENDBRANCH  14  15
ENDBRANCH   5  14
TORSDOF 3
ENDMDL
MODEL 2
REMARK VINA RESULT:      57.4      1.174      1.708
REMARK  3 active torsions:
REMARK  status: ('A' for Active; 'I' for Inactive)
REMARK    1  A    between atoms: C_6  and  C_16 
REMARK    2  A    between atoms: S_14  and  C_8 
REMARK    3  A    between atoms: C_16  and  S_14 
ROOT
ATOM      1  C   UNL d   1     -51.008  25.165  33.346  0.00  0.00     0.141 A 
ATOM      2  O   UNL d   1     -51.790  25.428  33.360  0.00  0.00    -0.303 OA
ATOM      3  C   UNL d   1     -51.017  24.340  33.324  0.00  0.00     0.110 A 
ATOM      4  C   UNL d   1     -51.804  24.093  33.324  0.00  0.00     0.043 A 
ATOM      5  C   UNL d   1     -50.288  25.570  33.350  0.00  0.00     0.137 A 
ATOM      6  C   UNL d   1     -52.281  24.765  33.346  0.00  0.00     0.102 A 
ATOM      7  N   UNL d   1     -49.578  25.149  33.333  0.00  0.00    -0.215 NA
ATOM      8  N   UNL d   1     -50.307  23.919  33.306  0.00  0.00    -0.222 NA
ATOM      9  C   UNL d   1     -49.587  24.325  33.311  0.00  0.00     0.200 A 
ATOM     10  C   UNL d   1     -52.147  23.343  33.307  0.00  0.00     0.004 A 
ATOM     11  C   UNL d   1     -53.104  24.688  33.352  0.00  0.00     0.025 A 
ATOM     12  C   UNL d   1     -52.970  23.266  33.312  0.00  0.00     0.000 A 
ATOM     13  C   UNL d   1     -53.448  23.938  33.335  0.00  0.00     0.002 A 
ENDROOT
BRANCH   5  14
ATOM     14  S   UNL d   1     -50.279  26.395  33.372  0.00  0.00    -0.062 SA
BRANCH  14  15
ATOM     15  C   UNL d   1     -50.335  26.788  34.095  0.00  0.00     0.076 C 
BRANCH  15  16
ATOM     16  C   UNL d   1     -49.789  27.376  34.287  0.00  0.00     0.169 A 
ATOM     17  N   UNL d   1     -49.673  28.084  33.879  0.00  0.00    -0.225 NA
ATOM     18  C   UNL d   1     -49.075  28.504  34.260  0.00  0.00     0.101 A 
ATOM     19  C   UNL d   1     -48.729  29.237  34.105  0.00  0.00     0.021 A 
ATOM     20  C   UNL d   1     -48.820  28.057  34.905  0.00  0.00     0.101 A 
ATOM     21  C   UNL d   1     -48.128  29.522  34.593  0.00  0.00     0.002 A 
ATOM     22  C   UNL d   1     -47.874  29.075  35.237  0.00  0.00     0.002 A 
ATOM     23  C   UNL d   1     -48.220  28.342  35.393  0.00  0.00     0.021 A 
ATOM     24  N   UNL d   1     -49.261  27.360  34.921  0.00  0.00    -0.225 NA
ENDBRANCH  15  16
ENDBRANCH  14  15
ENDBRANCH   5  14
TORSDOF 3
ENDMDL
