MODEL 1
REMARK VINA RESULT:       9.4      0.000      0.000
REMARK  6 active torsions:
REMARK  status: ('A' for Active; 'I' for Inactive)
REMARK    1  A    between atoms: C_11  and  N_3 
REMARK    2  A    between atoms: C_10  and  C_7 
REMARK       I    between atoms: N_19  and  C_10 
REMARK    3  A    between atoms: C_21  and  C_11 
REMARK    4  A    between atoms: N_15  and  C_23 
REMARK    5  A    between atoms: C_22  and  N_19 
REMARK    6  A    between atoms: C_23  and  C_22 
ROOT
ATOM      1  C   UNL d   1     -41.910-122.429 -53.349  0.00  0.00     0.154 A 
ATOM      2  C   UNL d   1     -42.495-122.984 -53.521  0.00  0.00     0.093 A 
ATOM      3  N   UNL d   1     -41.694-122.530 -52.557  0.00  0.00    -0.286 N 
ATOM      4  N   UNL d   1     -41.651-121.908 -53.931  0.00  0.00    -0.210 NA
ATOM      5  C   UNL d   1     -42.822-123.018 -54.275  0.00  0.00     0.269 A 
ATOM      6  N   UNL d   1     -42.564-122.497 -54.859  0.00  0.00    -0.258 N 
ATOM      7  C   UNL d   1     -42.141-123.140 -52.242  0.00  0.00     0.124 A 
ATOM      8  C   UNL d   1     -41.978-121.942 -54.687  0.00  0.00     0.152 A 
ATOM      9  C   UNL d   1     -42.638-123.424 -52.834  0.00  0.00     0.030 A 
ATOM     10  C   UNL d   1     -42.890-122.531 -55.613  0.00  0.00     0.084 A 
ATOM     11  O   UNL d   1     -43.408-123.573 -54.447  0.00  0.00    -0.266 OA
ATOM     12  C   UNL d   1     -41.719-121.421 -55.269  0.00  0.00     0.038 A 
ATOM     13  C   UNL d   1     -42.632-122.009 -56.200  0.00  0.00     0.019 A 
ATOM     14  C   UNL d   1     -42.046-121.454 -56.028  0.00  0.00     0.005 A 
ENDROOT
BRANCH   7  15
ATOM     15  C   UNL d   1     -42.096-123.417 -51.466  0.00  0.00     0.295 C 
ATOM     16  O   UNL d   1     -41.427-123.815 -51.202  0.00  0.00    -0.264 OA
ATOM     17  N   UNL d   1     -42.736-123.288 -50.952  0.00  0.00    -0.204 NA
BRANCH  17  18
ATOM     18  C   UNL d   1     -42.698-123.563 -50.170  0.00  0.00     0.121 C 
BRANCH  18  19
ATOM     19  C   UNL d   1     -43.182-123.233 -49.593  0.00  0.00     0.101 C 
BRANCH  19  20
ATOM     20  N   UNL d   1     -42.948-123.243 -48.802  0.00  0.00    -0.298 N 
ATOM     21  C   UNL d   1     -43.370-123.698 -48.252  0.00  0.00     0.107 A 
ATOM     22  C   UNL d   1     -43.134-123.707 -47.453  0.00  0.00     0.142 A 
ATOM     23  O   UNL d   1     -42.477-123.262 -47.212  0.00  0.00    -0.300 OA
ATOM     24  C   UNL d   1     -42.059-122.811 -47.760  0.00  0.00     0.142 A 
ATOM     25  C   UNL d   1     -42.296-122.801 -48.559  0.00  0.00     0.107 A 
ENDBRANCH  19  20
ENDBRANCH  18  19
ENDBRANCH  17  18
ENDBRANCH   7  15
BRANCH   3  26
ATOM     26  C   UNL d   1     -41.123-122.086 -52.158  0.00  0.00     0.082 C 
BRANCH  26  27
ATOM     27  C   UNL d   1     -41.250-121.288 -52.001  0.00  0.00     0.018 A 
ATOM     28  C   UNL d   1     -41.176-120.999 -51.235  0.00  0.00     0.002 A 
ATOM     29  C   UNL d   1     -41.301-120.211 -51.079  0.00  0.00     0.000 A 
ATOM     30  C   UNL d   1     -41.504-119.692 -51.688  0.00  0.00     0.000 A 
ATOM     31  C   UNL d   1     -41.580-119.970 -52.454  0.00  0.00     0.000 A 
ATOM     32  C   UNL d   1     -41.453-120.768 -52.611  0.00  0.00     0.002 A 
ENDBRANCH  26  27
ENDBRANCH   3  26
TORSDOF 6
ENDMDL
