MODEL 1
REMARK VINA RESULT:      51.1      0.000      0.000
REMARK  1 active torsions:
REMARK  status: ('A' for Active; 'I' for Inactive)
REMARK    1  A    between atoms: C_11  and  N_5 
ROOT
ATOM      1  C   UNL d   1     -51.597  25.829  33.347  0.00  0.00     0.130 A 
ATOM      2  C   UNL d   1     -50.993  25.265  33.346  0.00  0.00     0.157 A 
ATOM      3  N   UNL d   1     -50.210  25.501  33.355  0.00  0.00    -0.210 NA
ATOM      4  C   UNL d   1     -51.413  26.633  33.358  0.00  0.00     0.272 A 
ATOM      5  N   UNL d   1     -50.627  26.872  33.367  0.00  0.00    -0.259 N 
ATOM      6  C   UNL d   1     -52.385  25.587  33.338  0.00  0.00     0.204 A 
ATOM      7  N   UNL d   1     -51.182  24.467  33.336  0.00  0.00    -0.289 N 
ATOM      8  C   UNL d   1     -50.021  26.310  33.366  0.00  0.00     0.152 A 
ATOM      9  C   UNL d   1     -52.568  24.795  33.327  0.00  0.00     0.055 A 
ATOM     10  C   UNL d   1     -51.972  24.231  33.326  0.00  0.00     0.069 A 
ATOM     11  O   UNL d   1     -52.015  27.191  33.359  0.00  0.00    -0.266 OA
ATOM     12  O   UNL d   1     -52.982  26.151  33.339  0.00  0.00    -0.286 OA
ATOM     13  C   UNL d   1     -50.585  23.902  33.334  0.00  0.00     0.101 C 
ATOM     14  C   UNL d   1     -49.233  26.547  33.375  0.00  0.00     0.041 C 
ATOM     15  C   UNL d   1     -53.360  24.556  33.318  0.00  0.00     0.005 A 
ATOM     16  C   UNL d   1     -52.160  23.421  33.316  0.00  0.00     0.018 A 
ATOM     17  C   UNL d   1     -53.543  23.753  33.307  0.00  0.00     0.000 A 
ATOM     18  C   UNL d   1     -52.946  23.189  33.306  0.00  0.00     0.002 A 
ENDROOT
BRANCH   5  19
ATOM     19  C   UNL d   1     -50.447  27.678  33.377  0.00  0.00     0.068 A 
ATOM     20  C   UNL d   1     -51.049  28.245  33.306  0.00  0.00     0.020 A 
ATOM     21  C   UNL d   1     -50.868  29.052  33.317  0.00  0.00     0.031 A 
ATOM     22  C   UNL d   1     -50.087  29.303  33.398  0.00  0.00     0.140 A 
ATOM     23  C   UNL d   1     -49.477  28.738  33.471  0.00  0.00     0.031 A 
ATOM     24  F   UNL d   1     -49.905  30.111  33.409  0.00  0.00    -0.204 F 
ATOM     25  C   UNL d   1     -49.663  27.926  33.460  0.00  0.00     0.020 A 
ENDBRANCH   5  19
TORSDOF 1
ENDMDL
