MODEL 1
REMARK VINA RESULT:      89.1      0.000      0.000
REMARK  5 active torsions:
REMARK  status: ('A' for Active; 'I' for Inactive)
REMARK    1  A    between atoms: C_4  and  C_1 
REMARK    2  A    between atoms: C_10  and  C_2 
REMARK    3  A    between atoms: C_8  and  C_4 
REMARK    4  A    between atoms: C_9  and  C_4 
REMARK    5  A    between atoms: N_5  and  C_9 
ROOT
ATOM      1  C   UNL d   1     -56.250 -99.506 -43.805  0.00  0.00     0.023 A 
ATOM      2  C   UNL d   1     -56.956 -99.082 -43.673  0.00  0.00     0.081 A 
ATOM      3  N   UNL d   1     -56.921 -98.759 -42.922  0.00  0.00    -0.246 NA
ATOM      4  C   UNL d   1     -55.784 -99.439 -43.128  0.00  0.00     0.019 A 
ATOM      5  C   UNL d   1     -56.195 -98.976 -42.576  0.00  0.00     0.081 A 
ATOM      6  C   UNL d   1     -55.040 -99.737 -42.937  0.00  0.00     0.002 A 
ATOM      7  C   UNL d   1     -55.870 -98.811 -41.842  0.00  0.00     0.019 A 
ATOM      8  C   UNL d   1     -54.711 -99.572 -42.200  0.00  0.00     0.000 A 
ATOM      9  C   UNL d   1     -55.116 -99.116 -41.656  0.00  0.00     0.002 A 
ENDROOT
BRANCH   1  10
ATOM     10  C   UNL d   1     -56.047 -99.923 -44.492  0.00  0.00     0.048 C 
BRANCH  10  11
ATOM     11  C   UNL d   1     -55.546 -99.589 -45.048  0.00  0.00     0.102 A 
ATOM     12  O   UNL d   1     -55.147 -98.865 -44.978  0.00  0.00    -0.305 OA
ATOM     13  C   UNL d   1     -54.711 -98.755 -45.664  0.00  0.00     0.123 A 
ATOM     14  C   UNL d   1     -54.835 -99.412 -46.168  0.00  0.00     0.029 A 
ATOM     15  C   UNL d   1     -55.346 -99.915 -45.780  0.00  0.00     0.027 A 
ENDBRANCH  10  11
BRANCH  10  16
ATOM     16  C   UNL d   1     -56.356-100.685 -44.613  0.00  0.00     0.150 C 
BRANCH  16  17
ATOM     17  N   UNL d   1     -55.874-101.343 -44.488  0.00  0.00    -0.112 N 
ATOM     18  O   UNL d   1     -55.215-101.300 -43.992  0.00  0.00    -0.532 OA
ATOM     19  O   UNL d   1     -56.046-102.075 -44.865  0.00  0.00    -0.532 OA
ENDBRANCH  16  17
ENDBRANCH  10  16
ENDBRANCH   1  10
BRANCH   2  20
ATOM     20  C   UNL d   1     -57.579 -99.004 -44.208  0.00  0.00     0.018 A 
ATOM     21  C   UNL d   1     -58.367 -99.039 -43.943  0.00  0.00     0.002 A 
ATOM     22  C   UNL d   1     -58.993 -98.961 -44.475  0.00  0.00     0.000 A 
ATOM     23  C   UNL d   1     -58.838 -98.847 -45.280  0.00  0.00     0.000 A 
ATOM     24  C   UNL d   1     -58.053 -98.810 -45.552  0.00  0.00     0.000 A 
ATOM     25  C   UNL d   1     -59.461 -98.769 -45.809  0.00  0.00     0.000 C 
ATOM     26  C   UNL d   1     -57.427 -98.890 -45.009  0.00  0.00     0.002 A 
ENDBRANCH   2  20
TORSDOF 5
ENDMDL
