MODEL 1
REMARK VINA RESULT:      45.0      0.000      0.000
REMARK  3 active torsions:
REMARK  status: ('A' for Active; 'I' for Inactive)
REMARK    1  A    between atoms: C_16  and  N_3 
REMARK    2  A    between atoms: C_10  and  C_5 
REMARK    3  A    between atoms: C_26  and  C_16 
ROOT
ATOM      1  C   UNL d   1      14.047  13.564  -2.574  0.00  0.00     0.083 A 
ATOM      2  C   UNL d   1      13.846  13.887  -3.304  0.00  0.00     0.161 A 
ATOM      3  N   UNL d   1      13.501  12.594  -3.326  0.00  0.00    -0.268 N 
ATOM      4  C   UNL d   1      13.508  13.291  -3.773  0.00  0.00     0.288 A 
ATOM      5  C   UNL d   1      13.836  12.763  -2.583  0.00  0.00     0.072 A 
ATOM      6  C   UNL d   1      14.396  14.032  -1.992  0.00  0.00     0.201 A 
ATOM      7  O   UNL d   1      13.996  14.691  -3.455  0.00  0.00    -0.302 OA
ATOM      8  C   UNL d   1      14.544  14.829  -2.145  0.00  0.00     0.062 A 
ATOM      9  C   UNL d   1      14.344  15.156  -2.874  0.00  0.00     0.103 A 
ATOM     10  O   UNL d   1      13.230  13.374  -4.539  0.00  0.00    -0.264 OA
ATOM     11  O   UNL d   1      14.598  13.710  -1.262  0.00  0.00    -0.286 OA
ATOM     12  C   UNL d   1      14.895  15.301  -1.562  0.00  0.00     0.012 A 
ATOM     13  C   UNL d   1      14.497  15.962  -3.019  0.00  0.00     0.025 A 
ATOM     14  C   UNL d   1      15.044  16.095  -1.707  0.00  0.00     0.035 A 
ATOM     15  C   UNL d   1      14.845  16.427  -2.438  0.00  0.00     0.009 A 
ATOM     16 BR   UNL d   1      15.391  16.561  -1.130  0.00  0.00    -0.049 Br
ENDROOT
BRANCH   5  17
ATOM     17  C   UNL d   1      14.035  12.437  -1.855  0.00  0.00     0.019 A 
ATOM     18  C   UNL d   1      13.451  12.270  -1.294  0.00  0.00     0.031 A 
ATOM     19  C   UNL d   1      13.655  11.944  -0.568  0.00  0.00     0.140 A 
ATOM     20  F   UNL d   1      13.068  11.780  -0.014  0.00  0.00    -0.204 F 
ATOM     21  C   UNL d   1      14.451  11.779  -0.391  0.00  0.00     0.030 A 
ATOM     22  C   UNL d   1      15.036  11.947  -0.951  0.00  0.00     0.002 A 
ATOM     23  C   UNL d   1      14.826  12.276  -1.685  0.00  0.00     0.002 A 
ENDBRANCH   5  17
BRANCH   3  24
ATOM     24  C   UNL d   1      13.215  11.862  -3.571  0.00  0.00     0.129 C 
BRANCH  24  25
ATOM     25  C   UNL d   1      12.896  11.779  -4.325  0.00  0.00     0.253 C 
ATOM     26  O   UNL d   1      13.388  11.782  -4.983  0.00  0.00    -0.281 OA
ENDBRANCH  24  25
ENDBRANCH   3  24
TORSDOF 3
ENDMDL
