MODEL 1
REMARK VINA RESULT:      42.6      0.000      0.000
REMARK  2 active torsions:
REMARK  status: ('A' for Active; 'I' for Inactive)
REMARK    1  A    between atoms: C_3  and  C_4 
REMARK       I    between atoms: N_7  and  C_3 
REMARK    2  A    between atoms: C_11  and  N_7 
ROOT
ATOM      1  C   UNL d   1      13.678  12.477  -2.855  0.00  0.00     0.300 A 
ATOM      2  O   UNL d   1      13.965  13.182  -2.518  0.00  0.00    -0.268 OA
ATOM      3  C   UNL d   1      13.945  13.889  -2.959  0.00  0.00     0.161 A 
ATOM      4  C   UNL d   1      13.374  12.475  -3.625  0.00  0.00     0.064 A 
ATOM      5  C   UNL d   1      13.357  13.186  -4.060  0.00  0.00     0.007 A 
ATOM      6  C   UNL d   1      13.640  13.889  -3.731  0.00  0.00     0.030 A 
ATOM      7  O   UNL d   1      13.697  11.780  -2.421  0.00  0.00    -0.259 OA
ATOM      8  C   UNL d   1      13.052  13.183  -4.831  0.00  0.00     0.000 A 
ATOM      9  C   UNL d   1      13.092  11.780  -3.956  0.00  0.00     0.005 A 
ATOM     10  C   UNL d   1      12.771  12.478  -5.154  0.00  0.00     0.000 A 
ATOM     11  C   UNL d   1      12.791  11.781  -4.720  0.00  0.00     0.000 A 
ENDROOT
BRANCH   3  12
ATOM     12  C   UNL d   1      14.229  14.583  -2.623  0.00  0.00     0.302 C 
ATOM     13  N   UNL d   1      14.545  14.579  -1.865  0.00  0.00    -0.206 NA
ATOM     14  O   UNL d   1      14.194  15.283  -3.051  0.00  0.00    -0.263 OA
BRANCH  13  15
ATOM     15  C   UNL d   1      14.826  15.276  -1.537  0.00  0.00     0.085 A 
ATOM     16  C   UNL d   1      15.124  15.290  -0.775  0.00  0.00     0.019 A 
ATOM     17  C   UNL d   1      15.404  15.981  -0.448  0.00  0.00     0.002 A 
ATOM     18  C   UNL d   1      15.389  16.685  -0.888  0.00  0.00     0.000 A 
ATOM     19  C   UNL d   1      15.090  16.676  -1.655  0.00  0.00     0.002 A 
ATOM     20  C   UNL d   1      15.669  17.380  -0.561  0.00  0.00     0.000 C 
ATOM     21  C   UNL d   1      14.805  15.970  -1.989  0.00  0.00     0.019 A 
ENDBRANCH  13  15
ENDBRANCH   3  12
TORSDOF 2
ENDMDL
