MODEL 1
REMARK VINA RESULT:      63.4      0.000      0.000
REMARK  4 active torsions:
REMARK  status: ('A' for Active; 'I' for Inactive)
REMARK    1  A    between atoms: N_6  and  C_1 
REMARK       I    between atoms: C_7  and  N_8 
REMARK    2  A    between atoms: C_9  and  C_7 
REMARK    3  A    between atoms: O_20  and  C_10 
REMARK    4  A    between atoms: O_19  and  C_11 
ROOT
ATOM      1  C   UNL d   1      59.899  49.648  51.740  0.00  0.00     0.180 A 
ATOM      2  N   UNL d   1      60.605  49.664  51.311  0.00  0.00    -0.220 NA
ATOM      3  S   UNL d   1      60.100  49.650  52.547  0.00  0.00    -0.046 SA
ATOM      4  C   UNL d   1      61.231  49.676  51.842  0.00  0.00     0.114 A 
ATOM      5  C   UNL d   1      60.914  49.667  52.603  0.00  0.00     0.074 A 
ATOM      6  C   UNL d   1      62.037  49.694  51.736  0.00  0.00     0.112 A 
ATOM      7  C   UNL d   1      61.406  49.676  53.248  0.00  0.00     0.102 A 
ATOM      8  C   UNL d   1      62.224  49.694  53.144  0.00  0.00     0.027 A 
ATOM      9  C   UNL d   1      62.541  49.703  52.382  0.00  0.00     0.028 A 
ENDROOT
BRANCH   1  10
ATOM     10  N   UNL d   1      59.144  49.633  51.417  0.00  0.00    -0.281 N 
ATOM     11  C   UNL d   1      58.487  49.707  51.914  0.00  0.00     0.101 A 
ATOM     12  C   UNL d   1      57.721  49.693  51.605  0.00  0.00     0.102 A 
ATOM     13  N   UNL d   1      57.624  49.604  50.786  0.00  0.00    -0.272 N 
ATOM     14  C   UNL d   1      56.853  49.589  50.471  0.00  0.00     0.240 C 
ATOM     15  C   UNL d   1      58.281  49.529  50.290  0.00  0.00     0.102 A 
ATOM     16  O   UNL d   1      56.203  49.663  50.962  0.00  0.00    -0.272 OA
ATOM     17  C   UNL d   1      59.036  49.545  50.612  0.00  0.00     0.101 A 
BRANCH  14  18
ATOM     18  C   UNL d   1      56.758  49.500  49.655  0.00  0.00     0.072 C 
ATOM     19  C   UNL d   1      57.401  49.647  49.169  0.00  0.00     0.009 C 
ATOM     20  C   UNL d   1      56.035  49.267  49.313  0.00  0.00     0.009 C 
ATOM     21  C   UNL d   1      56.625  49.400  48.844  0.00  0.00     0.009 C 
ENDBRANCH  14  18
ENDBRANCH   1  10
BRANCH   6  22
ATOM     22  O   UNL d   1      62.352  49.703  50.978  0.00  0.00    -0.327 OA
ATOM     23  C   UNL d   1      62.098  49.152  50.428  0.00  0.00     0.181 C 
ENDBRANCH   6  22
BRANCH   7  24
ATOM     24  O   UNL d   1      61.091  49.667  54.007  0.00  0.00    -0.328 OA
ATOM     25  C   UNL d   1      60.273  49.630  54.118  0.00  0.00     0.181 C 
ENDBRANCH   7  24
TORSDOF 4
ENDMDL
