MODEL 1
REMARK VINA RESULT:      49.8      0.000      0.000
REMARK  6 active torsions:
REMARK  status: ('A' for Active; 'I' for Inactive)
REMARK    1  A    between atoms: C_7  and  C_1 
REMARK    2  A    between atoms: O_11  and  C_2 
REMARK    3  A    between atoms: O_13  and  C_10 
REMARK    4  A    between atoms: C_20  and  O_11 
REMARK    5  A    between atoms: C_21  and  C_12 
REMARK    6  A    between atoms: C_14  and  O_13 
ROOT
ATOM      1  C   UNL d   1      13.587  13.823  -3.438  0.00  0.00     0.197 A 
ATOM      2  C   UNL d   1      13.231  13.055  -3.456  0.00  0.00     0.165 A 
ATOM      3  O   UNL d   1      14.036  14.050  -2.781  0.00  0.00    -0.301 OA
ATOM      4  C   UNL d   1      13.346  12.552  -2.810  0.00  0.00     0.222 A 
ATOM      5  C   UNL d   1      13.794  12.779  -2.154  0.00  0.00     0.064 A 
ATOM      6  C   UNL d   1      14.141  13.546  -2.151  0.00  0.00     0.105 A 
ATOM      7  C   UNL d   1      13.898  12.275  -1.527  0.00  0.00     0.007 A 
ATOM      8  C   UNL d   1      14.591  13.777  -1.496  0.00  0.00     0.050 A 
ATOM      9  C   UNL d   1      14.693  13.265  -0.865  0.00  0.00     0.105 A 
ATOM     10  C   UNL d   1      14.345  12.504  -0.875  0.00  0.00     0.023 A 
ATOM     11  O   UNL d   1      12.986  11.782  -2.835  0.00  0.00    -0.284 OA
ENDROOT
BRANCH   2  12
ATOM     12  O   UNL d   1      12.780  12.811  -4.103  0.00  0.00    -0.302 OA
BRANCH  12  13
ATOM     13  C   UNL d   1      13.155  12.553  -4.782  0.00  0.00     0.100 A 
ATOM     14  C   UNL d   1      13.790  12.018  -4.750  0.00  0.00     0.025 A 
ATOM     15  C   UNL d   1      14.143  11.779  -5.432  0.00  0.00     0.002 A 
ATOM     16  C   UNL d   1      13.888  12.055  -6.168  0.00  0.00     0.000 A 
ATOM     17  C   UNL d   1      13.273  12.573  -6.192  0.00  0.00     0.002 A 
ATOM     18  C   UNL d   1      12.900  12.829  -5.519  0.00  0.00     0.025 A 
ENDBRANCH  12  13
ENDBRANCH   2  12
BRANCH   1  19
ATOM     19  C   UNL d   1      13.496  14.353  -4.063  0.00  0.00     0.442 C 
ATOM     20  F   UNL d   1      13.410  14.891  -4.702  0.00  0.00    -0.164 F 
ATOM     21  F   UNL d   1      12.770  14.621  -3.740  0.00  0.00    -0.164 F 
ATOM     22  F   UNL d   1      14.226  14.083  -4.387  0.00  0.00    -0.164 F 
ENDBRANCH   1  19
BRANCH  10  23
ATOM     23  C   UNL d   1      14.436  11.973  -0.250  0.00  0.00     0.002 C 
ATOM     24  C   UNL d   1      15.071  11.785  -0.043  0.00  0.00     0.000 C 
ENDBRANCH  10  23
BRANCH   9  25
ATOM     25  O   UNL d   1      15.142  13.507  -0.221  0.00  0.00    -0.273 OA
BRANCH  25  26
ATOM     26  C   UNL d   1      15.424  14.279  -0.169  0.00  0.00     0.300 C 
ATOM     27  O   UNL d   1      14.898  14.924  -0.204  0.00  0.00    -0.259 OA
ATOM     28  C   UNL d   1      16.216  14.428  -0.081  0.00  0.00     0.074 C 
ENDBRANCH  25  26
ENDBRANCH   9  25
TORSDOF 6
ENDMDL
MODEL 2
REMARK VINA RESULT:      51.7      1.564      2.848
REMARK  6 active torsions:
REMARK  status: ('A' for Active; 'I' for Inactive)
REMARK    1  A    between atoms: C_7  and  C_1 
REMARK    2  A    between atoms: O_11  and  C_2 
REMARK    3  A    between atoms: O_13  and  C_10 
REMARK    4  A    between atoms: C_20  and  O_11 
REMARK    5  A    between atoms: C_21  and  C_12 
REMARK    6  A    between atoms: C_14  and  O_13 
ROOT
ATOM      1  C   UNL d   1      13.711  14.177  -3.382  0.00  0.00     0.197 A 
ATOM      2  C   UNL d   1      13.923  14.993  -3.304  0.00  0.00     0.165 A 
ATOM      3  O   UNL d   1      13.874  13.652  -2.764  0.00  0.00    -0.301 OA
ATOM      4  C   UNL d   1      14.289  15.240  -2.606  0.00  0.00     0.222 A 
ATOM      5  C   UNL d   1      14.453  14.716  -1.989  0.00  0.00     0.064 A 
ATOM      6  C   UNL d   1      14.236  13.907  -2.081  0.00  0.00     0.105 A 
ATOM      7  C   UNL d   1      14.813  14.973  -1.309  0.00  0.00     0.007 A 
ATOM      8  C   UNL d   1      14.398  13.379  -1.465  0.00  0.00     0.050 A 
ATOM      9  C   UNL d   1      14.762  13.643  -0.781  0.00  0.00     0.105 A 
ATOM     10  C   UNL d   1      14.974  14.448  -0.696  0.00  0.00     0.023 A 
ATOM     11  O   UNL d   1      14.499  16.061  -2.535  0.00  0.00    -0.284 OA
ENDROOT
BRANCH   2  12
ATOM     12  O   UNL d   1      13.767  15.532  -3.910  0.00  0.00    -0.302 OA
BRANCH  12  13
ATOM     13  C   UNL d   1      14.386  15.942  -4.253  0.00  0.00     0.100 A 
ATOM     14  C   UNL d   1      14.707  16.619  -3.895  0.00  0.00     0.025 A 
ATOM     15  C   UNL d   1      15.315  17.006  -4.252  0.00  0.00     0.002 A 
ATOM     16  C   UNL d   1      15.630  16.744  -4.970  0.00  0.00     0.000 A 
ATOM     17  C   UNL d   1      15.314  16.087  -5.310  0.00  0.00     0.002 A 
ATOM     18  C   UNL d   1      14.701  15.680  -4.971  0.00  0.00     0.025 A 
ENDBRANCH  12  13
ENDBRANCH   2  12
BRANCH   1  19
ATOM     19  C   UNL d   1      13.343  13.891  -4.063  0.00  0.00     0.442 C 
ATOM     20  F   UNL d   1      12.973  13.594  -4.755  0.00  0.00    -0.164 F 
ATOM     21  F   UNL d   1      12.930  14.616  -4.152  0.00  0.00    -0.164 F 
ATOM     22  F   UNL d   1      13.760  13.164  -3.971  0.00  0.00    -0.164 F 
ENDBRANCH   1  19
BRANCH  10  23
ATOM     23  C   UNL d   1      15.342  14.733  -0.015  0.00  0.00     0.002 C 
ATOM     24  C   UNL d   1      15.723  15.313  -0.042  0.00  0.00     0.000 C 
ENDBRANCH  10  23
BRANCH   9  25
ATOM     25  O   UNL d   1      14.916  13.106  -0.177  0.00  0.00    -0.273 OA
BRANCH  25  26
ATOM     26  C   UNL d   1      14.754  12.305  -0.271  0.00  0.00     0.300 C 
ATOM     27  O   UNL d   1      13.978  12.018  -0.176  0.00  0.00    -0.259 OA
ATOM     28  C   UNL d   1      15.343  11.780  -0.458  0.00  0.00     0.074 C 
ENDBRANCH  25  26
ENDBRANCH   9  25
TORSDOF 6
ENDMDL
MODEL 3
REMARK VINA RESULT:      52.3      1.644      4.141
REMARK  6 active torsions:
REMARK  status: ('A' for Active; 'I' for Inactive)
REMARK    1  A    between atoms: C_7  and  C_1 
REMARK    2  A    between atoms: O_11  and  C_2 
REMARK    3  A    between atoms: O_13  and  C_10 
REMARK    4  A    between atoms: C_20  and  O_11 
REMARK    5  A    between atoms: C_21  and  C_12 
REMARK    6  A    between atoms: C_14  and  O_13 
ROOT
ATOM      1  C   UNL d   1      14.489  14.848  -1.628  0.00  0.00     0.197 A 
ATOM      2  C   UNL d   1      14.311  14.065  -1.361  0.00  0.00     0.165 A 
ATOM      3  O   UNL d   1      14.323  15.061  -2.410  0.00  0.00    -0.301 OA
ATOM      4  C   UNL d   1      13.975  13.533  -1.896  0.00  0.00     0.222 A 
ATOM      5  C   UNL d   1      13.809  13.745  -2.677  0.00  0.00     0.064 A 
ATOM      6  C   UNL d   1      13.991  14.528  -2.928  0.00  0.00     0.105 A 
ATOM      7  C   UNL d   1      13.478  13.212  -3.191  0.00  0.00     0.007 A 
ATOM      8  C   UNL d   1      13.826  14.744  -3.710  0.00  0.00     0.050 A 
ATOM      9  C   UNL d   1      13.492  14.203  -4.225  0.00  0.00     0.105 A 
ATOM     10  C   UNL d   1      13.314  13.426  -3.969  0.00  0.00     0.023 A 
ATOM     11  O   UNL d   1      13.799  12.748  -1.621  0.00  0.00    -0.284 OA
ENDROOT
BRANCH   2  12
ATOM     12  O   UNL d   1      14.470  13.835  -0.584  0.00  0.00    -0.302 OA
BRANCH  12  13
ATOM     13  C   UNL d   1      14.889  13.148  -0.445  0.00  0.00     0.100 A 
ATOM     14  C   UNL d   1      14.518  12.468  -0.143  0.00  0.00     0.025 A 
ATOM     15  C   UNL d   1      14.952  11.803  -0.015  0.00  0.00     0.002 A 
ATOM     16  C   UNL d   1      15.763  11.780  -0.176  0.00  0.00     0.000 A 
ATOM     17  C   UNL d   1      16.115  12.441  -0.468  0.00  0.00     0.002 A 
ATOM     18  C   UNL d   1      15.700  13.124  -0.606  0.00  0.00     0.025 A 
ENDBRANCH  12  13
ENDBRANCH   2  12
BRANCH   1  19
ATOM     19  C   UNL d   1      14.825  15.409  -1.124  0.00  0.00     0.442 C 
ATOM     20  F   UNL d   1      15.173  15.979  -0.617  0.00  0.00    -0.164 F 
ATOM     21  F   UNL d   1      14.179  15.332  -0.596  0.00  0.00    -0.164 F 
ATOM     22  F   UNL d   1      15.474  15.485  -1.657  0.00  0.00    -0.164 F 
ENDBRANCH   1  19
BRANCH  10  23
ATOM     23  C   UNL d   1      12.978  12.866  -4.473  0.00  0.00     0.002 C 
ATOM     24  C   UNL d   1      13.051  12.189  -4.339  0.00  0.00     0.000 C 
ENDBRANCH  10  23
BRANCH   9  25
ATOM     25  O   UNL d   1      13.334  14.431  -4.999  0.00  0.00    -0.273 OA
BRANCH  25  26
ATOM     26  C   UNL d   1      13.711  15.082  -5.333  0.00  0.00     0.300 C 
ATOM     27  O   UNL d   1      13.493  15.855  -5.113  0.00  0.00    -0.259 OA
ATOM     28  C   UNL d   1      14.301  14.987  -5.881  0.00  0.00     0.074 C 
ENDBRANCH  25  26
ENDBRANCH   9  25
TORSDOF 6
ENDMDL
