MODEL 1
REMARK VINA RESULT:      16.3      0.000      0.000
REMARK  1 active torsions:
REMARK  status: ('A' for Active; 'I' for Inactive)
REMARK    1  A    between atoms: C_7  and  C_1 
ROOT
ATOM      1  C   UNL d   1      57.450  49.650  50.298  0.00  0.00     0.122 A 
ATOM      2  C   UNL d   1      57.765  49.662  49.523  0.00  0.00     0.285 A 
ATOM      3  C   UNL d   1      57.969  49.649  50.936  0.00  0.00     0.012 A 
ATOM      4  N   UNL d   1      58.579  49.673  49.395  0.00  0.00    -0.208 NA
ATOM      5  C   UNL d   1      59.093  49.671  50.048  0.00  0.00     0.085 A 
ATOM      6  C   UNL d   1      58.792  49.660  50.821  0.00  0.00     0.018 A 
ATOM      7  O   UNL d   1      57.249  49.664  48.877  0.00  0.00    -0.265 OA
ATOM      8  C   UNL d   1      59.908  49.682  49.926  0.00  0.00     0.019 A 
ATOM      9  C   UNL d   1      59.295  49.658  51.466  0.00  0.00     0.002 A 
ATOM     10  C   UNL d   1      60.113  49.669  51.340  0.00  0.00     0.000 A 
ATOM     11  C   UNL d   1      60.414  49.680  50.577  0.00  0.00     0.002 A 
ENDROOT
BRANCH   1  12
ATOM     12  C   UNL d   1      56.643  49.640  50.420  0.00  0.00     0.216 C 
ATOM     13  O   UNL d   1      56.343  49.672  51.201  0.00  0.00    -0.644 OA
ATOM     14  O   UNL d   1      56.124  49.598  49.782  0.00  0.00    -0.644 OA
ENDBRANCH   1  12
TORSDOF 1
ENDMDL
MODEL 2
REMARK VINA RESULT:      17.0      0.755      1.517
REMARK  1 active torsions:
REMARK  status: ('A' for Active; 'I' for Inactive)
REMARK    1  A    between atoms: C_7  and  C_1 
ROOT
ATOM      1  C   UNL d   1      57.944  49.661  50.233  0.00  0.00     0.122 A 
ATOM      2  C   UNL d   1      57.863  49.681  51.066  0.00  0.00     0.285 A 
ATOM      3  C   UNL d   1      58.699  49.656  49.909  0.00  0.00     0.012 A 
ATOM      4  N   UNL d   1      58.524  49.695  51.558  0.00  0.00    -0.208 NA
ATOM      5  C   UNL d   1      59.283  49.690  51.217  0.00  0.00     0.085 A 
ATOM      6  C   UNL d   1      59.375  49.670  50.393  0.00  0.00     0.018 A 
ATOM      7  O   UNL d   1      57.106  49.686  51.399  0.00  0.00    -0.265 OA
ATOM      8  C   UNL d   1      59.948  49.704  51.703  0.00  0.00     0.019 A 
ATOM      9  C   UNL d   1      60.120  49.665  50.056  0.00  0.00     0.002 A 
ATOM     10  C   UNL d   1      60.785  49.679  50.547  0.00  0.00     0.000 A 
ATOM     11  C   UNL d   1      60.698  49.699  51.362  0.00  0.00     0.002 A 
ENDROOT
BRANCH   1  12
ATOM     12  C   UNL d   1      57.285  49.647  49.752  0.00  0.00     0.216 C 
ATOM     13  O   UNL d   1      57.382  49.680  48.921  0.00  0.00    -0.644 OA
ATOM     14  O   UNL d   1      56.530  49.601  50.075  0.00  0.00    -0.644 OA
ENDBRANCH   1  12
TORSDOF 1
ENDMDL
