MODEL 1
REMARK VINA RESULT:      48.3      0.000      0.000
REMARK  7 active torsions:
REMARK  status: ('A' for Active; 'I' for Inactive)
REMARK    1  A    between atoms: C_2  and  S_1 
REMARK    2  A    between atoms: N_6  and  S_1 
REMARK    3  A    between atoms: C_14  and  C_4 
REMARK    4  A    between atoms: O_15  and  C_5 
REMARK    5  A    between atoms: C_12  and  N_6 
REMARK    6  A    between atoms: C_13  and  C_12 
REMARK    7  A    between atoms: C_20  and  O_15 
ROOT
ATOM      1  C   UNL d   1     -51.290  25.325  33.448  0.00  0.00     0.128 A 
ATOM      2  C   UNL d   1     -52.114  25.328  33.501  0.00  0.00     0.015 A 
ATOM      3  C   UNL d   1     -52.532  24.621  33.464  0.00  0.00     0.001 A 
ATOM      4  C   UNL d   1     -50.888  24.610  33.359  0.00  0.00     0.112 A 
ATOM      5  C   UNL d   1     -52.130  23.906  33.375  0.00  0.00     0.002 A 
ATOM      6  C   UNL d   1     -51.306  23.903  33.322  0.00  0.00     0.025 A 
ATOM      7  C   UNL d   1     -52.550  23.196  33.338  0.00  0.00     0.000 C 
ENDROOT
BRANCH   1   8
ATOM      8  S   UNL d   1     -50.870  26.035  33.485  0.00  0.00     0.287 S 
ATOM      9  O   UNL d   1     -50.167  25.627  33.333  0.00  0.00    -0.198 OA
ATOM     10  O   UNL d   1     -51.573  26.443  33.637  0.00  0.00    -0.198 OA
BRANCH   8  11
ATOM     11  N   UNL d   1     -50.449  26.746  33.522  0.00  0.00    -0.155 NA
BRANCH  11  12
ATOM     12  C   UNL d   1     -50.053  26.956  34.214  0.00  0.00     0.131 C 
BRANCH  12  13
ATOM     13  C   UNL d   1     -49.629  27.665  34.250  0.00  0.00     0.101 A 
ATOM     14  N   UNL d   1     -49.758  28.243  33.681  0.00  0.00    -0.242 NA
ATOM     15  C   UNL d   1     -49.340  28.951  33.711  0.00  0.00     0.099 A 
ATOM     16  C   UNL d   1     -48.787  29.077  34.322  0.00  0.00     0.021 A 
ATOM     17  C   UNL d   1     -48.663  28.492  34.890  0.00  0.00     0.003 A 
ATOM     18  C   UNL d   1     -49.082  27.789  34.855  0.00  0.00     0.021 A 
ENDBRANCH  12  13
ENDBRANCH  11  12
ENDBRANCH   8  11
ENDBRANCH   1   8
BRANCH   4  19
ATOM     19  O   UNL d   1     -50.061  24.604  33.306  0.00  0.00    -0.304 OA
BRANCH  19  20
ATOM     20  C   UNL d   1     -49.625  24.043  33.725  0.00  0.00     0.123 C 
ATOM     21  C   UNL d   1     -48.913  23.747  33.411  0.00  0.00     0.029 C 
ENDBRANCH  19  20
ENDBRANCH   4  19
BRANCH   3  22
ATOM     22  C   UNL d   1     -53.356  24.625  33.517  0.00  0.00     0.000 C 
ATOM     23  C   UNL d   1     -53.752  23.951  33.780  0.00  0.00     0.000 C 
ATOM     24  C   UNL d   1     -53.782  25.300  33.307  0.00  0.00     0.000 C 
ENDBRANCH   3  22
TORSDOF 7
ENDMDL
