MODEL 1
REMARK VINA RESULT:      -2.1      0.000      0.000
REMARK  5 active torsions:
REMARK  status: ('A' for Active; 'I' for Inactive)
REMARK    1  A    between atoms: N_6  and  C_1 
REMARK    2  A    between atoms: C_11  and  N_2 
REMARK    3  A    between atoms: S_3  and  C_10 
REMARK    4  A    between atoms: N_8  and  S_3 
REMARK       I    between atoms: C_9  and  N_6 
REMARK    5  A    between atoms: C_15  and  C_9 
ROOT
ATOM      1  N   UNL d   1      32.009  18.102 -23.229  0.00  0.00    -0.189 NA
ATOM      2  C   UNL d   1      32.649  18.560 -23.260  0.00  0.00     0.281 C 
ATOM      3  O   UNL d   1      33.241  18.291 -23.762  0.00  0.00    -0.265 OA
ENDROOT
BRANCH   2   4
ATOM      4  C   UNL d   1      32.742  19.266 -22.827  0.00  0.00     0.058 A 
ATOM      5  C   UNL d   1      32.705  19.272 -22.090  0.00  0.00     0.005 A 
ATOM      6  C   UNL d   1      32.791  19.931 -21.675  0.00  0.00     0.013 A 
ATOM      7  C   UNL d   1      32.928  20.642 -22.090  0.00  0.00     0.104 A 
ATOM      8  C   UNL d   1      32.956  20.566 -22.860  0.00  0.00     0.013 A 
ATOM      9  C   UNL d   1      32.867  19.897 -23.262  0.00  0.00     0.005 A 
BRANCH   7  10
ATOM     10  S   UNL d   1      33.022  21.352 -21.649  0.00  0.00     0.271 S 
ATOM     11  O   UNL d   1      32.946  20.974 -20.969  0.00  0.00    -0.200 OA
ATOM     12  O   UNL d   1      33.106  21.782 -22.383  0.00  0.00    -0.200 OA
BRANCH  10  13
ATOM     13  N   UNL d   1      33.105  22.004 -21.164  0.00  0.00    -0.229 N 
ATOM     14  C   UNL d   1      33.161  22.766 -21.433  0.00  0.00     0.092 A 
ATOM     15  C   UNL d   1      33.240  23.250 -20.736  0.00  0.00     0.021 A 
ATOM     16  C   UNL d   1      33.229  22.794 -20.106  0.00  0.00     0.021 A 
ATOM     17  C   UNL d   1      33.146  22.013 -20.340  0.00  0.00     0.092 A 
ENDBRANCH  10  13
ENDBRANCH   7  10
ENDBRANCH   2   4
BRANCH   1  18
ATOM     18  C   UNL d   1      31.830  17.399 -23.613  0.00  0.00     0.165 A 
ATOM     19  N   UNL d   1      31.262  17.128 -24.091  0.00  0.00    -0.238 N 
ATOM     20  N   UNL d   1      31.318  16.402 -24.328  0.00  0.00    -0.168 NA
ATOM     21  C   UNL d   1      32.003  16.116 -23.981  0.00  0.00     0.111 A 
ATOM     22  C   UNL d   1      32.333  16.715 -23.537  0.00  0.00     0.062 A 
ATOM     23  C   UNL d   1      32.517  15.453 -23.890  0.00  0.00     0.056 A 
ATOM     24  C   UNL d   1      33.046  16.438 -23.169  0.00  0.00     0.040 A 
ATOM     25  S   UNL d   1      33.153  15.639 -23.399  0.00  0.00    -0.084 SA
BRANCH  19  26
ATOM     26  C   UNL d   1      30.607  17.574 -24.358  0.00  0.00     0.088 C 
ATOM     27  C   UNL d   1      31.014  17.776 -25.073  0.00  0.00     0.025 C 
ATOM     28  C   UNL d   1      30.183  17.375 -23.631  0.00  0.00     0.025 C 
ATOM     29  C   UNL d   1      29.906  18.033 -24.607  0.00  0.00     0.025 C 
ENDBRANCH  19  26
ENDBRANCH   1  18
TORSDOF 5
ENDMDL
MODEL 2
REMARK VINA RESULT:       0.1      1.160      1.952
REMARK  5 active torsions:
REMARK  status: ('A' for Active; 'I' for Inactive)
REMARK    1  A    between atoms: N_6  and  C_1 
REMARK    2  A    between atoms: C_11  and  N_2 
REMARK    3  A    between atoms: S_3  and  C_10 
REMARK    4  A    between atoms: N_8  and  S_3 
REMARK       I    between atoms: C_9  and  N_6 
REMARK    5  A    between atoms: C_15  and  C_9 
ROOT
ATOM      1  N   UNL d   1      31.625  17.567 -23.612  0.00  0.00    -0.189 NA
ATOM      2  C   UNL d   1      32.048  18.180 -23.867  0.00  0.00     0.281 C 
ATOM      3  O   UNL d   1      32.285  18.132 -24.652  0.00  0.00    -0.265 OA
ENDROOT
BRANCH   2   4
ATOM      4  C   UNL d   1      32.253  18.838 -23.397  0.00  0.00     0.058 A 
ATOM      5  C   UNL d   1      32.927  18.905 -23.105  0.00  0.00     0.005 A 
ATOM      6  C   UNL d   1      33.128  19.520 -22.662  0.00  0.00     0.013 A 
ATOM      7  C   UNL d   1      32.554  20.109 -22.523  0.00  0.00     0.104 A 
ATOM      8  C   UNL d   1      31.868  19.977 -22.858  0.00  0.00     0.013 A 
ATOM      9  C   UNL d   1      31.682  19.355 -23.300  0.00  0.00     0.005 A 
BRANCH   7  10
ATOM     10  S   UNL d   1      32.765  20.771 -22.049  0.00  0.00     0.271 S 
ATOM     11  O   UNL d   1      32.484  20.433 -21.402  0.00  0.00    -0.200 OA
ATOM     12  O   UNL d   1      33.077  21.156 -22.746  0.00  0.00    -0.200 OA
BRANCH  10  13
ATOM     13  N   UNL d   1      32.944  21.379 -21.534  0.00  0.00    -0.229 N 
ATOM     14  C   UNL d   1      33.010  21.292 -20.732  0.00  0.00     0.092 A 
ATOM     15  C   UNL d   1      33.200  22.066 -20.431  0.00  0.00     0.021 A 
ATOM     16  C   UNL d   1      33.241  22.567 -21.026  0.00  0.00     0.021 A 
ATOM     17  C   UNL d   1      33.086  22.170 -21.724  0.00  0.00     0.092 A 
ENDBRANCH  10  13
ENDBRANCH   7  10
ENDBRANCH   2   4
BRANCH   1  18
ATOM     18  C   UNL d   1      31.378  16.885 -23.996  0.00  0.00     0.165 A 
ATOM     19  N   UNL d   1      31.660  16.159 -24.127  0.00  0.00    -0.238 N 
ATOM     20  N   UNL d   1      31.222  15.678 -24.531  0.00  0.00    -0.168 NA
ATOM     21  C   UNL d   1      30.547  16.106 -24.712  0.00  0.00     0.111 A 
ATOM     22  C   UNL d   1      30.623  16.852 -24.392  0.00  0.00     0.062 A 
ATOM     23  C   UNL d   1      29.796  16.098 -25.097  0.00  0.00     0.056 A 
ATOM     24  C   UNL d   1      29.932  17.311 -24.569  0.00  0.00     0.040 A 
ATOM     25  S   UNL d   1      29.415  16.825 -25.015  0.00  0.00    -0.084 SA
BRANCH  19  26
ATOM     26  C   UNL d   1      32.400  15.877 -23.858  0.00  0.00     0.088 C 
ATOM     27  C   UNL d   1      32.136  15.905 -23.053  0.00  0.00     0.025 C 
ATOM     28  C   UNL d   1      32.678  15.845 -24.676  0.00  0.00     0.025 C 
ATOM     29  C   UNL d   1      33.184  15.581 -23.609  0.00  0.00     0.025 C 
ENDBRANCH  19  26
ENDBRANCH   1  18
TORSDOF 5
ENDMDL
