MODEL 1
REMARK VINA RESULT:      46.0      0.000      0.000
REMARK  6 active torsions:
REMARK  status: ('A' for Active; 'I' for Inactive)
REMARK    1  A    between atoms: C_12  and  N_4 
REMARK    2  A    between atoms: C_10  and  N_6 
REMARK    3  A    between atoms: C_11  and  C_10 
REMARK    4  A    between atoms: O_15  and  C_11 
REMARK    5  A    between atoms: C_16  and  O_15 
REMARK    6  A    between atoms: C_17  and  C_16 
ROOT
ATOM      1  C   UNL d   1     -54.835-101.180 -42.254  0.00  0.00     0.172 A 
ATOM      2  C   UNL d   1     -54.794-101.370 -43.056  0.00  0.00     0.113 A 
ATOM      3  N   UNL d   1     -54.841-100.395 -42.016  0.00  0.00    -0.206 NA
ATOM      4  N   UNL d   1     -54.862-101.894 -41.831  0.00  0.00    -0.212 N 
ATOM      5  C   UNL d   1     -54.760-100.775 -43.619  0.00  0.00     0.271 A 
ATOM      6  N   UNL d   1     -54.766 -99.982 -43.384  0.00  0.00    -0.250 N 
ATOM      7  N   UNL d   1     -54.839-102.506 -42.373  0.00  0.00    -0.162 NA
ATOM      8  C   UNL d   1     -54.806 -99.792 -42.582  0.00  0.00     0.187 A 
ATOM      9  C   UNL d   1     -54.798-102.198 -43.114  0.00  0.00     0.129 A 
ATOM     10  O   UNL d   1     -54.720-100.965 -44.421  0.00  0.00    -0.266 OA
ENDROOT
BRANCH   6  11
ATOM     11  C   UNL d   1     -54.731 -99.370 -43.951  0.00  0.00     0.153 C 
BRANCH  11  12
ATOM     12  C   UNL d   1     -55.392 -99.207 -44.428  0.00  0.00     0.318 C 
ATOM     13  O   UNL d   1     -55.339 -99.294 -45.238  0.00  0.00    -0.257 OA
BRANCH  12  14
ATOM     14  O   UNL d   1     -56.092 -98.958 -44.070  0.00  0.00    -0.270 OA
BRANCH  14  15
ATOM     15  C   UNL d   1     -56.764 -98.832 -44.543  0.00  0.00     0.126 C 
BRANCH  15  16
ATOM     16  C   UNL d   1     -57.499 -98.807 -44.184  0.00  0.00     0.025 A 
ATOM     17  C   UNL d   1     -57.538 -98.805 -43.354  0.00  0.00     0.002 A 
ATOM     18  C   UNL d   1     -58.282 -98.780 -42.981  0.00  0.00     0.000 A 
ATOM     19  C   UNL d   1     -58.961 -98.758 -43.434  0.00  0.00     0.000 A 
ATOM     20  C   UNL d   1     -58.922 -98.759 -44.266  0.00  0.00     0.000 A 
ATOM     21  C   UNL d   1     -58.183 -98.784 -44.630  0.00  0.00     0.002 A 
ENDBRANCH  15  16
ENDBRANCH  14  15
ENDBRANCH  12  14
ENDBRANCH  11  12
ENDBRANCH   6  11
BRANCH   4  22
ATOM     22  C   UNL d   1     -54.905-102.008 -41.026  0.00  0.00     0.085 A 
ATOM     23  C   UNL d   1     -55.145-102.746 -40.722  0.00  0.00     0.019 A 
ATOM     24  C   UNL d   1     -55.186-102.854 -39.912  0.00  0.00     0.002 A 
ATOM     25  C   UNL d   1     -54.988-102.225 -39.388  0.00  0.00     0.000 A 
ATOM     26  C   UNL d   1     -54.756-101.511 -39.698  0.00  0.00     0.002 A 
ATOM     27  C   UNL d   1     -54.712-101.392 -40.510  0.00  0.00     0.019 A 
ENDBRANCH   4  22
TORSDOF 6
ENDMDL
