MODEL 1
REMARK VINA RESULT:       5.3      0.000      0.000
REMARK  0 active torsions:
REMARK  status: ('A' for Active; 'I' for Inactive)
ROOT
ATOM      1  N   UNL d   1      22.992  13.000  -1.664  0.00  0.00    -0.270 NA
ATOM      2  C   UNL d   1      24.175  12.206  -0.826  0.00  0.00    -0.001 A 
ATOM      3  C   UNL d   1      23.582  12.610  -0.420  0.00  0.00    -0.004 A 
ATOM      4  C   UNL d   1      23.581  12.598  -2.063  0.00  0.00     0.076 A 
ATOM      5  C   UNL d   1      22.990  13.008  -0.840  0.00  0.00     0.103 A 
ATOM      6  C   UNL d   1      24.173  12.201  -1.644  0.00  0.00     0.017 A 
ATOM      7  C   UNL d   1      24.767  11.808  -0.407  0.00  0.00    -0.000 C 
ATOM      8  C   UNL d   1      23.584  12.590  -2.888  0.00  0.00     0.019 A 
ATOM      9  C   UNL d   1      22.989  13.015  -0.014  0.00  0.00     0.029 C 
ATOM     10  C   UNL d   1      22.398  13.405  -1.259  0.00  0.00     0.029 C 
ATOM     11  C   UNL d   1      24.764  11.797  -2.046  0.00  0.00     0.002 A 
ATOM     12  C   UNL d   1      24.175  12.187  -3.290  0.00  0.00     0.002 A 
ATOM     13  C   UNL d   1      24.768  11.788  -2.875  0.00  0.00     0.000 A 
ENDROOT
TORSDOF 0
ENDMDL
MODEL 2
REMARK VINA RESULT:       7.4      0.496      2.229
REMARK  0 active torsions:
REMARK  status: ('A' for Active; 'I' for Inactive)
ROOT
ATOM      1  N   UNL d   1      23.319  12.627  -2.276  0.00  0.00    -0.270 NA
ATOM      2  C   UNL d   1      24.285  12.329  -0.968  0.00  0.00    -0.001 A 
ATOM      3  C   UNL d   1      24.521  12.085  -1.720  0.00  0.00    -0.004 A 
ATOM      4  C   UNL d   1      23.090  12.868  -1.530  0.00  0.00     0.076 A 
ATOM      5  C   UNL d   1      24.038  12.234  -2.374  0.00  0.00     0.103 A 
ATOM      6  C   UNL d   1      23.573  12.719  -0.876  0.00  0.00     0.017 A 
ATOM      7  C   UNL d   1      24.768  12.180  -0.314  0.00  0.00    -0.000 C 
ATOM      8  C   UNL d   1      22.370  13.261  -1.431  0.00  0.00     0.019 A 
ATOM      9  C   UNL d   1      24.757  11.841  -2.471  0.00  0.00     0.029 C 
ATOM     10  C   UNL d   1      23.555  12.383  -3.029  0.00  0.00     0.029 C 
ATOM     11  C   UNL d   1      23.339  12.961  -0.126  0.00  0.00     0.002 A 
ATOM     12  C   UNL d   1      22.138  13.504  -0.683  0.00  0.00     0.002 A 
ATOM     13  C   UNL d   1      22.618  13.357  -0.025  0.00  0.00     0.000 A 
ENDROOT
TORSDOF 0
ENDMDL
