MODEL 1
REMARK VINA RESULT:      -2.8      0.000      0.000
REMARK  3 active torsions:
REMARK  status: ('A' for Active; 'I' for Inactive)
REMARK    1  A    between atoms: C_3  and  N_1 
REMARK    2  A    between atoms: N_2  and  C_4 
REMARK    3  A    between atoms: C_7  and  C_8 
ROOT
ATOM      1  C   UNL d   1      32.291  17.471 -23.844  0.00  0.00     0.146 A 
ATOM      2  C   UNL d   1      31.584  17.037 -23.882  0.00  0.00     0.025 A 
ATOM      3  C   UNL d   1      31.043  17.171 -24.502  0.00  0.00     0.002 A 
ATOM      4  C   UNL d   1      32.461  18.043 -24.429  0.00  0.00     0.125 A 
ATOM      5  C   UNL d   1      31.211  17.739 -25.083  0.00  0.00     0.002 A 
ATOM      6  C   UNL d   1      31.920  18.177 -25.050  0.00  0.00     0.023 A 
ATOM      7  N   UNL d   1      33.153  18.467 -24.393  0.00  0.00    -0.146 N 
ENDROOT
BRANCH   3   8
ATOM      8  C   UNL d   1      30.343  16.743 -24.541  0.00  0.00     0.002 A 
ATOM      9  C   UNL d   1      29.702  16.952 -24.067  0.00  0.00     0.025 A 
ATOM     10  C   UNL d   1      29.003  16.519 -24.109  0.00  0.00     0.146 A 
ATOM     11  C   UNL d   1      28.941  15.879 -24.623  0.00  0.00     0.125 A 
ATOM     12  C   UNL d   1      29.582  15.670 -25.097  0.00  0.00     0.023 A 
ATOM     13  N   UNL d   1      28.246  15.453 -24.662  0.00  0.00    -0.146 N 
ATOM     14  C   UNL d   1      30.284  16.102 -25.057  0.00  0.00     0.002 A 
BRANCH  10  15
ATOM     15  N   UNL d   1      28.365  16.727 -23.638  0.00  0.00    -0.112 N 
ATOM     16  O   UNL d   1      27.984  17.459 -23.647  0.00  0.00    -0.532 OA
ATOM     17  O   UNL d   1      28.022  16.228 -23.092  0.00  0.00    -0.532 OA
ENDBRANCH  10  15
ENDBRANCH   3   8
BRANCH   1  18
ATOM     18  N   UNL d   1      32.819  17.340 -23.240  0.00  0.00    -0.112 N 
ATOM     19  O   UNL d   1      33.018  17.897 -22.662  0.00  0.00    -0.532 OA
ATOM     20  O   UNL d   1      33.213  16.642 -23.134  0.00  0.00    -0.532 OA
ENDBRANCH   1  18
TORSDOF 3
ENDMDL
MODEL 2
REMARK VINA RESULT:      -2.7      3.391      4.939
REMARK  3 active torsions:
REMARK  status: ('A' for Active; 'I' for Inactive)
REMARK    1  A    between atoms: C_3  and  N_1 
REMARK    2  A    between atoms: N_2  and  C_4 
REMARK    3  A    between atoms: C_7  and  C_8 
ROOT
ATOM      1  C   UNL d   1      32.756  21.508 -21.437  0.00  0.00     0.146 A 
ATOM      2  C   UNL d   1      32.762  21.038 -22.121  0.00  0.00     0.025 A 
ATOM      3  C   UNL d   1      33.005  20.241 -22.079  0.00  0.00     0.002 A 
ATOM      4  C   UNL d   1      32.993  21.182 -20.705  0.00  0.00     0.125 A 
ATOM      5  C   UNL d   1      33.241  19.917 -21.354  0.00  0.00     0.002 A 
ATOM      6  C   UNL d   1      33.236  20.385 -20.663  0.00  0.00     0.023 A 
ATOM      7  N   UNL d   1      32.988  21.641 -20.035  0.00  0.00    -0.146 N 
ENDROOT
BRANCH   3   8
ATOM      8  C   UNL d   1      33.012  19.775 -22.756  0.00  0.00     0.002 A 
ATOM      9  C   UNL d   1      32.800  18.979 -22.714  0.00  0.00     0.025 A 
ATOM     10  C   UNL d   1      32.809  18.516 -23.395  0.00  0.00     0.146 A 
ATOM     11  C   UNL d   1      33.028  18.845 -24.117  0.00  0.00     0.125 A 
ATOM     12  C   UNL d   1      33.240  19.640 -24.159  0.00  0.00     0.023 A 
ATOM     13  N   UNL d   1      33.035  18.382 -24.790  0.00  0.00    -0.146 N 
ATOM     14  C   UNL d   1      33.233  20.107 -23.479  0.00  0.00     0.002 A 
BRANCH  10  15
ATOM     15  N   UNL d   1      32.598  17.725 -23.353  0.00  0.00    -0.112 N 
ATOM     16  O   UNL d   1      33.126  17.093 -23.320  0.00  0.00    -0.532 OA
ATOM     17  O   UNL d   1      31.827  17.461 -23.339  0.00  0.00    -0.532 OA
ENDBRANCH  10  15
ENDBRANCH   3   8
BRANCH   1  18
ATOM     18  N   UNL d   1      32.519  22.285 -21.477  0.00  0.00    -0.112 N 
ATOM     19  O   UNL d   1      31.767  22.557 -21.267  0.00  0.00    -0.532 OA
ATOM     20  O   UNL d   1      32.998  22.885 -21.731  0.00  0.00    -0.532 OA
ENDBRANCH   1  18
TORSDOF 3
ENDMDL
MODEL 3
REMARK VINA RESULT:      -2.5      3.475      4.951
REMARK  3 active torsions:
REMARK  status: ('A' for Active; 'I' for Inactive)
REMARK    1  A    between atoms: C_3  and  N_1 
REMARK    2  A    between atoms: N_2  and  C_4 
REMARK    3  A    between atoms: C_7  and  C_8 
ROOT
ATOM      1  C   UNL d   1      32.782  21.570 -21.311  0.00  0.00     0.146 A 
ATOM      2  C   UNL d   1      32.794  20.772 -21.540  0.00  0.00     0.025 A 
ATOM      3  C   UNL d   1      33.023  20.561 -22.313  0.00  0.00     0.002 A 
ATOM      4  C   UNL d   1      33.002  22.163 -21.857  0.00  0.00     0.125 A 
ATOM      5  C   UNL d   1      33.241  21.149 -22.855  0.00  0.00     0.002 A 
ATOM      6  C   UNL d   1      33.231  21.952 -22.630  0.00  0.00     0.023 A 
ATOM      7  N   UNL d   1      32.991  22.944 -21.634  0.00  0.00    -0.146 N 
ENDROOT
BRANCH   3   8
ATOM      8  C   UNL d   1      33.035  19.772 -22.541  0.00  0.00     0.002 A 
ATOM      9  C   UNL d   1      32.855  19.561 -23.317  0.00  0.00     0.025 A 
ATOM     10  C   UNL d   1      32.868  18.769 -23.541  0.00  0.00     0.146 A 
ATOM     11  C   UNL d   1      33.060  18.186 -22.992  0.00  0.00     0.125 A 
ATOM     12  C   UNL d   1      33.241  18.397 -22.216  0.00  0.00     0.023 A 
ATOM     13  N   UNL d   1      33.072  17.401 -23.217  0.00  0.00    -0.146 N 
ATOM     14  C   UNL d   1      33.229  19.190 -21.989  0.00  0.00     0.002 A 
BRANCH  10  15
ATOM     15  N   UNL d   1      32.688  18.559 -24.313  0.00  0.00    -0.112 N 
ATOM     16  O   UNL d   1      33.227  18.532 -24.936  0.00  0.00    -0.532 OA
ATOM     17  O   UNL d   1      31.942  18.347 -24.564  0.00  0.00    -0.532 OA
ENDBRANCH  10  15
ENDBRANCH   3   8
BRANCH   1  18
ATOM     18  N   UNL d   1      32.558  21.775 -20.557  0.00  0.00    -0.112 N 
ATOM     19  O   UNL d   1      33.078  21.852 -19.918  0.00  0.00    -0.532 OA
ATOM     20  O   UNL d   1      31.793  21.929 -20.344  0.00  0.00    -0.532 OA
ENDBRANCH   1  18
TORSDOF 3
ENDMDL
MODEL 4
REMARK VINA RESULT:      -1.6      3.123      4.991
REMARK  3 active torsions:
REMARK  status: ('A' for Active; 'I' for Inactive)
REMARK    1  A    between atoms: C_3  and  N_1 
REMARK    2  A    between atoms: N_2  and  C_4 
REMARK    3  A    between atoms: C_7  and  C_8 
ROOT
ATOM      1  C   UNL d   1      32.835  18.496 -23.764  0.00  0.00     0.146 A 
ATOM      2  C   UNL d   1      32.822  19.148 -23.249  0.00  0.00     0.025 A 
ATOM      3  C   UNL d   1      33.013  19.909 -23.532  0.00  0.00     0.002 A 
ATOM      4  C   UNL d   1      33.040  18.603 -24.567  0.00  0.00     0.125 A 
ATOM      5  C   UNL d   1      33.216  20.015 -24.329  0.00  0.00     0.002 A 
ATOM      6  C   UNL d   1      33.231  19.364 -24.850  0.00  0.00     0.023 A 
ATOM      7  N   UNL d   1      33.053  17.966 -25.071  0.00  0.00    -0.146 N 
ENDROOT
BRANCH   3   8
ATOM      8  C   UNL d   1      33.000  20.555 -23.024  0.00  0.00     0.002 A 
ATOM      9  C   UNL d   1      32.748  20.465 -22.245  0.00  0.00     0.025 A 
ATOM     10  C   UNL d   1      32.737  21.115 -21.740  0.00  0.00     0.146 A 
ATOM     11  C   UNL d   1      32.977  21.855 -22.011  0.00  0.00     0.125 A 
ATOM     12  C   UNL d   1      33.229  21.945 -22.790  0.00  0.00     0.023 A 
ATOM     13  N   UNL d   1      32.965  22.498 -21.507  0.00  0.00    -0.146 N 
ATOM     14  C   UNL d   1      33.241  21.295 -23.299  0.00  0.00     0.002 A 
BRANCH  10  15
ATOM     15  N   UNL d   1      32.486  21.026 -20.965  0.00  0.00    -0.112 N 
ATOM     16  O   UNL d   1      32.967  20.810 -20.331  0.00  0.00    -0.532 OA
ATOM     17  O   UNL d   1      31.717  21.142 -20.720  0.00  0.00    -0.532 OA
ENDBRANCH  10  15
ENDBRANCH   3   8
BRANCH   1  18
ATOM     18  N   UNL d   1      32.649  17.755 -23.488  0.00  0.00    -0.112 N 
ATOM     19  O   UNL d   1      33.203  17.164 -23.321  0.00  0.00    -0.532 OA
ATOM     20  O   UNL d   1      31.892  17.508 -23.343  0.00  0.00    -0.532 OA
ENDBRANCH   1  18
TORSDOF 3
ENDMDL
MODEL 5
REMARK VINA RESULT:      -0.7      3.841      5.416
REMARK  3 active torsions:
REMARK  status: ('A' for Active; 'I' for Inactive)
REMARK    1  A    between atoms: C_3  and  N_1 
REMARK    2  A    between atoms: N_2  and  C_4 
REMARK    3  A    between atoms: C_7  and  C_8 
ROOT
ATOM      1  C   UNL d   1      32.542  22.140 -21.357  0.00  0.00     0.146 A 
ATOM      2  C   UNL d   1      32.617  21.449 -21.811  0.00  0.00     0.025 A 
ATOM      3  C   UNL d   1      32.938  21.486 -22.580  0.00  0.00     0.002 A 
ATOM      4  C   UNL d   1      32.789  22.874 -21.671  0.00  0.00     0.125 A 
ATOM      5  C   UNL d   1      33.183  22.213 -22.892  0.00  0.00     0.002 A 
ATOM      6  C   UNL d   1      33.110  22.911 -22.440  0.00  0.00     0.023 A 
ATOM      7  N   UNL d   1      32.716  23.551 -21.228  0.00  0.00    -0.146 N 
ENDROOT
BRANCH   3   8
ATOM      8  C   UNL d   1      33.012  20.802 -23.030  0.00  0.00     0.002 A 
ATOM      9  C   UNL d   1      32.935  20.062 -22.677  0.00  0.00     0.025 A 
ATOM     10  C   UNL d   1      33.011  19.380 -23.133  0.00  0.00     0.146 A 
ATOM     11  C   UNL d   1      33.163  19.436 -23.940  0.00  0.00     0.125 A 
ATOM     12  C   UNL d   1      33.241  20.176 -24.293  0.00  0.00     0.023 A 
ATOM     13  N   UNL d   1      33.238  18.758 -24.388  0.00  0.00    -0.146 N 
ATOM     14  C   UNL d   1      33.166  20.861 -23.839  0.00  0.00     0.002 A 
BRANCH  10  15
ATOM     15  N   UNL d   1      32.934  18.644 -22.781  0.00  0.00    -0.112 N 
ATOM     16  O   UNL d   1      32.543  17.997 -23.112  0.00  0.00    -0.532 OA
ATOM     17  O   UNL d   1      33.239  18.456 -22.049  0.00  0.00    -0.532 OA
ENDBRANCH  10  15
ENDBRANCH   3   8
BRANCH   1  18
ATOM     18  N   UNL d   1      32.229  22.105 -20.607  0.00  0.00    -0.112 N 
ATOM     19  O   UNL d   1      31.431  22.227 -20.426  0.00  0.00    -0.532 OA
ATOM     20  O   UNL d   1      32.667  21.944 -19.947  0.00  0.00    -0.532 OA
ENDBRANCH   1  18
TORSDOF 3
ENDMDL
