MODEL 1
REMARK VINA RESULT:      50.1      0.000      0.000
REMARK  4 active torsions:
REMARK  status: ('A' for Active; 'I' for Inactive)
REMARK    1  A    between atoms: S_3  and  C_1 
REMARK    2  A    between atoms: C_7  and  S_3 
REMARK    3  A    between atoms: S_11  and  C_4 
REMARK    4  A    between atoms: C_10  and  C_5 
ROOT
ATOM      1  C   UNL d   1     -50.635  25.556  33.555  0.00  0.00     0.199 A 
ATOM      2  N   UNL d   1     -50.639  26.366  33.706  0.00  0.00    -0.208 NA
ATOM      3  C   UNL d   1     -49.849  25.320  33.465  0.00  0.00     0.156 A 
ATOM      4  C   UNL d   1     -49.856  26.632  33.710  0.00  0.00     0.184 A 
ATOM      5  O   UNL d   1     -49.374  25.981  33.560  0.00  0.00    -0.281 OA
ENDROOT
BRANCH   1   6
ATOM      6  S   UNL d   1     -51.301  25.076  33.504  0.00  0.00     0.229 S 
ATOM      7  O   UNL d   1     -50.787  24.443  33.422  0.00  0.00    -0.215 OA
ATOM      8  O   UNL d   1     -51.821  25.706  33.587  0.00  0.00    -0.215 OA
BRANCH   6   9
ATOM      9  C   UNL d   1     -51.975  24.603  33.455  0.00  0.00     0.089 A 
ATOM     10  C   UNL d   1     -52.721  24.954  33.461  0.00  0.00     0.011 A 
ATOM     11  C   UNL d   1     -53.392  24.481  33.411  0.00  0.00     0.001 A 
ATOM     12  C   UNL d   1     -53.327  23.663  33.356  0.00  0.00     0.000 A 
ATOM     13  C   UNL d   1     -52.577  23.312  33.351  0.00  0.00     0.001 A 
ATOM     14  C   UNL d   1     -54.002  23.190  33.307  0.00  0.00     0.000 C 
ATOM     15  C   UNL d   1     -51.911  23.780  33.400  0.00  0.00     0.011 A 
ENDBRANCH   6   9
ENDBRANCH   1   6
BRANCH   3  16
ATOM     16  S   UNL d   1     -49.591  24.555  33.307  0.00  0.00    -0.086 SA
ATOM     17  C   UNL d   1     -48.801  24.357  33.428  0.00  0.00     0.076 C 
ENDBRANCH   3  16
BRANCH   4  18
ATOM     18  C   UNL d   1     -49.606  27.409  33.840  0.00  0.00     0.041 A 
ATOM     19  C   UNL d   1     -49.037  27.571  34.423  0.00  0.00     0.004 A 
ATOM     20  C   UNL d   1     -48.791  28.347  34.550  0.00  0.00     0.000 A 
ATOM     21  C   UNL d   1     -49.105  28.955  34.104  0.00  0.00     0.000 A 
ATOM     22  C   UNL d   1     -49.672  28.801  33.521  0.00  0.00     0.000 A 
ATOM     23  C   UNL d   1     -49.921  28.036  33.390  0.00  0.00     0.004 A 
ENDBRANCH   4  18
TORSDOF 4
ENDMDL
