MODEL 1
REMARK VINA RESULT:      -2.9      0.000      0.000
REMARK  2 active torsions:
REMARK  status: ('A' for Active; 'I' for Inactive)
REMARK    1  A    between atoms: C_2  and  N_1 
REMARK    2  A    between atoms: C_5  and  C_7 
ROOT
ATOM      1  C   UNL d   1      30.590  16.335 -24.061  0.00  0.00     0.070 A 
ATOM      2  C   UNL d   1      31.011  17.000 -23.805  0.00  0.00     0.024 A 
ATOM      3  C   UNL d   1      31.800  17.087 -24.000  0.00  0.00     0.066 A 
ATOM      4  C   UNL d   1      30.958  15.755 -24.513  0.00  0.00     0.018 A 
ATOM      5  C   UNL d   1      32.175  16.504 -24.456  0.00  0.00     0.006 A 
ATOM      6  C   UNL d   1      31.754  15.838 -24.713  0.00  0.00     0.002 A 
ENDROOT
BRANCH   1   7
ATOM      7  N   UNL d   1      29.794  16.244 -23.866  0.00  0.00    -0.242 N 
ATOM      8  C   UNL d   1      29.137  16.529 -24.283  0.00  0.00     0.267 A 
ATOM      9  C   UNL d   1      28.456  16.308 -23.885  0.00  0.00     0.066 A 
ATOM     10  O   UNL d   1      29.121  16.971 -24.993  0.00  0.00    -0.267 OA
ATOM     11  C   UNL d   1      28.677  15.880 -23.211  0.00  0.00     0.066 A 
ATOM     12  C   UNL d   1      29.501  15.842 -23.201  0.00  0.00     0.267 A 
ATOM     13  O   UNL d   1      29.926  15.454 -22.603  0.00  0.00    -0.267 OA
ENDBRANCH   1   7
BRANCH   3  14
ATOM     14  C   UNL d   1      32.228  17.741 -23.752  0.00  0.00     0.211 C 
ATOM     15  O   UNL d   1      32.610  17.743 -23.027  0.00  0.00    -0.644 OA
ATOM     16  O   UNL d   1      32.271  18.406 -24.247  0.00  0.00    -0.644 OA
ENDBRANCH   3  14
TORSDOF 2
ENDMDL
MODEL 2
REMARK VINA RESULT:      -2.7      0.909      1.683
REMARK  2 active torsions:
REMARK  status: ('A' for Active; 'I' for Inactive)
REMARK    1  A    between atoms: C_2  and  N_1 
REMARK    2  A    between atoms: C_5  and  C_7 
ROOT
ATOM      1  C   UNL d   1      31.573  16.987 -24.075  0.00  0.00     0.070 A 
ATOM      2  C   UNL d   1      31.849  17.554 -23.539  0.00  0.00     0.024 A 
ATOM      3  C   UNL d   1      32.595  17.877 -23.631  0.00  0.00     0.066 A 
ATOM      4  C   UNL d   1      32.042  16.742 -24.704  0.00  0.00     0.018 A 
ATOM      5  C   UNL d   1      33.071  17.633 -24.265  0.00  0.00     0.006 A 
ATOM      6  C   UNL d   1      32.795  17.065 -24.802  0.00  0.00     0.002 A 
ENDROOT
BRANCH   1   7
ATOM      7  N   UNL d   1      30.822  16.659 -23.985  0.00  0.00    -0.242 N 
ATOM      8  C   UNL d   1      30.615  15.984 -23.552  0.00  0.00     0.267 A 
ATOM      9  C   UNL d   1      29.807  15.865 -23.619  0.00  0.00     0.066 A 
ATOM     10  O   UNL d   1      31.110  15.478 -23.107  0.00  0.00    -0.267 OA
ATOM     11  C   UNL d   1      29.495  16.466 -24.096  0.00  0.00     0.066 A 
ATOM     12  C   UNL d   1      30.121  16.954 -24.321  0.00  0.00     0.267 A 
ATOM     13  O   UNL d   1      30.021  17.621 -24.805  0.00  0.00    -0.267 OA
ENDBRANCH   1   7
BRANCH   3  14
ATOM     14  C   UNL d   1      32.880  18.440 -23.106  0.00  0.00     0.211 C 
ATOM     15  O   UNL d   1      33.239  18.216 -22.405  0.00  0.00    -0.644 OA
ATOM     16  O   UNL d   1      32.801  19.244 -23.295  0.00  0.00    -0.644 OA
ENDBRANCH   3  14
TORSDOF 2
ENDMDL
MODEL 3
REMARK VINA RESULT:      -2.7      1.074      3.166
REMARK  2 active torsions:
REMARK  status: ('A' for Active; 'I' for Inactive)
REMARK    1  A    between atoms: C_2  and  N_1 
REMARK    2  A    between atoms: C_5  and  C_7 
ROOT
ATOM      1  C   UNL d   1      30.719  16.387 -24.245  0.00  0.00     0.070 A 
ATOM      2  C   UNL d   1      30.062  16.407 -23.741  0.00  0.00     0.024 A 
ATOM      3  C   UNL d   1      29.400  15.959 -23.913  0.00  0.00     0.066 A 
ATOM      4  C   UNL d   1      30.715  15.918 -24.920  0.00  0.00     0.018 A 
ATOM      5  C   UNL d   1      29.392  15.483 -24.593  0.00  0.00     0.006 A 
ATOM      6  C   UNL d   1      30.049  15.463 -25.097  0.00  0.00     0.002 A 
ENDROOT
BRANCH   1   7
ATOM      7  N   UNL d   1      31.388  16.838 -24.076  0.00  0.00    -0.242 N 
ATOM      8  C   UNL d   1      32.042  16.617 -23.618  0.00  0.00     0.267 A 
ATOM      9  C   UNL d   1      32.574  17.241 -23.600  0.00  0.00     0.066 A 
ATOM     10  O   UNL d   1      32.182  15.894 -23.222  0.00  0.00    -0.267 OA
ATOM     11  C   UNL d   1      32.259  17.862 -24.048  0.00  0.00     0.066 A 
ATOM     12  C   UNL d   1      31.529  17.613 -24.340  0.00  0.00     0.267 A 
ATOM     13  O   UNL d   1      31.048  18.092 -24.817  0.00  0.00    -0.267 OA
ENDBRANCH   1   7
BRANCH   3  14
ATOM     14  C   UNL d   1      28.742  15.970 -23.422  0.00  0.00     0.211 C 
ATOM     15  O   UNL d   1      28.682  15.453 -22.789  0.00  0.00    -0.644 OA
ATOM     16  O   UNL d   1      28.135  16.514 -23.574  0.00  0.00    -0.644 OA
ENDBRANCH   3  14
TORSDOF 2
ENDMDL
MODEL 4
REMARK VINA RESULT:      -2.6      1.078      2.993
REMARK  2 active torsions:
REMARK  status: ('A' for Active; 'I' for Inactive)
REMARK    1  A    between atoms: C_2  and  N_1 
REMARK    2  A    between atoms: C_5  and  C_7 
ROOT
ATOM      1  C   UNL d   1      30.675  16.411 -24.255  0.00  0.00     0.070 A 
ATOM      2  C   UNL d   1      30.007  16.444 -23.767  0.00  0.00     0.024 A 
ATOM      3  C   UNL d   1      29.352  15.984 -23.936  0.00  0.00     0.066 A 
ATOM      4  C   UNL d   1      30.689  15.919 -24.913  0.00  0.00     0.018 A 
ATOM      5  C   UNL d   1      29.363  15.485 -24.599  0.00  0.00     0.006 A 
ATOM      6  C   UNL d   1      30.031  15.453 -25.088  0.00  0.00     0.002 A 
ENDROOT
BRANCH   1   7
ATOM      7  N   UNL d   1      31.336  16.874 -24.088  0.00  0.00    -0.242 N 
ATOM      8  C   UNL d   1      31.487  17.648 -24.341  0.00  0.00     0.267 A 
ATOM      9  C   UNL d   1      32.212  17.887 -24.041  0.00  0.00     0.066 A 
ATOM     10  O   UNL d   1      31.013  18.142 -24.821  0.00  0.00    -0.267 OA
ATOM     11  C   UNL d   1      32.525  17.264 -23.594  0.00  0.00     0.066 A 
ATOM     12  C   UNL d   1      31.985  16.641 -23.624  0.00  0.00     0.267 A 
ATOM     13  O   UNL d   1      32.112  15.917 -23.238  0.00  0.00    -0.267 OA
ENDBRANCH   1   7
BRANCH   3  14
ATOM     14  C   UNL d   1      28.684  16.006 -23.460  0.00  0.00     0.211 C 
ATOM     15  O   UNL d   1      28.099  16.566 -23.585  0.00  0.00    -0.644 OA
ATOM     16  O   UNL d   1      28.607  15.453 -22.847  0.00  0.00    -0.644 OA
ENDBRANCH   3  14
TORSDOF 2
ENDMDL
MODEL 5
REMARK VINA RESULT:      -2.1      1.739      3.806
REMARK  2 active torsions:
REMARK  status: ('A' for Active; 'I' for Inactive)
REMARK    1  A    between atoms: C_2  and  N_1 
REMARK    2  A    between atoms: C_5  and  C_7 
ROOT
ATOM      1  C   UNL d   1      32.607  18.004 -23.586  0.00  0.00     0.070 A 
ATOM      2  C   UNL d   1      31.834  17.795 -23.798  0.00  0.00     0.024 A 
ATOM      3  C   UNL d   1      31.609  17.009 -23.802  0.00  0.00     0.066 A 
ATOM      4  C   UNL d   1      33.155  17.428 -23.379  0.00  0.00     0.018 A 
ATOM      5  C   UNL d   1      32.160  16.424 -23.594  0.00  0.00     0.006 A 
ATOM      6  C   UNL d   1      32.933  16.634 -23.382  0.00  0.00     0.002 A 
ENDROOT
BRANCH   1   7
ATOM      7  N   UNL d   1      32.837  18.796 -23.581  0.00  0.00    -0.242 N 
ATOM      8  C   UNL d   1      32.905  19.297 -22.924  0.00  0.00     0.267 A 
ATOM      9  C   UNL d   1      33.151  20.035 -23.180  0.00  0.00     0.066 A 
ATOM     10  O   UNL d   1      32.758  19.124 -22.119  0.00  0.00    -0.267 OA
ATOM     11  C   UNL d   1      33.241  20.008 -24.003  0.00  0.00     0.066 A 
ATOM     12  C   UNL d   1      33.048  19.244 -24.248  0.00  0.00     0.267 A 
ATOM     13  O   UNL d   1      33.073  19.007 -25.043  0.00  0.00    -0.267 OA
ENDBRANCH   1   7
BRANCH   3  14
ATOM     14  C   UNL d   1      30.847  16.788 -24.010  0.00  0.00     0.211 C 
ATOM     15  O   UNL d   1      30.288  16.619 -23.435  0.00  0.00    -0.644 OA
ATOM     16  O   UNL d   1      30.646  16.736 -24.814  0.00  0.00    -0.644 OA
ENDBRANCH   3  14
TORSDOF 2
ENDMDL
