MODEL 1
REMARK VINA RESULT:      -7.9      0.000      0.000
REMARK  4 active torsions:
REMARK  status: ('A' for Active; 'I' for Inactive)
REMARK    1  A    between atoms: C_6  and  C_1 
REMARK    2  A    between atoms: C_4  and  C_8 
REMARK    3  A    between atoms: O_18  and  C_6 
REMARK    4  A    between atoms: C_19  and  O_18 
ROOT
ATOM      1  C   UNL d   1     -47.053  12.766  23.114  0.00  0.00     0.121 A 
ATOM      2  C   UNL d   1     -48.468  12.593  23.102  0.00  0.00     0.057 A 
ATOM      3  C   UNL d   1     -47.800  13.039  22.913  0.00  0.00     0.204 A 
ATOM      4  C   UNL d   1     -49.215  12.873  22.898  0.00  0.00     0.009 A 
ATOM      5  N   UNL d   1     -47.636  11.592  23.698  0.00  0.00    -0.244 NA
ATOM      6  C   UNL d   1     -49.883  12.431  23.084  0.00  0.00     0.072 A 
ATOM      7  C   UNL d   1     -46.967  12.038  23.509  0.00  0.00     0.107 A 
ATOM      8  C   UNL d   1     -48.390  11.870  23.493  0.00  0.00     0.085 A 
ATOM      9  C   UNL d   1     -49.806  11.708  23.476  0.00  0.00     0.005 A 
ATOM     10  C   UNL d   1     -49.059  11.429  23.680  0.00  0.00     0.019 A 
ATOM     11  O   UNL d   1     -47.881  13.760  22.522  0.00  0.00    -0.286 OA
ENDROOT
BRANCH   1  12
ATOM     12  C   UNL d   1     -46.385  13.208  22.928  0.00  0.00     0.305 C 
ATOM     13  O   UNL d   1     -46.215  13.898  23.347  0.00  0.00    -0.259 OA
BRANCH  12  14
ATOM     14  O   UNL d   1     -45.878  12.965  22.319  0.00  0.00    -0.271 OA
BRANCH  14  15
ATOM     15  C   UNL d   1     -45.164  13.360  22.198  0.00  0.00     0.126 C 
ATOM     16  C   UNL d   1     -44.590  13.025  21.707  0.00  0.00     0.029 C 
ENDBRANCH  14  15
ENDBRANCH  12  14
ENDBRANCH   1  12
BRANCH   6  17
ATOM     17  C   UNL d   1     -50.631  12.711  22.880  0.00  0.00     0.419 C 
ATOM     18  F   UNL d   1     -50.964  13.341  23.295  0.00  0.00    -0.166 F 
ATOM     19  F   UNL d   1     -51.047  12.360  22.257  0.00  0.00    -0.166 F 
ATOM     20  F   UNL d   1     -50.301  12.081  22.462  0.00  0.00    -0.166 F 
ENDBRANCH   6  17
TORSDOF 4
ENDMDL
MODEL 2
REMARK VINA RESULT:      -7.8      2.583      4.191
REMARK  4 active torsions:
REMARK  status: ('A' for Active; 'I' for Inactive)
REMARK    1  A    between atoms: C_6  and  C_1 
REMARK    2  A    between atoms: C_4  and  C_8 
REMARK    3  A    between atoms: O_18  and  C_6 
REMARK    4  A    between atoms: C_19  and  O_18 
ROOT
ATOM      1  C   UNL d   1     -48.779  13.414  22.575  0.00  0.00     0.121 A 
ATOM      2  C   UNL d   1     -47.355  13.389  22.527  0.00  0.00     0.057 A 
ATOM      3  C   UNL d   1     -48.081  13.012  22.422  0.00  0.00     0.204 A 
ATOM      4  C   UNL d   1     -46.658  12.979  22.372  0.00  0.00     0.009 A 
ATOM      5  N   UNL d   1     -48.030  14.581  22.943  0.00  0.00    -0.244 NA
ATOM      6  C   UNL d   1     -45.931  13.352  22.476  0.00  0.00     0.072 A 
ATOM      7  C   UNL d   1     -48.757  14.204  22.838  0.00  0.00     0.107 A 
ATOM      8  C   UNL d   1     -47.325  14.172  22.787  0.00  0.00     0.085 A 
ATOM      9  C   UNL d   1     -45.902  14.135  22.736  0.00  0.00     0.005 A 
ATOM     10  C   UNL d   1     -46.598  14.544  22.892  0.00  0.00     0.019 A 
ATOM     11  O   UNL d   1     -48.107  12.230  22.162  0.00  0.00    -0.286 OA
ENDROOT
BRANCH   1  12
ATOM     12  C   UNL d   1     -49.505  13.042  22.470  0.00  0.00     0.305 C 
ATOM     13  O   UNL d   1     -49.847  13.005  21.720  0.00  0.00    -0.259 OA
BRANCH  12  14
ATOM     14  O   UNL d   1     -49.899  12.702  23.115  0.00  0.00    -0.271 OA
BRANCH  14  15
ATOM     15  C   UNL d   1     -50.681  12.451  23.032  0.00  0.00     0.126 C 
ATOM     16  C   UNL d   1     -51.064  12.095  23.672  0.00  0.00     0.029 C 
ENDBRANCH  14  15
ENDBRANCH  12  14
ENDBRANCH   1  12
BRANCH   6  17
ATOM     17  C   UNL d   1     -45.234  12.942  22.320  0.00  0.00     0.419 C 
ATOM     18  F   UNL d   1     -45.062  12.248  22.732  0.00  0.00    -0.166 F 
ATOM     19  F   UNL d   1     -44.707  13.226  21.751  0.00  0.00    -0.166 F 
ATOM     20  F   UNL d   1     -45.403  13.636  21.907  0.00  0.00    -0.166 F 
ENDBRANCH   6  17
TORSDOF 4
ENDMDL
MODEL 3
REMARK VINA RESULT:      -7.2      1.835      2.549
REMARK  4 active torsions:
REMARK  status: ('A' for Active; 'I' for Inactive)
REMARK    1  A    between atoms: C_6  and  C_1 
REMARK    2  A    between atoms: C_4  and  C_8 
REMARK    3  A    between atoms: O_18  and  C_6 
REMARK    4  A    between atoms: C_19  and  O_18 
ROOT
ATOM      1  C   UNL d   1     -46.950  12.556  23.286  0.00  0.00     0.121 A 
ATOM      2  C   UNL d   1     -47.864  13.622  23.042  0.00  0.00     0.057 A 
ATOM      3  C   UNL d   1     -47.717  12.846  23.280  0.00  0.00     0.204 A 
ATOM      4  C   UNL d   1     -48.638  13.906  23.038  0.00  0.00     0.009 A 
ATOM      5  N   UNL d   1     -46.466  13.822  22.813  0.00  0.00    -0.244 NA
ATOM      6  C   UNL d   1     -48.788  14.680  22.801  0.00  0.00     0.072 A 
ATOM      7  C   UNL d   1     -46.318  13.045  23.052  0.00  0.00     0.107 A 
ATOM      8  C   UNL d   1     -47.243  14.112  22.808  0.00  0.00     0.085 A 
ATOM      9  C   UNL d   1     -48.167  15.170  22.568  0.00  0.00     0.005 A 
ATOM     10  C   UNL d   1     -47.395  14.886  22.572  0.00  0.00     0.019 A 
ATOM     11  O   UNL d   1     -48.341  12.359  23.512  0.00  0.00    -0.286 OA
ENDROOT
BRANCH   1  12
ATOM     12  C   UNL d   1     -46.799  11.783  23.523  0.00  0.00     0.305 C 
ATOM     13  O   UNL d   1     -47.425  11.270  23.684  0.00  0.00    -0.259 OA
BRANCH  12  14
ATOM     14  O   UNL d   1     -46.020  11.513  23.601  0.00  0.00    -0.271 OA
BRANCH  14  15
ATOM     15  C   UNL d   1     -45.874  10.707  23.697  0.00  0.00     0.126 C 
ATOM     16  C   UNL d   1     -45.095  10.431  23.697  0.00  0.00     0.029 C 
ENDBRANCH  14  15
ENDBRANCH  12  14
ENDBRANCH   1  12
BRANCH   6  17
ATOM     17  C   UNL d   1     -49.562  14.964  22.797  0.00  0.00     0.419 C 
ATOM     18  F   UNL d   1     -50.082  14.740  22.197  0.00  0.00    -0.166 F 
ATOM     19  F   UNL d   1     -49.817  15.474  23.396  0.00  0.00    -0.166 F 
ATOM     20  F   UNL d   1     -49.045  15.190  23.399  0.00  0.00    -0.166 F 
ENDBRANCH   6  17
TORSDOF 4
ENDMDL
MODEL 4
REMARK VINA RESULT:      -6.1      7.994      9.623
REMARK  4 active torsions:
REMARK  status: ('A' for Active; 'I' for Inactive)
REMARK    1  A    between atoms: C_6  and  C_1 
REMARK    2  A    between atoms: C_4  and  C_8 
REMARK    3  A    between atoms: O_18  and  C_6 
REMARK    4  A    between atoms: C_19  and  O_18 
ROOT
ATOM      1  C   UNL d   1     -39.550  14.954  17.878  0.00  0.00     0.121 A 
ATOM      2  C   UNL d   1     -40.151  14.890  19.168  0.00  0.00     0.057 A 
ATOM      3  C   UNL d   1     -40.063  14.592  18.404  0.00  0.00     0.204 A 
ATOM      4  C   UNL d   1     -40.669  14.520  19.692  0.00  0.00     0.009 A 
ATOM      5  N   UNL d   1     -39.202  15.922  18.879  0.00  0.00    -0.244 NA
ATOM      6  C   UNL d   1     -40.759  14.815  20.455  0.00  0.00     0.072 A 
ATOM      7  C   UNL d   1     -39.114  15.624  18.114  0.00  0.00     0.107 A 
ATOM      8  C   UNL d   1     -39.723  15.553  19.409  0.00  0.00     0.085 A 
ATOM      9  C   UNL d   1     -40.331  15.478  20.696  0.00  0.00     0.005 A 
ATOM     10  C   UNL d   1     -39.814  15.847  20.173  0.00  0.00     0.019 A 
ATOM     11  O   UNL d   1     -40.493  13.929  18.167  0.00  0.00    -0.286 OA
ENDROOT
BRANCH   1  12
ATOM     12  C   UNL d   1     -39.460  14.660  17.115  0.00  0.00     0.305 C 
ATOM     13  O   UNL d   1     -40.025  14.827  16.538  0.00  0.00    -0.259 OA
BRANCH  12  14
ATOM     14  O   UNL d   1     -38.802  14.196  16.919  0.00  0.00    -0.271 OA
BRANCH  14  15
ATOM     15  C   UNL d   1     -38.617  14.061  16.126  0.00  0.00     0.126 C 
ATOM     16  C   UNL d   1     -37.956  13.605  15.934  0.00  0.00     0.029 C 
ENDBRANCH  14  15
ENDBRANCH  12  14
ENDBRANCH   1  12
BRANCH   6  17
ATOM     17  C   UNL d   1     -41.277  14.445  20.978  0.00  0.00     0.419 C 
ATOM     18  F   UNL d   1     -41.114  13.685  21.254  0.00  0.00    -0.166 F 
ATOM     19  F   UNL d   1     -41.961  14.837  21.227  0.00  0.00    -0.166 F 
ATOM     20  F   UNL d   1     -41.443  15.206  20.704  0.00  0.00    -0.166 F 
ENDBRANCH   6  17
TORSDOF 4
ENDMDL
MODEL 5
REMARK VINA RESULT:      -5.8      9.210      9.794
REMARK  4 active torsions:
REMARK  status: ('A' for Active; 'I' for Inactive)
REMARK    1  A    between atoms: C_6  and  C_1 
REMARK    2  A    between atoms: C_4  and  C_8 
REMARK    3  A    between atoms: O_18  and  C_6 
REMARK    4  A    between atoms: C_19  and  O_18 
ROOT
ATOM      1  C   UNL d   1     -39.869  14.243  18.740  0.00  0.00     0.121 A 
ATOM      2  C   UNL d   1     -39.427  14.113  20.089  0.00  0.00     0.057 A 
ATOM      3  C   UNL d   1     -40.028  14.262  19.544  0.00  0.00     0.204 A 
ATOM      4  C   UNL d   1     -39.594  14.134  20.895  0.00  0.00     0.009 A 
ATOM      5  N   UNL d   1     -38.498  13.922  19.017  0.00  0.00    -0.244 NA
ATOM      6  C   UNL d   1     -38.997  13.986  21.441  0.00  0.00     0.072 A 
ATOM      7  C   UNL d   1     -39.099  14.071  18.471  0.00  0.00     0.107 A 
ATOM      8  C   UNL d   1     -38.662  13.942  19.830  0.00  0.00     0.085 A 
ATOM      9  C   UNL d   1     -38.232  13.815  21.182  0.00  0.00     0.005 A 
ATOM     10  C   UNL d   1     -38.065  13.794  20.377  0.00  0.00     0.019 A 
ATOM     11  O   UNL d   1     -40.791  14.432  19.807  0.00  0.00    -0.286 OA
ENDROOT
BRANCH   1  12
ATOM     12  C   UNL d   1     -40.465  14.391  18.194  0.00  0.00     0.305 C 
ATOM     13  O   UNL d   1     -41.044  13.822  18.049  0.00  0.00    -0.259 OA
BRANCH  12  14
ATOM     14  O   UNL d   1     -40.491  15.112  17.786  0.00  0.00    -0.271 OA
BRANCH  14  15
ATOM     15  C   UNL d   1     -40.931  15.174  17.091  0.00  0.00     0.126 C 
ATOM     16  C   UNL d   1     -41.082  15.920  16.769  0.00  0.00     0.029 C 
ENDBRANCH  14  15
ENDBRANCH  12  14
ENDBRANCH   1  12
BRANCH   6  17
ATOM     17  C   UNL d   1     -39.164  14.007  22.248  0.00  0.00     0.419 C 
ATOM     18  F   UNL d   1     -39.342  14.725  22.614  0.00  0.00    -0.166 F 
ATOM     19  F   UNL d   1     -39.154  13.309  22.690  0.00  0.00    -0.166 F 
ATOM     20  F   UNL d   1     -38.987  13.288  21.885  0.00  0.00    -0.166 F 
ENDBRANCH   6  17
TORSDOF 4
ENDMDL
