MODEL 1
REMARK VINA RESULT:      58.5      0.000      0.000
REMARK  8 active torsions:
REMARK  status: ('A' for Active; 'I' for Inactive)
REMARK    1  A    between atoms: C_6  and  C_1 
REMARK    2  A    between atoms: C_8  and  N_3 
REMARK    3  A    between atoms: C_7  and  C_6 
REMARK    4  A    between atoms: C_9  and  C_7 
REMARK    5  A    between atoms: C_14  and  C_8 
REMARK    6  A    between atoms: C_17  and  C_14 
REMARK    7  A    between atoms: C_15  and  C_16 
REMARK    8  A    between atoms: C_16  and  C_17 
ROOT
ATOM      1  C   UNL d   1     -50.969  25.918  33.801  0.00  0.00     0.148 A 
ATOM      2  N   UNL d   1     -50.340  26.398  33.309  0.00  0.00    -0.227 NA
ATOM      3  N   UNL d   1     -50.928  26.233  34.670  0.00  0.00    -0.289 N 
ATOM      4  C   UNL d   1     -50.285  26.896  34.723  0.00  0.00     0.083 A 
ATOM      5  C   UNL d   1     -49.913  27.001  33.862  0.00  0.00     0.099 A 
ATOM      6  C   UNL d   1     -49.986  27.421  35.433  0.00  0.00     0.019 A 
ATOM      7  C   UNL d   1     -49.253  27.627  33.736  0.00  0.00     0.021 A 
ATOM      8  C   UNL d   1     -49.322  28.040  35.278  0.00  0.00     0.002 A 
ATOM      9  C   UNL d   1     -48.950  28.145  34.417  0.00  0.00     0.002 A 
ENDROOT
BRANCH   1  10
ATOM     10  C   UNL d   1     -51.529  25.387  33.905  0.00  0.00     0.037 C 
BRANCH  10  11
ATOM     11  C   UNL d   1     -51.728  24.817  33.353  0.00  0.00     0.003 C 
BRANCH  11  12
ATOM     12  C   UNL d   1     -52.460  24.429  33.338  0.00  0.00     0.000 A 
ATOM     13  C   UNL d   1     -53.162  24.849  33.322  0.00  0.00     0.000 A 
ATOM     14  C   UNL d   1     -53.885  24.461  33.306  0.00  0.00     0.000 A 
ATOM     15  C   UNL d   1     -53.903  23.628  33.307  0.00  0.00     0.000 A 
ATOM     16  C   UNL d   1     -53.198  23.208  33.323  0.00  0.00     0.000 A 
ATOM     17  C   UNL d   1     -52.479  23.597  33.338  0.00  0.00     0.000 A 
ENDBRANCH  11  12
ENDBRANCH  10  11
ENDBRANCH   1  10
BRANCH   3  18
ATOM     18  C   UNL d   1     -50.957  26.446  35.446  0.00  0.00     0.082 C 
BRANCH  18  19
ATOM     19  C   UNL d   1     -51.656  26.376  35.865  0.00  0.00     0.019 C 
BRANCH  19  20
ATOM     20  C   UNL d   1     -51.653  26.108  36.637  0.00  0.00     0.002 C 
BRANCH  20  21
ATOM     21  C   UNL d   1     -51.797  26.624  37.265  0.00  0.00     0.000 C 
BRANCH  21  22
ATOM     22  C   UNL d   1     -51.613  26.413  38.038  0.00  0.00     0.000 C 
ATOM     23  C   UNL d   1     -51.848  25.686  38.349  0.00  0.00     0.000 C 
ENDBRANCH  21  22
ENDBRANCH  20  21
ENDBRANCH  19  20
ENDBRANCH  18  19
ENDBRANCH   3  18
TORSDOF 8
ENDMDL
MODEL 2
REMARK VINA RESULT:      60.5      1.900      4.598
REMARK  8 active torsions:
REMARK  status: ('A' for Active; 'I' for Inactive)
REMARK    1  A    between atoms: C_6  and  C_1 
REMARK    2  A    between atoms: C_8  and  N_3 
REMARK    3  A    between atoms: C_7  and  C_6 
REMARK    4  A    between atoms: C_9  and  C_7 
REMARK    5  A    between atoms: C_14  and  C_8 
REMARK    6  A    between atoms: C_17  and  C_14 
REMARK    7  A    between atoms: C_15  and  C_16 
REMARK    8  A    between atoms: C_16  and  C_17 
ROOT
ATOM      1  C   UNL d   1     -51.774  26.481  33.630  0.00  0.00     0.148 A 
ATOM      2  N   UNL d   1     -52.674  26.635  33.445  0.00  0.00    -0.227 NA
ATOM      3  N   UNL d   1     -51.675  25.568  33.746  0.00  0.00    -0.289 N 
ATOM      4  C   UNL d   1     -52.497  25.157  33.636  0.00  0.00     0.083 A 
ATOM      5  C   UNL d   1     -53.128  25.832  33.445  0.00  0.00     0.099 A 
ATOM      6  C   UNL d   1     -52.761  24.265  33.681  0.00  0.00     0.019 A 
ATOM      7  C   UNL d   1     -54.005  25.595  33.306  0.00  0.00     0.021 A 
ATOM      8  C   UNL d   1     -53.645  24.055  33.538  0.00  0.00     0.002 A 
ATOM      9  C   UNL d   1     -54.277  24.730  33.347  0.00  0.00     0.002 A 
ENDROOT
BRANCH   1  10
ATOM     10  C   UNL d   1     -51.032  26.685  33.747  0.00  0.00     0.037 C 
BRANCH  10  11
ATOM     11  C   UNL d   1     -50.780  27.456  33.854  0.00  0.00     0.003 C 
BRANCH  11  12
ATOM     12  C   UNL d   1     -49.997  27.663  34.031  0.00  0.00     0.000 A 
ATOM     13  C   UNL d   1     -49.824  28.333  34.467  0.00  0.00     0.000 A 
ATOM     14  C   UNL d   1     -49.048  28.534  34.640  0.00  0.00     0.000 A 
ATOM     15  C   UNL d   1     -48.428  28.048  34.369  0.00  0.00     0.000 A 
ATOM     16  C   UNL d   1     -48.603  27.376  33.933  0.00  0.00     0.000 A 
ATOM     17  C   UNL d   1     -49.377  27.177  33.760  0.00  0.00     0.000 A 
ENDBRANCH  11  12
ENDBRANCH  10  11
ENDBRANCH   1  10
BRANCH   3  18
ATOM     18  C   UNL d   1     -51.501  24.790  33.861  0.00  0.00     0.082 C 
BRANCH  18  19
ATOM     19  C   UNL d   1     -51.051  24.384  33.312  0.00  0.00     0.019 C 
BRANCH  19  20
ATOM     20  C   UNL d   1     -50.423  23.920  33.551  0.00  0.00     0.002 C 
BRANCH  20  21
ATOM     21  C   UNL d   1     -49.645  24.156  33.411  0.00  0.00     0.000 C 
BRANCH  21  22
ATOM     22  C   UNL d   1     -49.019  23.629  33.495  0.00  0.00     0.000 C 
ATOM     23  C   UNL d   1     -48.921  23.189  34.187  0.00  0.00     0.000 C 
ENDBRANCH  21  22
ENDBRANCH  20  21
ENDBRANCH  19  20
ENDBRANCH  18  19
ENDBRANCH   3  18
TORSDOF 8
ENDMDL
MODEL 3
REMARK VINA RESULT:      61.3      1.411      2.205
REMARK  8 active torsions:
REMARK  status: ('A' for Active; 'I' for Inactive)
REMARK    1  A    between atoms: C_6  and  C_1 
REMARK    2  A    between atoms: C_8  and  N_3 
REMARK    3  A    between atoms: C_7  and  C_6 
REMARK    4  A    between atoms: C_9  and  C_7 
REMARK    5  A    between atoms: C_14  and  C_8 
REMARK    6  A    between atoms: C_17  and  C_14 
REMARK    7  A    between atoms: C_15  and  C_16 
REMARK    8  A    between atoms: C_16  and  C_17 
ROOT
ATOM      1  C   UNL d   1     -49.375  27.581  34.300  0.00  0.00     0.148 A 
ATOM      2  N   UNL d   1     -48.639  28.086  34.032  0.00  0.00    -0.227 NA
ATOM      3  N   UNL d   1     -49.483  27.724  35.208  0.00  0.00    -0.289 N 
ATOM      4  C   UNL d   1     -48.830  28.308  35.504  0.00  0.00     0.083 A 
ATOM      5  C   UNL d   1     -48.295  28.537  34.760  0.00  0.00     0.099 A 
ATOM      6  C   UNL d   1     -48.644  28.664  36.345  0.00  0.00     0.019 A 
ATOM      7  C   UNL d   1     -47.591  29.115  34.879  0.00  0.00     0.021 A 
ATOM      8  C   UNL d   1     -47.932  29.241  36.436  0.00  0.00     0.002 A 
ATOM      9  C   UNL d   1     -47.398  29.470  35.692  0.00  0.00     0.002 A 
ENDROOT
BRANCH   1  10
ATOM     10  C   UNL d   1     -49.970  27.090  34.196  0.00  0.00     0.037 C 
BRANCH  10  11
ATOM     11  C   UNL d   1     -50.145  26.726  33.485  0.00  0.00     0.003 C 
BRANCH  11  12
ATOM     12  C   UNL d   1     -50.566  26.015  33.426  0.00  0.00     0.000 A 
ATOM     13  C   UNL d   1     -51.384  26.006  33.411  0.00  0.00     0.000 A 
ATOM     14  C   UNL d   1     -51.797  25.299  33.352  0.00  0.00     0.000 A 
ATOM     15  C   UNL d   1     -51.377  24.582  33.306  0.00  0.00     0.000 A 
ATOM     16  C   UNL d   1     -50.556  24.592  33.320  0.00  0.00     0.000 A 
ATOM     17  C   UNL d   1     -50.146  25.297  33.379  0.00  0.00     0.000 A 
ENDBRANCH  11  12
ENDBRANCH  10  11
ENDBRANCH   1  10
BRANCH   3  18
ATOM     18  C   UNL d   1     -49.649  27.793  35.993  0.00  0.00     0.082 C 
BRANCH  18  19
ATOM     19  C   UNL d   1     -50.295  27.404  36.312  0.00  0.00     0.019 C 
BRANCH  19  20
ATOM     20  C   UNL d   1     -50.233  27.009  37.024  0.00  0.00     0.002 C 
BRANCH  20  21
ATOM     21  C   UNL d   1     -50.773  27.146  37.632  0.00  0.00     0.000 C 
BRANCH  21  22
ATOM     22  C   UNL d   1     -50.970  26.552  38.166  0.00  0.00     0.000 C 
ATOM     23  C   UNL d   1     -51.722  26.210  38.165  0.00  0.00     0.000 C 
ENDBRANCH  21  22
ENDBRANCH  20  21
ENDBRANCH  19  20
ENDBRANCH  18  19
ENDBRANCH   3  18
TORSDOF 8
ENDMDL
