MODEL 1
REMARK VINA RESULT:      -8.0      0.000      0.000
REMARK  3 active torsions:
REMARK  status: ('A' for Active; 'I' for Inactive)
REMARK    1  A    between atoms: C_15  and  C_3 
REMARK    2  A    between atoms: C_10  and  N_4 
REMARK    3  A    between atoms: N_6  and  C_5 
ROOT
ATOM      1  C   UNL d   1     -47.761  13.429  22.787  0.00  0.00     0.070 A 
ATOM      2  C   UNL d   1     -47.049  13.046  22.889  0.00  0.00     0.152 A 
ATOM      3  C   UNL d   1     -48.297  12.425  22.947  0.00  0.00     0.023 A 
ATOM      4  N   UNL d   1     -46.916  12.307  23.030  0.00  0.00    -0.290 N 
ATOM      5  C   UNL d   1     -47.777  14.229  22.639  0.00  0.00     0.153 A 
ATOM      6  C   UNL d   1     -47.631  12.108  23.035  0.00  0.00     0.082 A 
ATOM      7  N   UNL d   1     -46.352  13.462  22.844  0.00  0.00    -0.206 NA
ATOM      8  N   UNL d   1     -47.079  14.647  22.594  0.00  0.00    -0.206 NA
ATOM      9  C   UNL d   1     -46.367  14.263  22.697  0.00  0.00     0.202 A 
ENDROOT
BRANCH   5  10
ATOM     10  N   UNL d   1     -48.512  14.621  22.534  0.00  0.00    -0.285 N 
ATOM     11  C   UNL d   1     -48.897  14.583  21.798  0.00  0.00     0.106 A 
ATOM     12  C   UNL d   1     -49.619  14.965  21.687  0.00  0.00     0.118 A 
ATOM     13  C   UNL d   1     -50.014  14.932  20.945  0.00  0.00     0.028 C 
ATOM     14  O   UNL d   1     -49.971  15.396  22.326  0.00  0.00    -0.304 OA
ATOM     15  C   UNL d   1     -49.586  15.434  23.063  0.00  0.00     0.118 A 
ATOM     16  C   UNL d   1     -48.853  15.044  23.168  0.00  0.00     0.106 A 
ATOM     17  C   UNL d   1     -49.927  15.857  23.697  0.00  0.00     0.028 C 
ENDBRANCH   5  10
BRANCH   3  18
ATOM     18  C   UNL d   1     -49.062  12.170  22.959  0.00  0.00     0.002 A 
ATOM     19  C   UNL d   1     -49.441  11.964  22.269  0.00  0.00     0.000 A 
ATOM     20  C   UNL d   1     -50.210  11.708  22.285  0.00  0.00     0.000 A 
ATOM     21  C   UNL d   1     -50.619  11.652  22.995  0.00  0.00     0.000 A 
ATOM     22  C   UNL d   1     -50.233  11.861  23.693  0.00  0.00     0.000 A 
ATOM     23  C   UNL d   1     -49.461  12.118  23.673  0.00  0.00     0.000 A 
ENDBRANCH   3  18
BRANCH   4  24
ATOM     24  C   UNL d   1     -46.210  11.886  23.139  0.00  0.00     0.066 A 
ATOM     25  C   UNL d   1     -45.489  12.155  22.817  0.00  0.00     0.020 A 
ATOM     26  C   UNL d   1     -44.784  11.733  22.926  0.00  0.00     0.031 A 
ATOM     27  C   UNL d   1     -44.783  11.022  23.367  0.00  0.00     0.140 A 
ATOM     28  C   UNL d   1     -45.495  10.737  23.698  0.00  0.00     0.031 A 
ATOM     29  F   UNL d   1     -44.078  10.601  23.476  0.00  0.00    -0.204 F 
ATOM     30  C   UNL d   1     -46.207  11.169  23.583  0.00  0.00     0.020 A 
ENDBRANCH   4  24
TORSDOF 3
ENDMDL
MODEL 2
REMARK VINA RESULT:      -6.4      1.303      2.722
REMARK  3 active torsions:
REMARK  status: ('A' for Active; 'I' for Inactive)
REMARK    1  A    between atoms: C_15  and  C_3 
REMARK    2  A    between atoms: C_10  and  N_4 
REMARK    3  A    between atoms: N_6  and  C_5 
ROOT
ATOM      1  C   UNL d   1     -48.045  12.596  22.281  0.00  0.00     0.070 A 
ATOM      2  C   UNL d   1     -47.250  12.425  22.243  0.00  0.00     0.152 A 
ATOM      3  C   UNL d   1     -47.774  13.699  22.460  0.00  0.00     0.023 A 
ATOM      4  N   UNL d   1     -46.651  12.895  22.314  0.00  0.00    -0.290 N 
ATOM      5  C   UNL d   1     -48.595  12.004  22.189  0.00  0.00     0.153 A 
ATOM      6  C   UNL d   1     -47.058  13.507  22.420  0.00  0.00     0.082 A 
ATOM      7  N   UNL d   1     -47.003  11.660  22.114  0.00  0.00    -0.206 NA
ATOM      8  N   UNL d   1     -48.349  11.238  22.060  0.00  0.00    -0.206 NA
ATOM      9  C   UNL d   1     -47.553  11.067  22.022  0.00  0.00     0.202 A 
ENDROOT
BRANCH   5  10
ATOM     10  N   UNL d   1     -49.415  12.185  22.229  0.00  0.00    -0.285 N 
ATOM     11  C   UNL d   1     -49.806  12.472  21.553  0.00  0.00     0.106 A 
ATOM     12  C   UNL d   1     -50.610  12.651  21.584  0.00  0.00     0.118 A 
ATOM     13  C   UNL d   1     -51.012  12.942  20.905  0.00  0.00     0.028 C 
ATOM     14  O   UNL d   1     -51.039  12.543  22.307  0.00  0.00    -0.304 OA
ATOM     15  C   UNL d   1     -50.648  12.257  22.983  0.00  0.00     0.118 A 
ATOM     16  C   UNL d   1     -49.831  12.076  22.944  0.00  0.00     0.106 A 
ATOM     17  C   UNL d   1     -51.064  12.148  23.698  0.00  0.00     0.028 C 
ENDBRANCH   5  10
BRANCH   3  18
ATOM     18  C   UNL d   1     -48.181  14.386  22.578  0.00  0.00     0.002 A 
ATOM     19  C   UNL d   1     -48.448  14.586  23.320  0.00  0.00     0.000 A 
ATOM     20  C   UNL d   1     -48.856  15.277  23.435  0.00  0.00     0.000 A 
ATOM     21  C   UNL d   1     -49.007  15.786  22.808  0.00  0.00     0.000 A 
ATOM     22  C   UNL d   1     -48.734  15.580  22.057  0.00  0.00     0.000 A 
ATOM     23  C   UNL d   1     -48.325  14.886  21.945  0.00  0.00     0.000 A 
ENDBRANCH   3  18
BRANCH   4  24
ATOM     24  C   UNL d   1     -45.835  12.756  22.281  0.00  0.00     0.066 A 
ATOM     25  C   UNL d   1     -45.446  12.308  22.868  0.00  0.00     0.020 A 
ATOM     26  C   UNL d   1     -44.630  12.169  22.836  0.00  0.00     0.031 A 
ATOM     27  C   UNL d   1     -44.176  12.480  22.205  0.00  0.00     0.140 A 
ATOM     28  C   UNL d   1     -44.546  12.931  21.608  0.00  0.00     0.031 A 
ATOM     29  F   UNL d   1     -43.359  12.341  22.173  0.00  0.00    -0.204 F 
ATOM     30  C   UNL d   1     -45.376  13.068  21.647  0.00  0.00     0.020 A 
ENDBRANCH   4  24
TORSDOF 3
ENDMDL
MODEL 3
REMARK VINA RESULT:      -6.1      1.234      2.732
REMARK  3 active torsions:
REMARK  status: ('A' for Active; 'I' for Inactive)
REMARK    1  A    between atoms: C_15  and  C_3 
REMARK    2  A    between atoms: C_10  and  N_4 
REMARK    3  A    between atoms: N_6  and  C_5 
ROOT
ATOM      1  C   UNL d   1     -48.065  12.287  22.707  0.00  0.00     0.070 A 
ATOM      2  C   UNL d   1     -47.366  11.888  22.837  0.00  0.00     0.152 A 
ATOM      3  C   UNL d   1     -47.470  13.271  22.685  0.00  0.00     0.023 A 
ATOM      4  N   UNL d   1     -46.657  12.165  22.900  0.00  0.00    -0.290 N 
ATOM      5  C   UNL d   1     -48.766  11.877  22.658  0.00  0.00     0.153 A 
ATOM      6  C   UNL d   1     -46.853  12.875  22.804  0.00  0.00     0.082 A 
ATOM      7  N   UNL d   1     -47.368  11.078  22.918  0.00  0.00    -0.206 NA
ATOM      8  N   UNL d   1     -48.768  11.067  22.739  0.00  0.00    -0.206 NA
ATOM      9  C   UNL d   1     -48.069  10.667  22.869  0.00  0.00     0.202 A 
ENDROOT
BRANCH   5  10
ATOM     10  N   UNL d   1     -49.484  12.292  22.525  0.00  0.00    -0.285 N 
ATOM     11  C   UNL d   1     -49.916  12.586  23.172  0.00  0.00     0.106 A 
ATOM     12  C   UNL d   1     -50.621  12.994  23.049  0.00  0.00     0.118 A 
ATOM     13  C   UNL d   1     -51.064  13.294  23.698  0.00  0.00     0.028 C 
ATOM     14  O   UNL d   1     -50.907  13.115  22.260  0.00  0.00    -0.304 OA
ATOM     15  C   UNL d   1     -50.475  12.821  21.612  0.00  0.00     0.118 A 
ATOM     16  C   UNL d   1     -49.759  12.408  21.745  0.00  0.00     0.106 A 
ATOM     17  C   UNL d   1     -50.750  12.937  20.833  0.00  0.00     0.028 C 
ENDBRANCH   5  10
BRANCH   3  18
ATOM     18  C   UNL d   1     -47.643  14.052  22.584  0.00  0.00     0.002 A 
ATOM     19  C   UNL d   1     -47.846  14.516  23.221  0.00  0.00     0.000 A 
ATOM     20  C   UNL d   1     -48.019  15.301  23.116  0.00  0.00     0.000 A 
ATOM     21  C   UNL d   1     -47.993  15.641  22.369  0.00  0.00     0.000 A 
ATOM     22  C   UNL d   1     -47.787  15.168  21.725  0.00  0.00     0.000 A 
ATOM     23  C   UNL d   1     -47.614  14.381  21.833  0.00  0.00     0.000 A 
ENDBRANCH   3  18
BRANCH   4  24
ATOM     24  C   UNL d   1     -45.929  11.792  23.031  0.00  0.00     0.066 A 
ATOM     25  C   UNL d   1     -45.856  11.156  23.567  0.00  0.00     0.020 A 
ATOM     26  C   UNL d   1     -45.128  10.783  23.698  0.00  0.00     0.031 A 
ATOM     27  C   UNL d   1     -44.445  11.040  23.289  0.00  0.00     0.140 A 
ATOM     28  C   UNL d   1     -44.497  11.675  22.748  0.00  0.00     0.031 A 
ATOM     29  F   UNL d   1     -43.716  10.667  23.420  0.00  0.00    -0.204 F 
ATOM     30  C   UNL d   1     -45.239  12.049  22.620  0.00  0.00     0.020 A 
ENDBRANCH   4  24
TORSDOF 3
ENDMDL
