MODEL 1
REMARK VINA RESULT:      12.7      0.000      0.000
REMARK  7 active torsions:
REMARK  status: ('A' for Active; 'I' for Inactive)
REMARK    1  A    between atoms: C_20  and  N_1 
REMARK       I    between atoms: C_6  and  N_7 
REMARK    2  A    between atoms: C_10  and  C_6 
REMARK    3  A    between atoms: N_7  and  C_24 
REMARK    4  A    between atoms: C_9  and  N_7 
REMARK    5  A    between atoms: O_29  and  C_11 
REMARK    6  A    between atoms: C_23  and  C_20 
REMARK    7  A    between atoms: C_24  and  C_23 
ROOT
ATOM      1  C   UNL d   1     -42.222-122.248 -49.959  0.00  0.00     0.085 C 
ENDROOT
BRANCH   1   2
ATOM      2  N   UNL d   1     -42.649-122.617 -49.368  0.00  0.00    -0.271 N 
ATOM      3  C   UNL d   1     -43.470-122.688 -49.445  0.00  0.00     0.271 C 
ATOM      4  O   UNL d   1     -43.901-123.058 -48.853  0.00  0.00    -0.266 OA
BRANCH   3   5
ATOM      5  C   UNL d   1     -43.850-122.389 -50.113  0.00  0.00     0.086 A 
ATOM      6  S   UNL d   1     -44.076-121.605 -50.253  0.00  0.00    -0.082 SA
ATOM      7  C   UNL d   1     -44.428-121.564 -50.971  0.00  0.00     0.036 A 
ATOM      8  C   UNL d   1     -44.440-122.294 -51.307  0.00  0.00     0.008 A 
ATOM      9  C   UNL d   1     -44.072-122.835 -50.766  0.00  0.00     0.012 A 
ENDBRANCH   3   5
BRANCH   2  10
ATOM     10  C   UNL d   1     -42.270-122.915 -48.704  0.00  0.00     0.089 A 
ATOM     11  C   UNL d   1     -42.449-122.620 -47.947  0.00  0.00     0.110 A 
ATOM     12  C   UNL d   1     -42.073-122.916 -47.286  0.00  0.00     0.026 A 
ATOM     13  C   UNL d   1     -41.505-123.517 -47.361  0.00  0.00     0.002 A 
ATOM     14  C   UNL d   1     -41.331-123.805 -48.107  0.00  0.00     0.002 A 
ATOM     15  C   UNL d   1     -41.125-123.816 -46.693  0.00  0.00     0.000 C 
ATOM     16  C   UNL d   1     -41.707-123.509 -48.768  0.00  0.00     0.020 A 
BRANCH  11  17
ATOM     17  O   UNL d   1     -43.005-122.031 -47.863  0.00  0.00    -0.327 OA
ATOM     18  C   UNL d   1     -43.031-121.590 -47.176  0.00  0.00     0.181 C 
ENDBRANCH  11  17
ENDBRANCH   2  10
ENDBRANCH   1   2
BRANCH   1  19
ATOM     19  C   UNL d   1     -41.705-122.700 -50.454  0.00  0.00     0.038 C 
BRANCH  19  20
ATOM     20  C   UNL d   1     -41.125-122.324 -50.916  0.00  0.00     0.088 C 
BRANCH  20  21
ATOM     21  N   UNL d   1     -41.189-122.338 -51.768  0.00  0.00    -0.240 N 
ATOM     22  C   UNL d   1     -41.247-121.633 -52.193  0.00  0.00     0.267 A 
ATOM     23  C   UNL d   1     -41.310-121.635 -53.017  0.00  0.00     0.057 A 
ATOM     24  O   UNL d   1     -41.243-120.882 -51.786  0.00  0.00    -0.267 OA
ATOM     25  C   UNL d   1     -41.366-120.945 -53.433  0.00  0.00     0.005 A 
ATOM     26  C   UNL d   1     -41.313-122.371 -53.408  0.00  0.00     0.009 A 
ATOM     27  C   UNL d   1     -41.429-120.955 -54.263  0.00  0.00     0.000 A 
ATOM     28  C   UNL d   1     -41.432-121.681 -54.645  0.00  0.00     0.000 A 
ATOM     29  C   UNL d   1     -41.376-122.371 -54.229  0.00  0.00     0.000 A 
ATOM     30  C   UNL d   1     -41.379-123.105 -54.616  0.00  0.00     0.000 A 
ATOM     31  C   UNL d   1     -41.321-123.810 -54.192  0.00  0.00     0.000 A 
ATOM     32  C   UNL d   1     -41.259-123.799 -53.368  0.00  0.00     0.005 A 
ATOM     33  C   UNL d   1     -41.256-123.076 -52.983  0.00  0.00     0.057 A 
ATOM     34  C   UNL d   1     -41.193-123.063 -52.156  0.00  0.00     0.267 A 
ATOM     35  O   UNL d   1     -41.135-123.779 -51.725  0.00  0.00    -0.267 OA
ENDBRANCH  20  21
ENDBRANCH  19  20
ENDBRANCH   1  19
TORSDOF 7
ENDMDL
