MODEL 1
REMARK VINA RESULT:      26.2      0.000      0.000
REMARK  3 active torsions:
REMARK  status: ('A' for Active; 'I' for Inactive)
REMARK    1  A    between atoms: C_2  and  S_1 
REMARK    2  A    between atoms: N_3  and  S_1 
REMARK    3  A    between atoms: C_9  and  N_3 
ROOT
ATOM      1  S   UNL d   1      13.428  11.861  -2.623  0.00  0.00     0.285 S 
ATOM      2  O   UNL d   1      12.779  11.937  -2.129  0.00  0.00    -0.198 OA
ATOM      3  O   UNL d   1      14.084  11.784  -3.119  0.00  0.00    -0.198 OA
ENDROOT
BRANCH   1   4
ATOM      4  C   UNL d   1      13.932  11.936  -1.972  0.00  0.00     0.105 A 
ATOM      5  C   UNL d   1      14.741  12.035  -2.085  0.00  0.00     0.013 A 
ATOM      6  C   UNL d   1      15.242  12.110  -1.443  0.00  0.00     0.001 A 
ATOM      7  C   UNL d   1      16.057  12.209  -1.555  0.00  0.00     0.000 C 
ATOM      8  C   UNL d   1      14.939  12.088  -0.675  0.00  0.00     0.000 A 
ATOM      9  C   UNL d   1      14.126  11.989  -0.560  0.00  0.00     0.001 A 
ATOM     10  C   UNL d   1      15.439  12.163  -0.021  0.00  0.00     0.000 C 
ATOM     11  C   UNL d   1      13.620  11.913  -1.209  0.00  0.00     0.012 A 
ATOM     12  C   UNL d   1      12.812  11.815  -1.092  0.00  0.00     0.001 C 
ENDBRANCH   1   4
BRANCH   1  13
ATOM     13  N   UNL d   1      12.926  11.784  -3.276  0.00  0.00    -0.159 NA
BRANCH  13  14
ATOM     14  C   UNL d   1      13.015  12.283  -3.920  0.00  0.00     0.089 A 
ATOM     15  C   UNL d   1      12.906  13.098  -3.833  0.00  0.00     0.015 A 
ATOM     16  C   UNL d   1      12.994  13.600  -4.474  0.00  0.00     0.100 A 
ATOM     17  C   UNL d   1      12.981  14.359  -4.790  0.00  0.00     0.029 C 
ATOM     18  C   UNL d   1      12.816  14.243  -3.992  0.00  0.00     0.029 C 
ATOM     19  N   UNL d   1      13.192  13.294  -5.209  0.00  0.00    -0.295 NA
ATOM     20  C   UNL d   1      13.303  12.484  -5.304  0.00  0.00     0.100 A 
ATOM     21  C   UNL d   1      13.214  11.981  -4.661  0.00  0.00     0.015 A 
ATOM     22  C   UNL d   1      13.481  11.837  -5.783  0.00  0.00     0.029 C 
ATOM     23  C   UNL d   1      13.469  12.601  -6.106  0.00  0.00     0.029 C 
ENDBRANCH  13  14
ENDBRANCH   1  13
TORSDOF 3
ENDMDL
