MODEL 1
REMARK VINA RESULT:      -8.8      0.000      0.000
REMARK  4 active torsions:
REMARK  status: ('A' for Active; 'I' for Inactive)
REMARK    1  A    between atoms: C_14  and  N_3 
REMARK    2  A    between atoms: C_13  and  N_7 
REMARK       I    between atoms: N_9  and  C_10 
REMARK    3  A    between atoms: C_10  and  C_13 
REMARK    4  A    between atoms: C_19  and  C_14 
ROOT
ATOM      1  C   UNL d   1     -46.429  12.078  23.202  0.00  0.00     0.191 A 
ATOM      2  C   UNL d   1     -46.311  12.792  22.806  0.00  0.00     0.196 A 
ATOM      3  N   UNL d   1     -45.699  11.725  23.313  0.00  0.00    -0.191 N 
ATOM      4  N   UNL d   1     -47.201  11.840  23.411  0.00  0.00    -0.204 NA
ATOM      5  N   UNL d   1     -45.496  12.869  22.678  0.00  0.00    -0.122 NA
ATOM      6  N   UNL d   1     -45.126  12.206  22.994  0.00  0.00    -0.058 NA
ATOM      7  N   UNL d   1     -47.716  13.045  22.820  0.00  0.00    -0.249 N 
ATOM      8  C   UNL d   1     -46.940  13.276  22.614  0.00  0.00     0.289 A 
ATOM      9  C   UNL d   1     -47.850  12.327  23.219  0.00  0.00     0.187 A 
ATOM     10  O   UNL d   1     -46.822  13.990  22.219  0.00  0.00    -0.265 OA
ENDROOT
BRANCH   7  11
ATOM     11  C   UNL d   1     -48.358  13.518  22.635  0.00  0.00     0.146 C 
BRANCH  11  12
ATOM     12  C   UNL d   1     -48.906  13.305  22.066  0.00  0.00     0.283 C 
ATOM     13  N   UNL d   1     -49.636  13.700  21.994  0.00  0.00    -0.272 N 
ATOM     14  C   UNL d   1     -49.813  14.326  22.513  0.00  0.00     0.067 A 
ATOM     15  C   UNL d   1     -50.168  13.477  21.425  0.00  0.00     0.083 A 
ATOM     16  C   UNL d   1     -50.543  14.721  22.441  0.00  0.00     0.016 A 
ATOM     17  C   UNL d   1     -49.281  14.558  23.090  0.00  0.00     0.018 A 
ATOM     18  C   UNL d   1     -50.720  15.348  22.960  0.00  0.00     0.001 A 
ATOM     19  C   UNL d   1     -51.064  14.487  21.867  0.00  0.00     0.003 A 
ATOM     20  C   UNL d   1     -50.183  15.574  23.534  0.00  0.00     0.000 A 
ATOM     21  C   UNL d   1     -49.453  15.179  23.606  0.00  0.00     0.002 A 
ATOM     22  C   UNL d   1     -50.898  13.871  21.352  0.00  0.00     0.019 A 
ATOM     23  O   UNL d   1     -48.729  12.678  21.547  0.00  0.00    -0.265 OA
ENDBRANCH  11  12
ENDBRANCH   7  11
BRANCH   3  24
ATOM     24  C   UNL d   1     -45.570  10.998  23.689  0.00  0.00     0.104 C 
BRANCH  24  25
ATOM     25  C   UNL d   1     -44.872  10.599  23.585  0.00  0.00     0.019 A 
ATOM     26  C   UNL d   1     -44.181  11.013  23.408  0.00  0.00     0.002 A 
ATOM     27  C   UNL d   1     -43.484  10.607  23.304  0.00  0.00     0.000 A 
ATOM     28  C   UNL d   1     -43.455   9.790  23.373  0.00  0.00     0.000 A 
ATOM     29  C   UNL d   1     -44.146   9.376  23.550  0.00  0.00     0.000 A 
ATOM     30  C   UNL d   1     -44.845   9.775  23.655  0.00  0.00     0.002 A 
ENDBRANCH  24  25
ENDBRANCH   3  24
TORSDOF 4
ENDMDL
MODEL 2
REMARK VINA RESULT:      -7.5      1.842      2.341
REMARK  4 active torsions:
REMARK  status: ('A' for Active; 'I' for Inactive)
REMARK    1  A    between atoms: C_14  and  N_3 
REMARK    2  A    between atoms: C_13  and  N_7 
REMARK       I    between atoms: N_9  and  C_10 
REMARK    3  A    between atoms: C_10  and  C_13 
REMARK    4  A    between atoms: C_19  and  C_14 
ROOT
ATOM      1  C   UNL d   1     -45.772  13.111  22.110  0.00  0.00     0.191 A 
ATOM      2  C   UNL d   1     -46.017  13.757  22.560  0.00  0.00     0.196 A 
ATOM      3  N   UNL d   1     -44.984  13.219  21.917  0.00  0.00    -0.191 N 
ATOM      4  N   UNL d   1     -46.310  12.498  21.933  0.00  0.00    -0.204 NA
ATOM      5  N   UNL d   1     -45.365  14.263  22.639  0.00  0.00    -0.122 NA
ATOM      6  N   UNL d   1     -44.732  13.923  22.239  0.00  0.00    -0.058 NA
ATOM      7  N   UNL d   1     -47.328  13.201  22.666  0.00  0.00    -0.249 N 
ATOM      8  C   UNL d   1     -46.783  13.810  22.838  0.00  0.00     0.289 A 
ATOM      9  C   UNL d   1     -47.094  12.543  22.212  0.00  0.00     0.187 A 
ATOM     10  O   UNL d   1     -47.029  14.456  23.288  0.00  0.00    -0.265 OA
ENDROOT
BRANCH   7  11
ATOM     11  C   UNL d   1     -48.100  13.238  22.936  0.00  0.00     0.146 C 
BRANCH  11  12
ATOM     12  C   UNL d   1     -48.465  12.601  23.298  0.00  0.00     0.283 C 
ATOM     13  N   UNL d   1     -49.295  12.527  23.317  0.00  0.00    -0.272 N 
ATOM     14  C   UNL d   1     -49.763  13.115  22.960  0.00  0.00     0.067 A 
ATOM     15  C   UNL d   1     -49.641  11.891  23.678  0.00  0.00     0.083 A 
ATOM     16  C   UNL d   1     -50.593  13.042  22.978  0.00  0.00     0.016 A 
ATOM     17  C   UNL d   1     -49.422  13.761  22.592  0.00  0.00     0.018 A 
ATOM     18  C   UNL d   1     -51.063  13.630  22.621  0.00  0.00     0.001 A 
ATOM     19  C   UNL d   1     -50.925  12.399  23.344  0.00  0.00     0.003 A 
ATOM     20  C   UNL d   1     -50.713  14.273  22.256  0.00  0.00     0.000 A 
ATOM     21  C   UNL d   1     -49.884  14.346  22.237  0.00  0.00     0.002 A 
ATOM     22  C   UNL d   1     -50.470  11.816  23.698  0.00  0.00     0.019 A 
ATOM     23  O   UNL d   1     -47.995  12.013  23.655  0.00  0.00    -0.265 OA
ENDBRANCH  11  12
ENDBRANCH   7  11
BRANCH   3  24
ATOM     24  C   UNL d   1     -44.524  12.697  21.469  0.00  0.00     0.104 C 
BRANCH  24  25
ATOM     25  C   UNL d   1     -43.716  12.763  21.463  0.00  0.00     0.019 A 
ATOM     26  C   UNL d   1     -43.255  12.262  21.929  0.00  0.00     0.002 A 
ATOM     27  C   UNL d   1     -42.445  12.334  21.918  0.00  0.00     0.000 A 
ATOM     28  C   UNL d   1     -42.076  12.897  21.450  0.00  0.00     0.000 A 
ATOM     29  C   UNL d   1     -42.536  13.398  20.983  0.00  0.00     0.000 A 
ATOM     30  C   UNL d   1     -43.344  13.332  20.989  0.00  0.00     0.002 A 
ENDBRANCH  24  25
ENDBRANCH   3  24
TORSDOF 4
ENDMDL
MODEL 3
REMARK VINA RESULT:      -7.3      1.197      5.779
REMARK  4 active torsions:
REMARK  status: ('A' for Active; 'I' for Inactive)
REMARK    1  A    between atoms: C_14  and  N_3 
REMARK    2  A    between atoms: C_13  and  N_7 
REMARK       I    between atoms: N_9  and  C_10 
REMARK    3  A    between atoms: C_10  and  C_13 
REMARK    4  A    between atoms: C_19  and  C_14 
ROOT
ATOM      1  C   UNL d   1     -47.853  13.964  22.484  0.00  0.00     0.191 A 
ATOM      2  C   UNL d   1     -47.136  14.304  22.711  0.00  0.00     0.196 A 
ATOM      3  N   UNL d   1     -48.409  14.561  22.421  0.00  0.00    -0.191 N 
ATOM      4  N   UNL d   1     -47.903  13.140  22.364  0.00  0.00    -0.204 NA
ATOM      5  N   UNL d   1     -47.264  15.120  22.785  0.00  0.00    -0.122 NA
ATOM      6  N   UNL d   1     -48.052  15.269  22.604  0.00  0.00    -0.058 NA
ATOM      7  N   UNL d   1     -46.510  13.021  22.703  0.00  0.00    -0.249 N 
ATOM      8  C   UNL d   1     -46.469  13.846  22.821  0.00  0.00     0.289 A 
ATOM      9  C   UNL d   1     -47.228  12.664  22.474  0.00  0.00     0.187 A 
ATOM     10  O   UNL d   1     -45.753  14.186  23.048  0.00  0.00    -0.265 OA
ENDROOT
BRANCH   7  11
ATOM     11  C   UNL d   1     -45.852  12.547  22.809  0.00  0.00     0.146 C 
BRANCH  11  12
ATOM     12  C   UNL d   1     -45.887  11.835  23.212  0.00  0.00     0.283 C 
ATOM     13  N   UNL d   1     -45.232  11.323  23.250  0.00  0.00    -0.272 N 
ATOM     14  C   UNL d   1     -44.524  11.538  22.869  0.00  0.00     0.067 A 
ATOM     15  C   UNL d   1     -45.283  10.622  23.653  0.00  0.00     0.083 A 
ATOM     16  C   UNL d   1     -43.868  11.025  22.907  0.00  0.00     0.016 A 
ATOM     17  C   UNL d   1     -44.464  12.244  22.460  0.00  0.00     0.018 A 
ATOM     18  C   UNL d   1     -43.160  11.241  22.526  0.00  0.00     0.001 A 
ATOM     19  C   UNL d   1     -43.935  10.328  23.314  0.00  0.00     0.003 A 
ATOM     20  C   UNL d   1     -43.108  11.948  22.118  0.00  0.00     0.000 A 
ATOM     21  C   UNL d   1     -43.763  12.461  22.081  0.00  0.00     0.002 A 
ATOM     22  C   UNL d   1     -44.629  10.108  23.691  0.00  0.00     0.019 A 
ATOM     23  O   UNL d   1     -46.596  11.620  23.593  0.00  0.00    -0.265 OA
ENDBRANCH  11  12
ENDBRANCH   7  11
BRANCH   3  24
ATOM     24  C   UNL d   1     -49.202  14.457  22.205  0.00  0.00     0.104 C 
BRANCH  24  25
ATOM     25  C   UNL d   1     -49.797  14.720  22.688  0.00  0.00     0.019 A 
ATOM     26  C   UNL d   1     -50.273  14.181  23.092  0.00  0.00     0.002 A 
ATOM     27  C   UNL d   1     -50.868  14.452  23.575  0.00  0.00     0.000 A 
ATOM     28  C   UNL d   1     -51.005  15.256  23.669  0.00  0.00     0.000 A 
ATOM     29  C   UNL d   1     -50.529  15.795  23.265  0.00  0.00     0.000 A 
ATOM     30  C   UNL d   1     -49.934  15.532  22.782  0.00  0.00     0.002 A 
ENDBRANCH  24  25
ENDBRANCH   3  24
TORSDOF 4
ENDMDL
MODEL 4
REMARK VINA RESULT:      -7.3      1.846      2.495
REMARK  4 active torsions:
REMARK  status: ('A' for Active; 'I' for Inactive)
REMARK    1  A    between atoms: C_14  and  N_3 
REMARK    2  A    between atoms: C_13  and  N_7 
REMARK       I    between atoms: N_9  and  C_10 
REMARK    3  A    between atoms: C_10  and  C_13 
REMARK    4  A    between atoms: C_19  and  C_14 
ROOT
ATOM      1  C   UNL d   1     -45.617  12.916  21.995  0.00  0.00     0.191 A 
ATOM      2  C   UNL d   1     -45.863  12.587  22.710  0.00  0.00     0.196 A 
ATOM      3  N   UNL d   1     -44.834  12.710  21.876  0.00  0.00    -0.191 N 
ATOM      4  N   UNL d   1     -46.150  13.369  21.539  0.00  0.00    -0.204 NA
ATOM      5  N   UNL d   1     -45.217  12.176  23.026  0.00  0.00    -0.122 NA
ATOM      6  N   UNL d   1     -44.586  12.257  22.505  0.00  0.00    -0.058 NA
ATOM      7  N   UNL d   1     -47.165  13.146  22.533  0.00  0.00    -0.249 N 
ATOM      8  C   UNL d   1     -46.626  12.695  22.983  0.00  0.00     0.289 A 
ATOM      9  C   UNL d   1     -46.930  13.485  21.809  0.00  0.00     0.187 A 
ATOM     10  O   UNL d   1     -46.872  12.366  23.698  0.00  0.00    -0.265 OA
ENDROOT
BRANCH   7  11
ATOM     11  C   UNL d   1     -47.933  13.265  22.792  0.00  0.00     0.146 C 
BRANCH  11  12
ATOM     12  C   UNL d   1     -48.245  14.014  22.899  0.00  0.00     0.283 C 
ATOM     13  N   UNL d   1     -49.064  14.135  22.994  0.00  0.00    -0.272 N 
ATOM     14  C   UNL d   1     -49.576  13.480  22.980  0.00  0.00     0.067 A 
ATOM     15  C   UNL d   1     -49.357  14.883  23.100  0.00  0.00     0.083 A 
ATOM     16  C   UNL d   1     -50.395  13.601  23.075  0.00  0.00     0.016 A 
ATOM     17  C   UNL d   1     -49.288  12.722  22.874  0.00  0.00     0.018 A 
ATOM     18  C   UNL d   1     -50.909  12.946  23.061  0.00  0.00     0.001 A 
ATOM     19  C   UNL d   1     -50.674  14.355  23.180  0.00  0.00     0.003 A 
ATOM     20  C   UNL d   1     -50.613  12.191  22.955  0.00  0.00     0.000 A 
ATOM     21  C   UNL d   1     -49.794  12.069  22.860  0.00  0.00     0.002 A 
ATOM     22  C   UNL d   1     -50.175  15.006  23.195  0.00  0.00     0.019 A 
ATOM     23  O   UNL d   1     -47.731  14.670  22.913  0.00  0.00    -0.265 OA
ENDBRANCH  11  12
ENDBRANCH   7  11
BRANCH   3  24
ATOM     24  C   UNL d   1     -44.374  12.929  21.223  0.00  0.00     0.104 C 
BRANCH  24  25
ATOM     25  C   UNL d   1     -43.578  13.058  21.305  0.00  0.00     0.019 A 
ATOM     26  C   UNL d   1     -43.278  13.826  21.284  0.00  0.00     0.002 A 
ATOM     27  C   UNL d   1     -42.478  13.948  21.368  0.00  0.00     0.000 A 
ATOM     28  C   UNL d   1     -41.962  13.319  21.472  0.00  0.00     0.000 A 
ATOM     29  C   UNL d   1     -42.263  12.551  21.493  0.00  0.00     0.000 A 
ATOM     30  C   UNL d   1     -43.059  12.422  21.411  0.00  0.00     0.002 A 
ENDBRANCH  24  25
ENDBRANCH   3  24
TORSDOF 4
ENDMDL
