MODEL 1
REMARK VINA RESULT:      11.2      0.000      0.000
REMARK  4 active torsions:
REMARK  status: ('A' for Active; 'I' for Inactive)
REMARK    1  A    between atoms: C_5  and  C_4 
REMARK    2  A    between atoms: C_6  and  C_5 
REMARK       I    between atoms: N_11  and  C_6 
REMARK    3  A    between atoms: C_9  and  C_10 
REMARK    4  A    between atoms: C_14  and  N_11 
ROOT
ATOM      1  C   UNL d   1      46.212 -17.721  44.623  0.00  0.00     0.074 C 
ENDROOT
BRANCH   1   2
ATOM      2  C   UNL d   1      46.315 -18.247  44.013  0.00  0.00     0.092 A 
ATOM      3  C   UNL d   1      46.402 -19.056  44.180  0.00  0.00     0.285 A 
ATOM      4  N   UNL d   1      46.507 -19.601  43.558  0.00  0.00    -0.207 NA
ATOM      5  O   UNL d   1      46.385 -19.326  44.955  0.00  0.00    -0.265 OA
ATOM      6  C   UNL d   1      46.523 -19.330  42.793  0.00  0.00     0.091 A 
ATOM      7  C   UNL d   1      46.436 -18.520  42.626  0.00  0.00     0.047 A 
ATOM      8  C   UNL d   1      46.629 -19.876  42.168  0.00  0.00     0.020 A 
ATOM      9  S   UNL d   1      46.335 -17.996  43.226  0.00  0.00    -0.080 SA
ATOM     10  C   UNL d   1      46.456 -18.275  41.848  0.00  0.00     0.008 A 
ATOM     11  C   UNL d   1      46.560 -18.799  41.215  0.00  0.00     0.001 A 
ATOM     12  C   UNL d   1      46.647 -19.608  41.382  0.00  0.00     0.002 A 
ENDBRANCH   1   2
BRANCH   1  13
ATOM     13  C   UNL d   1      45.802 -17.030  44.514  0.00  0.00     0.280 C 
ATOM     14  N   UNL d   1      46.012 -16.352  44.925  0.00  0.00    -0.208 NA
ATOM     15  O   UNL d   1      45.174 -17.013  43.991  0.00  0.00    -0.265 OA
BRANCH  14  16
ATOM     16  C   UNL d   1      45.594 -15.658  44.810  0.00  0.00     0.085 A 
ATOM     17  C   UNL d   1      45.981 -14.971  44.546  0.00  0.00     0.025 A 
ATOM     18  C   UNL d   1      45.546 -14.287  44.437  0.00  0.00     0.066 A 
ATOM     19  C   UNL d   1      44.769 -14.266  44.576  0.00  0.00     0.006 A 
ATOM     20  C   UNL d   1      44.357 -14.944  44.842  0.00  0.00     0.002 A 
ATOM     21  C   UNL d   1      44.790 -15.637  44.954  0.00  0.00     0.019 A 
BRANCH  18  22
ATOM     22  C   UNL d   1      45.893 -13.602  44.181  0.00  0.00     0.211 C 
ATOM     23  O   UNL d   1      45.590 -13.166  43.555  0.00  0.00    -0.644 OA
ATOM     24  O   UNL d   1      46.570 -13.355  44.575  0.00  0.00    -0.644 OA
ENDBRANCH  18  22
ENDBRANCH  14  16
ENDBRANCH   1  13
TORSDOF 4
ENDMDL
