MODEL 1
REMARK VINA RESULT:      -5.7      0.000      0.000
REMARK  4 active torsions:
REMARK  status: ('A' for Active; 'I' for Inactive)
REMARK    1  A    between atoms: C_2  and  C_1 
REMARK    2  A    between atoms: N_13  and  C_6 
REMARK    3  A    between atoms: N_12  and  N_13 
REMARK    4  A    between atoms: C_15  and  N_12 
ROOT
ATOM      1  C   UNL d   1     -41.638-122.374 -52.041  0.00  0.00     0.095 A 
ATOM      2  N   UNL d   1     -42.025-122.778 -51.419  0.00  0.00    -0.219 NA
ATOM      3  C   UNL d   1     -41.804-122.409 -50.725  0.00  0.00     0.215 A 
ATOM      4  S   UNL d   1     -41.292-121.786 -50.880  0.00  0.00    -0.045 SA
ATOM      5  C   UNL d   1     -41.196-121.773 -51.692  0.00  0.00     0.058 A 
ENDROOT
BRANCH   1   6
ATOM      6  C   UNL d   1     -41.656-122.505 -52.867  0.00  0.00     0.082 A 
ATOM      7  C   UNL d   1     -41.402-123.222 -53.162  0.00  0.00     0.302 A 
ATOM      8  O   UNL d   1     -41.411-123.380 -53.999  0.00  0.00    -0.273 OA
ATOM      9  O   UNL d   1     -41.123-123.817 -52.603  0.00  0.00    -0.259 OA
ATOM     10  C   UNL d   1     -41.693-122.768 -54.519  0.00  0.00     0.103 A 
ATOM     11  C   UNL d   1     -41.948-122.051 -54.225  0.00  0.00     0.023 A 
ATOM     12  C   UNL d   1     -41.696-122.936 -55.328  0.00  0.00     0.025 A 
ATOM     13  C   UNL d   1     -41.930-121.920 -53.399  0.00  0.00     0.009 A 
ATOM     14  C   UNL d   1     -42.215-121.475 -54.728  0.00  0.00     0.002 A 
ATOM     15  C   UNL d   1     -42.234-121.606 -55.554  0.00  0.00     0.000 A 
ATOM     16  C   UNL d   1     -41.979-122.323 -55.849  0.00  0.00     0.002 A 
ENDBRANCH   1   6
BRANCH   3  17
ATOM     17  N   UNL d   1     -42.085-122.661 -49.958  0.00  0.00    -0.122 NA
BRANCH  17  18
ATOM     18  N   UNL d   1     -41.527-122.988 -49.435  0.00  0.00    -0.146 NA
BRANCH  18  19
ATOM     19  C   UNL d   1     -41.720-123.178 -48.659  0.00  0.00     0.103 A 
ATOM     20  C   UNL d   1     -41.219-122.921 -48.041  0.00  0.00     0.021 A 
ATOM     21  C   UNL d   1     -41.416-123.115 -47.248  0.00  0.00     0.002 A 
ATOM     22  C   UNL d   1     -42.101-123.555 -47.119  0.00  0.00     0.000 A 
ATOM     23  C   UNL d   1     -42.577-123.797 -47.728  0.00  0.00     0.002 A 
ATOM     24  C   UNL d   1     -42.386-123.608 -48.499  0.00  0.00     0.021 A 
ENDBRANCH  18  19
ENDBRANCH  17  18
ENDBRANCH   3  17
TORSDOF 4
ENDMDL
