MODEL 1
REMARK VINA RESULT:       8.8      0.000      0.000
REMARK  3 active torsions:
REMARK  status: ('A' for Active; 'I' for Inactive)
REMARK    1  A    between atoms: C_2  and  O_1 
REMARK    2  A    between atoms: C_5  and  O_1 
REMARK    3  A    between atoms: C_10  and  C_5 
ROOT
ATOM      1  O   UNL d   1      13.203  12.380  -2.725  0.00  0.00    -0.305 OA
ENDROOT
BRANCH   1   2
ATOM      2  C   UNL d   1      13.176  12.396  -3.558  0.00  0.00     0.100 A 
ATOM      3  C   UNL d   1      12.808  11.779  -3.988  0.00  0.00     0.026 A 
ATOM      4  C   UNL d   1      12.787  11.806  -4.812  0.00  0.00     0.023 A 
ATOM      5  C   UNL d   1      13.129  12.441  -5.212  0.00  0.00     0.103 A 
ATOM      6  C   UNL d   1      13.506  13.074  -4.770  0.00  0.00     0.023 A 
ATOM      7  N   UNL d   1      13.113  12.477  -6.052  0.00  0.00    -0.148 N 
ATOM      8  C   UNL d   1      13.518  13.032  -3.958  0.00  0.00     0.026 A 
ENDBRANCH   1   2
BRANCH   1   9
ATOM      9  C   UNL d   1      13.620  11.783  -2.344  0.00  0.00     0.122 C 
BRANCH   9  10
ATOM     10  C   UNL d   1      13.898  11.930  -1.563  0.00  0.00     0.025 A 
ATOM     11  C   UNL d   1      13.391  11.786  -0.913  0.00  0.00     0.002 A 
ATOM     12  C   UNL d   1      13.656  11.928  -0.144  0.00  0.00     0.000 A 
ATOM     13  C   UNL d   1      14.442  12.219  -0.023  0.00  0.00     0.000 A 
ATOM     14  C   UNL d   1      14.926  12.355  -0.669  0.00  0.00     0.000 A 
ATOM     15  C   UNL d   1      14.662  12.214  -1.437  0.00  0.00     0.002 A 
ENDBRANCH   9  10
ENDBRANCH   1   9
TORSDOF 3
ENDMDL
