MODEL 1
REMARK VINA RESULT:      -8.2      0.000      0.000
REMARK  6 active torsions:
REMARK  status: ('A' for Active; 'I' for Inactive)
REMARK    1  A    between atoms: C_13  and  C_3 
REMARK    2  A    between atoms: N_16  and  C_4 
REMARK    3  A    between atoms: N_11  and  C_17 
REMARK    4  A    between atoms: C_20  and  N_16 
REMARK    5  A    between atoms: C_17  and  C_18 
REMARK    6  A    between atoms: C_18  and  C_20 
ROOT
ATOM      1  C   UNL d   1      52.622  33.943  53.728  0.00  0.00     0.167 A 
ATOM      2  N   UNL d   1      52.035  34.443  53.437  0.00  0.00    -0.195 N 
ATOM      3  C   UNL d   1      53.156  34.400  54.146  0.00  0.00     0.057 A 
ATOM      4  C   UNL d   1      51.416  34.135  52.989  0.00  0.00     0.167 A 
ATOM      5  N   UNL d   1      52.211  35.205  53.679  0.00  0.00    -0.161 NA
ATOM      6  N   UNL d   1      52.590  33.135  53.571  0.00  0.00    -0.227 NA
ATOM      7  C   UNL d   1      51.386  33.322  52.833  0.00  0.00     0.058 A 
ATOM      8  C   UNL d   1      52.896  35.183  54.112  0.00  0.00     0.124 A 
ATOM      9  C   UNL d   1      51.967  32.828  53.120  0.00  0.00     0.086 A 
ATOM     10  C   UNL d   1      51.917  32.021  52.952  0.00  0.00     0.021 C 
ENDROOT
BRANCH   4  11
ATOM     11  N   UNL d   1      50.829  34.635  52.699  0.00  0.00    -0.225 NA
BRANCH  11  12
ATOM     12  C   UNL d   1      50.035  34.446  52.809  0.00  0.00     0.102 C 
BRANCH  12  13
ATOM     13  C   UNL d   1      49.443  34.905  52.445  0.00  0.00     0.040 C 
BRANCH  13  14
ATOM     14  C   UNL d   1      48.828  35.209  52.895  0.00  0.00     0.083 C 
BRANCH  14  15
ATOM     15  N   UNL d   1      48.192  35.587  52.522  0.00  0.00    -0.285 N 
ATOM     16  C   UNL d   1      47.865  35.520  51.758  0.00  0.00     0.183 A 
ATOM     17  N   UNL d   1      47.240  36.035  51.705  0.00  0.00    -0.222 NA
ATOM     18  C   UNL d   1      47.160  36.430  52.418  0.00  0.00     0.120 A 
ATOM     19  C   UNL d   1      47.750  36.154  52.926  0.00  0.00     0.102 A 
ENDBRANCH  14  15
ENDBRANCH  13  14
ENDBRANCH  12  13
ENDBRANCH  11  12
ENDBRANCH   4  11
BRANCH   3  20
ATOM     20  C   UNL d   1      53.815  34.055  54.509  0.00  0.00     0.004 A 
ATOM     21  C   UNL d   1      54.540  34.048  54.109  0.00  0.00     0.000 A 
ATOM     22  C   UNL d   1      55.197  33.707  54.463  0.00  0.00     0.000 A 
ATOM     23  C   UNL d   1      55.136  33.369  55.222  0.00  0.00     0.000 A 
ATOM     24  C   UNL d   1      54.411  33.381  55.612  0.00  0.00     0.000 A 
ATOM     25  C   UNL d   1      53.751  33.725  55.254  0.00  0.00     0.000 A 
ENDBRANCH   3  20
TORSDOF 6
ENDMDL
MODEL 2
REMARK VINA RESULT:      -7.1      2.074      3.317
REMARK  6 active torsions:
REMARK  status: ('A' for Active; 'I' for Inactive)
REMARK    1  A    between atoms: C_13  and  C_3 
REMARK    2  A    between atoms: N_16  and  C_4 
REMARK    3  A    between atoms: N_11  and  C_17 
REMARK    4  A    between atoms: C_20  and  N_16 
REMARK    5  A    between atoms: C_17  and  C_18 
REMARK    6  A    between atoms: C_18  and  C_20 
ROOT
ATOM      1  C   UNL d   1      53.185  31.327  53.627  0.00  0.00     0.167 A 
ATOM      2  N   UNL d   1      52.819  31.842  53.098  0.00  0.00    -0.195 N 
ATOM      3  C   UNL d   1      52.992  30.563  53.408  0.00  0.00     0.057 A 
ATOM      4  C   UNL d   1      52.915  32.656  53.182  0.00  0.00     0.167 A 
ATOM      5  N   UNL d   1      52.404  31.391  52.556  0.00  0.00    -0.161 NA
ATOM      6  N   UNL d   1      53.646  31.626  54.241  0.00  0.00    -0.227 NA
ATOM      7  C   UNL d   1      53.379  32.954  53.800  0.00  0.00     0.058 A 
ATOM      8  C   UNL d   1      52.507  30.609  52.742  0.00  0.00     0.124 A 
ATOM      9  C   UNL d   1      53.741  32.444  54.324  0.00  0.00     0.086 A 
ATOM     10  C   UNL d   1      54.199  32.765  54.932  0.00  0.00     0.021 C 
ENDROOT
BRANCH   4  11
ATOM     11  N   UNL d   1      52.550  33.171  52.652  0.00  0.00    -0.225 NA
BRANCH  11  12
ATOM     12  C   UNL d   1      52.070  33.778  52.933  0.00  0.00     0.102 C 
BRANCH  12  13
ATOM     13  C   UNL d   1      51.448  34.069  52.462  0.00  0.00     0.040 C 
BRANCH  13  14
ATOM     14  C   UNL d   1      50.807  34.441  52.816  0.00  0.00     0.083 C 
BRANCH  14  15
ATOM     15  N   UNL d   1      50.104  34.547  52.389  0.00  0.00    -0.285 N 
ATOM     16  C   UNL d   1      49.876  34.332  51.617  0.00  0.00     0.183 A 
ATOM     17  N   UNL d   1      49.113  34.583  51.500  0.00  0.00    -0.222 NA
ATOM     18  C   UNL d   1      48.848  34.953  52.183  0.00  0.00     0.120 A 
ATOM     19  C   UNL d   1      49.462  34.931  52.735  0.00  0.00     0.102 A 
ENDBRANCH  14  15
ENDBRANCH  13  14
ENDBRANCH  12  13
ENDBRANCH  11  12
ENDBRANCH   4  11
BRANCH   3  20
ATOM     20  C   UNL d   1      53.278  29.915  53.836  0.00  0.00     0.004 A 
ATOM     21  C   UNL d   1      52.842  29.631  54.480  0.00  0.00     0.000 A 
ATOM     22  C   UNL d   1      53.119  28.989  54.910  0.00  0.00     0.000 A 
ATOM     23  C   UNL d   1      53.838  28.624  54.699  0.00  0.00     0.000 A 
ATOM     24  C   UNL d   1      54.264  28.914  54.057  0.00  0.00     0.000 A 
ATOM     25  C   UNL d   1      53.983  29.560  53.626  0.00  0.00     0.000 A 
ENDBRANCH   3  20
TORSDOF 6
ENDMDL
MODEL 3
REMARK VINA RESULT:      -7.1      0.919      1.557
REMARK  6 active torsions:
REMARK  status: ('A' for Active; 'I' for Inactive)
REMARK    1  A    between atoms: C_13  and  C_3 
REMARK    2  A    between atoms: N_16  and  C_4 
REMARK    3  A    between atoms: N_11  and  C_17 
REMARK    4  A    between atoms: C_20  and  N_16 
REMARK    5  A    between atoms: C_17  and  C_18 
REMARK    6  A    between atoms: C_18  and  C_20 
ROOT
ATOM      1  C   UNL d   1      52.424  33.676  53.504  0.00  0.00     0.167 A 
ATOM      2  N   UNL d   1      51.714  33.600  53.092  0.00  0.00    -0.195 N 
ATOM      3  C   UNL d   1      52.822  32.962  53.452  0.00  0.00     0.057 A 
ATOM      4  C   UNL d   1      51.193  34.236  53.049  0.00  0.00     0.167 A 
ATOM      5  N   UNL d   1      51.680  32.840  52.790  0.00  0.00    -0.161 NA
ATOM      6  N   UNL d   1      52.613  34.388  53.872  0.00  0.00    -0.227 NA
ATOM      7  C   UNL d   1      51.386  34.952  53.420  0.00  0.00     0.058 A 
ATOM      8  C   UNL d   1      52.355  32.448  53.007  0.00  0.00     0.124 A 
ATOM      9  C   UNL d   1      52.088  35.026  53.828  0.00  0.00     0.086 A 
ATOM     10  C   UNL d   1      52.258  35.749  54.190  0.00  0.00     0.021 C 
ENDROOT
BRANCH   4  11
ATOM     11  N   UNL d   1      50.484  34.161  52.637  0.00  0.00    -0.225 NA
BRANCH  11  12
ATOM     12  C   UNL d   1      49.881  34.710  52.750  0.00  0.00     0.102 C 
BRANCH  12  13
ATOM     13  C   UNL d   1      49.231  34.729  52.230  0.00  0.00     0.040 C 
BRANCH  13  14
ATOM     14  C   UNL d   1      48.667  35.320  52.303  0.00  0.00     0.083 C 
BRANCH  14  15
ATOM     15  N   UNL d   1      47.994  35.311  51.819  0.00  0.00    -0.285 N 
ATOM     16  C   UNL d   1      47.819  34.918  51.104  0.00  0.00     0.183 A 
ATOM     17  N   UNL d   1      47.065  35.120  50.883  0.00  0.00    -0.222 NA
ATOM     18  C   UNL d   1      46.754  35.634  51.441  0.00  0.00     0.120 A 
ATOM     19  C   UNL d   1      47.329  35.753  52.022  0.00  0.00     0.102 A 
ENDBRANCH  14  15
ENDBRANCH  13  14
ENDBRANCH  12  13
ENDBRANCH  11  12
ENDBRANCH   4  11
BRANCH   3  20
ATOM     20  C   UNL d   1      53.560  32.862  53.813  0.00  0.00     0.004 A 
ATOM     21  C   UNL d   1      54.247  32.952  53.361  0.00  0.00     0.000 A 
ATOM     22  C   UNL d   1      54.982  32.855  53.713  0.00  0.00     0.000 A 
ATOM     23  C   UNL d   1      55.037  32.666  54.522  0.00  0.00     0.000 A 
ATOM     24  C   UNL d   1      54.348  32.579  54.964  0.00  0.00     0.000 A 
ATOM     25  C   UNL d   1      53.609  32.678  54.608  0.00  0.00     0.000 A 
ENDBRANCH   3  20
TORSDOF 6
ENDMDL
MODEL 4
REMARK VINA RESULT:      -6.2      1.215      5.957
REMARK  6 active torsions:
REMARK  status: ('A' for Active; 'I' for Inactive)
REMARK    1  A    between atoms: C_13  and  C_3 
REMARK    2  A    between atoms: N_16  and  C_4 
REMARK    3  A    between atoms: N_11  and  C_17 
REMARK    4  A    between atoms: C_20  and  N_16 
REMARK    5  A    between atoms: C_17  and  C_18 
REMARK    6  A    between atoms: C_18  and  C_20 
ROOT
ATOM      1  C   UNL d   1      48.433  35.315  52.527  0.00  0.00     0.167 A 
ATOM      2  N   UNL d   1      49.154  35.213  52.913  0.00  0.00    -0.195 N 
ATOM      3  C   UNL d   1      47.948  35.759  53.015  0.00  0.00     0.057 A 
ATOM      4  C   UNL d   1      49.757  34.784  52.552  0.00  0.00     0.167 A 
ATOM      5  N   UNL d   1      49.108  35.596  53.635  0.00  0.00    -0.161 NA
ATOM      6  N   UNL d   1      48.315  34.987  51.781  0.00  0.00    -0.227 NA
ATOM      7  C   UNL d   1      49.635  34.455  51.802  0.00  0.00     0.058 A 
ATOM      8  C   UNL d   1      48.373  35.931  53.701  0.00  0.00     0.124 A 
ATOM      9  C   UNL d   1      48.922  34.555  51.420  0.00  0.00     0.086 A 
ATOM     10  C   UNL d   1      48.824  34.218  50.673  0.00  0.00     0.021 C 
ENDROOT
BRANCH   4  11
ATOM     11  N   UNL d   1      50.478  34.683  52.938  0.00  0.00    -0.225 NA
BRANCH  11  12
ATOM     12  C   UNL d   1      50.961  34.043  52.748  0.00  0.00     0.102 C 
BRANCH  12  13
ATOM     13  C   UNL d   1      51.664  33.911  53.174  0.00  0.00     0.040 C 
BRANCH  13  14
ATOM     14  C   UNL d   1      52.200  33.348  52.911  0.00  0.00     0.083 C 
BRANCH  14  15
ATOM     15  N   UNL d   1      52.807  33.090  53.413  0.00  0.00    -0.285 N 
ATOM     16  C   UNL d   1      53.227  33.464  54.029  0.00  0.00     0.183 A 
ATOM     17  N   UNL d   1      53.764  32.933  54.327  0.00  0.00    -0.222 NA
ATOM     18  C   UNL d   1      53.695  32.228  53.916  0.00  0.00     0.120 A 
ATOM     19  C   UNL d   1      53.103  32.323  53.349  0.00  0.00     0.102 A 
ENDBRANCH  14  15
ENDBRANCH  13  14
ENDBRANCH  12  13
ENDBRANCH  11  12
ENDBRANCH   4  11
BRANCH   3  20
ATOM     20  C   UNL d   1      47.179  35.956  52.780  0.00  0.00     0.004 A 
ATOM     21  C   UNL d   1      46.536  35.582  53.144  0.00  0.00     0.000 A 
ATOM     22  C   UNL d   1      45.771  35.772  52.916  0.00  0.00     0.000 A 
ATOM     23  C   UNL d   1      45.641  36.340  52.320  0.00  0.00     0.000 A 
ATOM     24  C   UNL d   1      46.287  36.707  51.964  0.00  0.00     0.000 A 
ATOM     25  C   UNL d   1      47.056  36.514  52.196  0.00  0.00     0.000 A 
ENDBRANCH   3  20
TORSDOF 6
ENDMDL
MODEL 5
REMARK VINA RESULT:      -5.5     10.771     12.122
REMARK  6 active torsions:
REMARK  status: ('A' for Active; 'I' for Inactive)
REMARK    1  A    between atoms: C_13  and  C_3 
REMARK    2  A    between atoms: N_16  and  C_4 
REMARK    3  A    between atoms: N_11  and  C_17 
REMARK    4  A    between atoms: C_20  and  N_16 
REMARK    5  A    between atoms: C_17  and  C_18 
REMARK    6  A    between atoms: C_18  and  C_20 
ROOT
ATOM      1  C   UNL d   1      44.841  28.214  58.402  0.00  0.00     0.167 A 
ATOM      2  N   UNL d   1      44.935  27.458  58.089  0.00  0.00    -0.195 N 
ATOM      3  C   UNL d   1      44.986  28.753  57.804  0.00  0.00     0.057 A 
ATOM      4  C   UNL d   1      44.823  26.797  58.567  0.00  0.00     0.167 A 
ATOM      5  N   UNL d   1      45.138  27.536  57.300  0.00  0.00    -0.161 NA
ATOM      6  N   UNL d   1      44.634  28.309  59.194  0.00  0.00    -0.227 NA
ATOM      7  C   UNL d   1      44.616  26.895  59.363  0.00  0.00     0.058 A 
ATOM      8  C   UNL d   1      45.170  28.326  57.122  0.00  0.00     0.124 A 
ATOM      9  C   UNL d   1      44.522  27.643  59.673  0.00  0.00     0.086 A 
ATOM     10  C   UNL d   1      44.315  27.717  60.469  0.00  0.00     0.021 C 
ENDROOT
BRANCH   4  11
ATOM     11  N   UNL d   1      44.918  26.040  58.254  0.00  0.00    -0.225 NA
BRANCH  11  12
ATOM     12  C   UNL d   1      44.655  25.384  58.676  0.00  0.00     0.102 C 
BRANCH  12  13
ATOM     13  C   UNL d   1      44.756  24.619  58.362  0.00  0.00     0.040 C 
BRANCH  13  14
ATOM     14  C   UNL d   1      44.428  23.973  58.748  0.00  0.00     0.083 C 
BRANCH  14  15
ATOM     15  N   UNL d   1      44.700  23.209  58.576  0.00  0.00    -0.285 N 
ATOM     16  C   UNL d   1      45.079  22.882  57.909  0.00  0.00     0.183 A 
ATOM     17  N   UNL d   1      45.214  22.095  58.056  0.00  0.00    -0.222 NA
ATOM     18  C   UNL d   1      44.929  21.912  58.803  0.00  0.00     0.120 A 
ATOM     19  C   UNL d   1      44.610  22.602  59.126  0.00  0.00     0.102 A 
ENDBRANCH  14  15
ENDBRANCH  13  14
ENDBRANCH  12  13
ENDBRANCH  11  12
ENDBRANCH   4  11
BRANCH   3  20
ATOM     20  C   UNL d   1      44.935  29.567  57.947  0.00  0.00     0.004 A 
ATOM     21  C   UNL d   1      44.371  30.015  57.538  0.00  0.00     0.000 A 
ATOM     22  C   UNL d   1      44.315  30.822  57.675  0.00  0.00     0.000 A 
ATOM     23  C   UNL d   1      44.822  31.190  58.223  0.00  0.00     0.000 A 
ATOM     24  C   UNL d   1      45.379  30.736  58.625  0.00  0.00     0.000 A 
ATOM     25  C   UNL d   1      45.434  29.924  58.486  0.00  0.00     0.000 A 
ENDBRANCH   3  20
TORSDOF 6
ENDMDL
MODEL 6
REMARK VINA RESULT:      -5.4     10.027     11.290
REMARK  6 active torsions:
REMARK  status: ('A' for Active; 'I' for Inactive)
REMARK    1  A    between atoms: C_13  and  C_3 
REMARK    2  A    between atoms: N_16  and  C_4 
REMARK    3  A    between atoms: N_11  and  C_17 
REMARK    4  A    between atoms: C_20  and  N_16 
REMARK    5  A    between atoms: C_17  and  C_18 
REMARK    6  A    between atoms: C_18  and  C_20 
ROOT
ATOM      1  C   UNL d   1      44.804  28.323  57.857  0.00  0.00     0.167 A 
ATOM      2  N   UNL d   1      44.853  27.862  57.176  0.00  0.00    -0.195 N 
ATOM      3  C   UNL d   1      44.946  29.101  57.644  0.00  0.00     0.057 A 
ATOM      4  C   UNL d   1      44.734  27.048  57.221  0.00  0.00     0.167 A 
ATOM      5  N   UNL d   1      45.025  28.358  56.549  0.00  0.00    -0.161 NA
ATOM      6  N   UNL d   1      44.636  27.971  58.582  0.00  0.00    -0.227 NA
ATOM      7  C   UNL d   1      44.565  26.696  57.952  0.00  0.00     0.058 A 
ATOM      8  C   UNL d   1      45.082  29.116  56.830  0.00  0.00     0.124 A 
ATOM      9  C   UNL d   1      44.516  27.153  58.625  0.00  0.00     0.086 A 
ATOM     10  C   UNL d   1      44.347  26.780  59.343  0.00  0.00     0.021 C 
ENDROOT
BRANCH   4  11
ATOM     11  N   UNL d   1      44.783  26.586  56.540  0.00  0.00    -0.225 NA
BRANCH  11  12
ATOM     12  C   UNL d   1      44.666  25.772  56.585  0.00  0.00     0.102 C 
BRANCH  12  13
ATOM     13  C   UNL d   1      44.710  25.306  55.896  0.00  0.00     0.040 C 
BRANCH  13  14
ATOM     14  C   UNL d   1      44.737  24.489  55.958  0.00  0.00     0.083 C 
BRANCH  14  15
ATOM     15  N   UNL d   1      44.768  24.024  55.272  0.00  0.00    -0.285 N 
ATOM     16  C   UNL d   1      44.628  24.196  54.468  0.00  0.00     0.183 A 
ATOM     17  N   UNL d   1      44.744  23.515  54.041  0.00  0.00    -0.222 NA
ATOM     18  C   UNL d   1      44.956  22.913  54.555  0.00  0.00     0.120 A 
ATOM     19  C   UNL d   1      44.971  23.226  55.318  0.00  0.00     0.102 A 
ENDBRANCH  14  15
ENDBRANCH  13  14
ENDBRANCH  12  13
ENDBRANCH  11  12
ENDBRANCH   4  11
BRANCH   3  20
ATOM     20  C   UNL d   1      44.934  29.703  58.211  0.00  0.00     0.004 A 
ATOM     21  C   UNL d   1      44.332  30.270  58.187  0.00  0.00     0.000 A 
ATOM     22  C   UNL d   1      44.315  30.871  58.747  0.00  0.00     0.000 A 
ATOM     23  C   UNL d   1      44.901  30.910  59.337  0.00  0.00     0.000 A 
ATOM     24  C   UNL d   1      45.496  30.341  59.353  0.00  0.00     0.000 A 
ATOM     25  C   UNL d   1      45.511  29.738  58.789  0.00  0.00     0.000 A 
ENDBRANCH   3  20
TORSDOF 6
ENDMDL
MODEL 7
REMARK VINA RESULT:      -5.3      2.419      5.087
REMARK  6 active torsions:
REMARK  status: ('A' for Active; 'I' for Inactive)
REMARK    1  A    between atoms: C_13  and  C_3 
REMARK    2  A    between atoms: N_16  and  C_4 
REMARK    3  A    between atoms: N_11  and  C_17 
REMARK    4  A    between atoms: C_20  and  N_16 
REMARK    5  A    between atoms: C_17  and  C_18 
REMARK    6  A    between atoms: C_18  and  C_20 
ROOT
ATOM      1  C   UNL d   1      52.907  33.414  53.609  0.00  0.00     0.167 A 
ATOM      2  N   UNL d   1      53.215  32.695  53.348  0.00  0.00    -0.195 N 
ATOM      3  C   UNL d   1      53.518  33.842  53.945  0.00  0.00     0.057 A 
ATOM      4  C   UNL d   1      52.724  32.144  52.983  0.00  0.00     0.167 A 
ATOM      5  N   UNL d   1      54.014  32.686  53.526  0.00  0.00    -0.161 NA
ATOM      6  N   UNL d   1      52.108  33.581  53.504  0.00  0.00    -0.227 NA
ATOM      7  C   UNL d   1      51.920  32.315  52.879  0.00  0.00     0.058 A 
ATOM      8  C   UNL d   1      54.203  33.385  53.891  0.00  0.00     0.124 A 
ATOM      9  C   UNL d   1      51.615  33.026  53.136  0.00  0.00     0.086 A 
ATOM     10  C   UNL d   1      50.811  33.174  53.021  0.00  0.00     0.021 C 
ENDROOT
BRANCH   4  11
ATOM     11  N   UNL d   1      53.033  31.426  52.723  0.00  0.00    -0.225 NA
BRANCH  11  12
ATOM     12  C   UNL d   1      52.634  30.724  52.885  0.00  0.00     0.102 C 
BRANCH  12  13
ATOM     13  C   UNL d   1      53.054  30.063  53.170  0.00  0.00     0.040 C 
BRANCH  13  14
ATOM     14  C   UNL d   1      52.657  29.476  53.584  0.00  0.00     0.083 C 
BRANCH  14  15
ATOM     15  N   UNL d   1      53.049  29.057  54.183  0.00  0.00    -0.285 N 
ATOM     16  C   UNL d   1      53.651  28.481  54.167  0.00  0.00     0.183 A 
ATOM     17  N   UNL d   1      53.817  28.268  54.933  0.00  0.00    -0.222 NA
ATOM     18  C   UNL d   1      53.333  28.696  55.438  0.00  0.00     0.120 A 
ATOM     19  C   UNL d   1      52.857  29.186  54.975  0.00  0.00     0.102 A 
ENDBRANCH  14  15
ENDBRANCH  13  14
ENDBRANCH  12  13
ENDBRANCH  11  12
ENDBRANCH   4  11
BRANCH   3  20
ATOM     20  C   UNL d   1      53.383  34.595  54.261  0.00  0.00     0.004 A 
ATOM     21  C   UNL d   1      53.259  34.676  55.075  0.00  0.00     0.000 A 
ATOM     22  C   UNL d   1      53.124  35.420  55.395  0.00  0.00     0.000 A 
ATOM     23  C   UNL d   1      53.112  36.091  54.902  0.00  0.00     0.000 A 
ATOM     24  C   UNL d   1      53.236  36.000  54.093  0.00  0.00     0.000 A 
ATOM     25  C   UNL d   1      53.372  35.251  53.774  0.00  0.00     0.000 A 
ENDBRANCH   3  20
TORSDOF 6
ENDMDL
