MODEL 1
REMARK VINA RESULT:      23.7      0.000      0.000
REMARK  3 active torsions:
REMARK  status: ('A' for Active; 'I' for Inactive)
REMARK    1  A    between atoms: S_11  and  C_4 
REMARK    2  A    between atoms: C_14  and  S_11 
REMARK    3  A    between atoms: O_15  and  C_12 
ROOT
ATOM      1  N   UNL d   1     -54.303  23.379  35.542  0.00  0.00    -0.195 NA
ATOM      2  C   UNL d   1     -53.903  23.289  34.821  0.00  0.00     0.086 C 
ATOM      3  C   UNL d   1     -53.499  23.188  34.099  0.00  0.00     0.168 C 
ENDROOT
BRANCH   3   4
ATOM      4  S   UNL d   1     -53.485  23.810  33.527  0.00  0.00    -0.078 SA
BRANCH   4   5
ATOM      5  C   UNL d   1     -52.802  24.317  33.474  0.00  0.00     0.108 A 
ATOM      6  N   UNL d   1     -52.046  23.986  33.463  0.00  0.00    -0.239 NA
ATOM      7  C   UNL d   1     -51.403  24.488  33.411  0.00  0.00     0.084 A 
ATOM      8  C   UNL d   1     -51.503  25.294  33.371  0.00  0.00     0.018 A 
ATOM      9  C   UNL d   1     -50.648  24.157  33.400  0.00  0.00     0.043 A 
ATOM     10  C   UNL d   1     -52.251  25.635  33.381  0.00  0.00     0.004 A 
ATOM     11  C   UNL d   1     -50.853  25.806  33.318  0.00  0.00     0.004 A 
ATOM     12  C   UNL d   1     -52.902  25.123  33.433  0.00  0.00     0.025 A 
ATOM     13  C   UNL d   1     -52.351  26.442  33.340  0.00  0.00     0.000 C 
ATOM     14  C   UNL d   1     -50.087  25.467  33.307  0.00  0.00     0.024 A 
ATOM     15  C   UNL d   1     -49.987  24.661  33.347  0.00  0.00     0.096 A 
BRANCH  15  16
ATOM     16  O   UNL d   1     -49.227  24.330  33.337  0.00  0.00    -0.328 OA
ATOM     17  C   UNL d   1     -49.141  23.509  33.445  0.00  0.00     0.181 C 
ENDBRANCH  15  16
ENDBRANCH   4   5
ENDBRANCH   3   4
TORSDOF 3
ENDMDL
