MODEL 1
REMARK VINA RESULT:      -7.3      0.000      0.000
REMARK  9 active torsions:
REMARK  status: ('A' for Active; 'I' for Inactive)
REMARK    1  A    between atoms: C_10  and  N_1 
REMARK    2  A    between atoms: C_7  and  N_3 
REMARK    3  A    between atoms: C_8  and  C_7 
REMARK       I    between atoms: N_12  and  C_8 
REMARK    4  A    between atoms: C_13  and  C_10 
REMARK    5  A    between atoms: C_21  and  N_12 
REMARK    6  A    between atoms: C_28  and  N_12 
REMARK       I    between atoms: N_19  and  C_13 
REMARK    7  A    between atoms: C_17  and  C_26 
REMARK    8  A    between atoms: C_26  and  N_19 
REMARK    9  A    between atoms: C_27  and  C_21 
ROOT
ATOM      1  N   UNL d   1      52.368  34.002  53.060  0.00  0.00    -0.220 N 
ATOM      2  C   UNL d   1      52.630  33.239  52.889  0.00  0.00     0.342 A 
ATOM      3  N   UNL d   1      53.200  32.862  53.380  0.00  0.00    -0.254 N 
ATOM      4  C   UNL d   1      53.219  34.042  54.206  0.00  0.00     0.102 A 
ATOM      5  C   UNL d   1      52.664  34.394  53.715  0.00  0.00     0.276 A 
ATOM      6  C   UNL d   1      53.487  33.265  54.031  0.00  0.00     0.080 A 
ATOM      7  S   UNL d   1      53.613  34.305  54.901  0.00  0.00    -0.080 SA
ATOM      8  C   UNL d   1      54.052  33.047  54.624  0.00  0.00     0.025 A 
ATOM      9  O   UNL d   1      52.344  32.840  52.242  0.00  0.00    -0.245 OA
ATOM     10  C   UNL d   1      54.124  33.696  55.158  0.00  0.00     0.037 A 
ATOM     11  O   UNL d   1      52.404  35.148  53.886  0.00  0.00    -0.266 OA
ENDROOT
BRANCH   3  12
ATOM     12  C   UNL d   1      53.467  32.108  53.220  0.00  0.00     0.146 C 
BRANCH  12  13
ATOM     13  C   UNL d   1      52.993  31.451  53.389  0.00  0.00     0.283 C 
ATOM     14  N   UNL d   1      53.322  30.696  53.380  0.00  0.00    -0.271 N 
ATOM     15  O   UNL d   1      52.199  31.562  53.565  0.00  0.00    -0.265 OA
BRANCH  14  16
ATOM     16  C   UNL d   1      52.842  30.045  53.551  0.00  0.00     0.083 C 
BRANCH  16  17
ATOM     17  C   UNL d   1      53.048  29.538  54.167  0.00  0.00     0.018 A 
ATOM     18  C   UNL d   1      52.904  29.758  54.945  0.00  0.00     0.002 A 
ATOM     19  C   UNL d   1      53.112  29.248  55.570  0.00  0.00     0.000 A 
ATOM     20  C   UNL d   1      53.459  28.526  55.407  0.00  0.00     0.000 A 
ATOM     21  C   UNL d   1      53.606  28.299  54.626  0.00  0.00     0.000 A 
ATOM     22  C   UNL d   1      53.400  28.806  54.004  0.00  0.00     0.002 A 
ENDBRANCH  16  17
ENDBRANCH  14  16
BRANCH  14  23
ATOM     23  C   UNL d   1      54.113  30.592  53.204  0.00  0.00     0.083 C 
ATOM     24  C   UNL d   1      54.345  30.365  52.447  0.00  0.00     0.021 C 
ENDBRANCH  14  23
ENDBRANCH  12  13
ENDBRANCH   3  12
BRANCH   1  25
ATOM     25  C   UNL d   1      51.822  34.353  52.583  0.00  0.00     0.150 C 
BRANCH  25  26
ATOM     26  C   UNL d   1      51.020  34.304  52.769  0.00  0.00     0.297 C 
ATOM     27  N   UNL d   1      50.448  34.470  52.198  0.00  0.00    -0.203 NA
ATOM     28  O   UNL d   1      50.785  34.088  53.529  0.00  0.00    -0.264 OA
BRANCH  27  29
ATOM     29  C   UNL d   1      49.647  34.422  52.380  0.00  0.00     0.127 C 
BRANCH  29  30
ATOM     30  C   UNL d   1      49.080  34.626  51.822  0.00  0.00     0.119 A 
ATOM     31  O   UNL d   1      49.082  34.404  51.025  0.00  0.00    -0.304 OA
ATOM     32  C   UNL d   1      48.413  34.729  50.674  0.00  0.00     0.123 A 
ATOM     33  C   UNL d   1      47.994  35.152  51.253  0.00  0.00     0.029 A 
ATOM     34  C   UNL d   1      48.416  35.080  51.956  0.00  0.00     0.028 A 
ENDBRANCH  29  30
ENDBRANCH  27  29
ENDBRANCH  25  26
ENDBRANCH   1  25
TORSDOF 9
ENDMDL
MODEL 2
REMARK VINA RESULT:      -6.5      0.946      5.445
REMARK  9 active torsions:
REMARK  status: ('A' for Active; 'I' for Inactive)
REMARK    1  A    between atoms: C_10  and  N_1 
REMARK    2  A    between atoms: C_7  and  N_3 
REMARK    3  A    between atoms: C_8  and  C_7 
REMARK       I    between atoms: N_12  and  C_8 
REMARK    4  A    between atoms: C_13  and  C_10 
REMARK    5  A    between atoms: C_21  and  N_12 
REMARK    6  A    between atoms: C_28  and  N_12 
REMARK       I    between atoms: N_19  and  C_13 
REMARK    7  A    between atoms: C_17  and  C_26 
REMARK    8  A    between atoms: C_26  and  N_19 
REMARK    9  A    between atoms: C_27  and  C_21 
ROOT
ATOM      1  N   UNL d   1      53.408  32.609  53.302  0.00  0.00    -0.220 N 
ATOM      2  C   UNL d   1      52.811  32.993  52.883  0.00  0.00     0.342 A 
ATOM      3  N   UNL d   1      52.511  33.734  53.147  0.00  0.00    -0.254 N 
ATOM      4  C   UNL d   1      53.432  33.672  54.254  0.00  0.00     0.102 A 
ATOM      5  C   UNL d   1      53.711  32.952  53.981  0.00  0.00     0.276 A 
ATOM      6  C   UNL d   1      52.823  34.064  53.828  0.00  0.00     0.080 A 
ATOM      7  S   UNL d   1      53.633  34.146  54.919  0.00  0.00    -0.080 SA
ATOM      8  C   UNL d   1      52.647  34.787  54.233  0.00  0.00     0.025 A 
ATOM      9  O   UNL d   1      52.503  32.663  52.208  0.00  0.00    -0.245 OA
ATOM     10  C   UNL d   1      53.153  34.830  54.908  0.00  0.00     0.037 A 
ATOM     11  O   UNL d   1      54.302  32.572  54.395  0.00  0.00    -0.266 OA
ENDROOT
BRANCH   3  12
ATOM     12  C   UNL d   1      51.921  34.123  52.742  0.00  0.00     0.146 C 
BRANCH  12  13
ATOM     13  C   UNL d   1      51.126  33.966  52.907  0.00  0.00     0.283 C 
ATOM     14  N   UNL d   1      50.537  34.274  52.419  0.00  0.00    -0.271 N 
ATOM     15  O   UNL d   1      50.933  33.504  53.558  0.00  0.00    -0.265 OA
BRANCH  14  16
ATOM     16  C   UNL d   1      49.745  34.112  52.592  0.00  0.00     0.083 C 
BRANCH  16  17
ATOM     17  C   UNL d   1      49.213  34.735  52.681  0.00  0.00     0.018 A 
ATOM     18  C   UNL d   1      49.228  35.193  53.363  0.00  0.00     0.002 A 
ATOM     19  C   UNL d   1      48.692  35.824  53.457  0.00  0.00     0.000 A 
ATOM     20  C   UNL d   1      48.150  35.986  52.868  0.00  0.00     0.000 A 
ATOM     21  C   UNL d   1      48.129  35.529  52.179  0.00  0.00     0.000 A 
ATOM     22  C   UNL d   1      48.662  34.902  52.085  0.00  0.00     0.002 A 
ENDBRANCH  16  17
ENDBRANCH  14  16
BRANCH  14  23
ATOM     23  C   UNL d   1      50.735  34.733  51.773  0.00  0.00     0.083 C 
ATOM     24  C   UNL d   1      50.754  34.403  51.018  0.00  0.00     0.021 C 
ENDBRANCH  14  23
ENDBRANCH  12  13
ENDBRANCH   3  12
BRANCH   1  25
ATOM     25  C   UNL d   1      53.688  31.901  53.039  0.00  0.00     0.150 C 
BRANCH  25  26
ATOM     26  C   UNL d   1      53.227  31.221  53.120  0.00  0.00     0.297 C 
ATOM     27  N   UNL d   1      53.428  30.643  53.674  0.00  0.00    -0.203 NA
ATOM     28  O   UNL d   1      52.562  31.115  52.645  0.00  0.00    -0.264 OA
BRANCH  27  29
ATOM     29  C   UNL d   1      52.971  29.964  53.757  0.00  0.00     0.127 C 
BRANCH  29  30
ATOM     30  C   UNL d   1      53.169  29.394  54.313  0.00  0.00     0.119 A 
ATOM     31  O   UNL d   1      52.975  29.414  55.118  0.00  0.00    -0.304 OA
ATOM     32  C   UNL d   1      53.282  28.734  55.465  0.00  0.00     0.123 A 
ATOM     33  C   UNL d   1      53.667  28.291  54.876  0.00  0.00     0.029 A 
ATOM     34  C   UNL d   1      53.589  28.710  54.171  0.00  0.00     0.028 A 
ENDBRANCH  29  30
ENDBRANCH  27  29
ENDBRANCH  25  26
ENDBRANCH   1  25
TORSDOF 9
ENDMDL
MODEL 3
REMARK VINA RESULT:      -4.9      2.933      5.020
REMARK  9 active torsions:
REMARK  status: ('A' for Active; 'I' for Inactive)
REMARK    1  A    between atoms: C_10  and  N_1 
REMARK    2  A    between atoms: C_7  and  N_3 
REMARK    3  A    between atoms: C_8  and  C_7 
REMARK       I    between atoms: N_12  and  C_8 
REMARK    4  A    between atoms: C_13  and  C_10 
REMARK    5  A    between atoms: C_21  and  N_12 
REMARK    6  A    between atoms: C_28  and  N_12 
REMARK       I    between atoms: N_19  and  C_13 
REMARK    7  A    between atoms: C_17  and  C_26 
REMARK    8  A    between atoms: C_26  and  N_19 
REMARK    9  A    between atoms: C_27  and  C_21 
ROOT
ATOM      1  N   UNL d   1      48.298  36.011  52.927  0.00  0.00    -0.220 N 
ATOM      2  C   UNL d   1      48.885  35.495  53.190  0.00  0.00     0.342 A 
ATOM      3  N   UNL d   1      49.165  34.877  52.693  0.00  0.00    -0.254 N 
ATOM      4  C   UNL d   1      48.246  35.324  51.677  0.00  0.00     0.102 A 
ATOM      5  C   UNL d   1      47.986  35.920  52.176  0.00  0.00     0.276 A 
ATOM      6  C   UNL d   1      48.845  34.798  51.944  0.00  0.00     0.080 A 
ATOM      7  S   UNL d   1      48.033  35.102  50.894  0.00  0.00    -0.080 SA
ATOM      8  C   UNL d   1      49.001  34.246  51.320  0.00  0.00     0.025 A 
ATOM      9  O   UNL d   1      49.202  35.575  53.933  0.00  0.00    -0.245 OA
ATOM     10  C   UNL d   1      48.494  34.442  50.675  0.00  0.00     0.037 A 
ATOM     11  O   UNL d   1      47.406  36.431  51.916  0.00  0.00    -0.266 OA
ENDROOT
BRANCH   3  12
ATOM     12  C   UNL d   1      49.745  34.360  52.941  0.00  0.00     0.146 C 
BRANCH  12  13
ATOM     13  C   UNL d   1      50.544  34.537  52.818  0.00  0.00     0.283 C 
ATOM     14  N   UNL d   1      51.124  34.001  53.054  0.00  0.00    -0.271 N 
ATOM     15  O   UNL d   1      50.749  35.248  52.461  0.00  0.00    -0.265 OA
BRANCH  14  16
ATOM     16  C   UNL d   1      51.920  34.186  52.927  0.00  0.00     0.083 C 
BRANCH  16  17
ATOM     17  C   UNL d   1      52.405  34.357  53.571  0.00  0.00     0.018 A 
ATOM     18  C   UNL d   1      52.583  35.137  53.755  0.00  0.00     0.002 A 
ATOM     19  C   UNL d   1      53.073  35.313  54.405  0.00  0.00     0.000 A 
ATOM     20  C   UNL d   1      53.376  34.707  54.860  0.00  0.00     0.000 A 
ATOM     21  C   UNL d   1      53.201  33.919  54.680  0.00  0.00     0.000 A 
ATOM     22  C   UNL d   1      52.714  33.743  54.034  0.00  0.00     0.002 A 
ENDBRANCH  16  17
ENDBRANCH  14  16
BRANCH  14  23
ATOM     23  C   UNL d   1      50.913  33.296  53.408  0.00  0.00     0.083 C 
ATOM     24  C   UNL d   1      51.047  32.580  53.023  0.00  0.00     0.021 C 
ENDBRANCH  14  23
ENDBRANCH  12  13
ENDBRANCH   3  12
BRANCH   1  25
ATOM     25  C   UNL d   1      48.038  36.599  53.412  0.00  0.00     0.150 C 
BRANCH  25  26
ATOM     26  C   UNL d   1      47.544  36.420  54.047  0.00  0.00     0.297 C 
ATOM     27  N   UNL d   1      46.728  36.360  53.939  0.00  0.00    -0.203 NA
ATOM     28  O   UNL d   1      47.863  36.299  54.798  0.00  0.00    -0.264 OA
BRANCH  27  29
ATOM     29  C   UNL d   1      46.232  36.182  54.571  0.00  0.00     0.127 C 
BRANCH  29  30
ATOM     30  C   UNL d   1      45.500  35.834  54.441  0.00  0.00     0.119 A 
ATOM     31  O   UNL d   1      44.992  35.993  53.806  0.00  0.00    -0.304 OA
ATOM     32  C   UNL d   1      44.324  35.522  53.897  0.00  0.00     0.123 A 
ATOM     33  C   UNL d   1      44.416  35.069  54.587  0.00  0.00     0.029 A 
ATOM     34  C   UNL d   1      45.145  35.272  54.913  0.00  0.00     0.028 A 
ENDBRANCH  29  30
ENDBRANCH  27  29
ENDBRANCH  25  26
ENDBRANCH   1  25
TORSDOF 9
ENDMDL
