MODEL 1
REMARK VINA RESULT:      43.2      0.000      0.000
REMARK  5 active torsions:
REMARK  status: ('A' for Active; 'I' for Inactive)
REMARK    1  A    between atoms: O_8  and  C_7 
REMARK    2  A    between atoms: C_10  and  O_8 
REMARK    3  A    between atoms: C_9  and  C_10 
REMARK    4  A    between atoms: O_17  and  C_9 
REMARK    5  A    between atoms: C_21  and  O_17 
ROOT
ATOM      1  C   UNL d   1     -51.148  24.734  33.375  0.00  0.00     0.009 A 
ATOM      2  C   UNL d   1     -51.603  25.415  33.358  0.00  0.00     0.046 A 
ATOM      3  C   UNL d   1     -51.513  23.993  33.358  0.00  0.00     0.064 A 
ATOM      4  C   UNL d   1     -52.328  23.941  33.323  0.00  0.00     0.300 A 
ATOM      5  C   UNL d   1     -52.418  25.363  33.324  0.00  0.00     0.105 A 
ATOM      6  O   UNL d   1     -52.784  24.630  33.306  0.00  0.00    -0.273 OA
ATOM      7  C   UNL d   1     -51.230  26.152  33.375  0.00  0.00     0.102 A 
ATOM      8  C   UNL d   1     -52.875  26.061  33.306  0.00  0.00     0.025 A 
ATOM      9  C   UNL d   1     -51.694  26.841  33.358  0.00  0.00     0.025 A 
ATOM     10  O   UNL d   1     -52.702  23.191  33.306  0.00  0.00    -0.259 OA
ATOM     11  C   UNL d   1     -52.509  26.789  33.324  0.00  0.00     0.004 A 
ATOM     12  C   UNL d   1     -50.325  24.787  33.410  0.00  0.00     0.000 A 
ATOM     13  C   UNL d   1     -51.057  23.307  33.375  0.00  0.00     0.005 A 
ATOM     14  C   UNL d   1     -52.965  27.483  33.306  0.00  0.00     0.000 C 
ATOM     15  C   UNL d   1     -49.856  24.102  33.428  0.00  0.00     0.000 A 
ATOM     16  C   UNL d   1     -50.234  23.359  33.410  0.00  0.00     0.000 A 
ENDROOT
BRANCH   7  17
ATOM     17  O   UNL d   1     -50.415  26.204  33.410  0.00  0.00    -0.302 OA
BRANCH  17  18
ATOM     18  C   UNL d   1     -50.057  26.893  33.695  0.00  0.00     0.163 C 
ATOM     19  C   UNL d   1     -50.521  27.569  33.842  0.00  0.00     0.032 C 
BRANCH  18  20
ATOM     20  C   UNL d   1     -49.244  26.908  33.833  0.00  0.00     0.323 C 
ATOM     21  O   UNL d   1     -48.795  26.238  33.703  0.00  0.00    -0.257 OA
BRANCH  20  22
ATOM     22  O   UNL d   1     -48.898  27.607  34.103  0.00  0.00    -0.270 OA
BRANCH  22  23
ATOM     23  C   UNL d   1     -48.251  27.567  34.628  0.00  0.00     0.126 C 
ATOM     24  C   UNL d   1     -47.814  28.234  34.784  0.00  0.00     0.029 C 
ENDBRANCH  22  23
ENDBRANCH  20  22
ENDBRANCH  18  20
ENDBRANCH  17  18
ENDBRANCH   7  17
TORSDOF 5
ENDMDL
