MODEL 1
REMARK VINA RESULT:      20.6      0.000      0.000
REMARK  3 active torsions:
REMARK  status: ('A' for Active; 'I' for Inactive)
REMARK    1  A    between atoms: C_6  and  C_1 
REMARK    2  A    between atoms: C_7  and  N_3 
REMARK    3  A    between atoms: C_10  and  C_7 
ROOT
ATOM      1  C   UNL d   1     -52.023  25.489  33.345  0.00  0.00     0.148 A 
ATOM      2  N   UNL d   1     -52.853  25.548  33.358  0.00  0.00    -0.227 NA
ATOM      3  N   UNL d   1     -51.857  24.682  33.344  0.00  0.00    -0.289 N 
ATOM      4  C   UNL d   1     -52.543  24.261  33.355  0.00  0.00     0.083 A 
ATOM      5  C   UNL d   1     -53.167  24.804  33.364  0.00  0.00     0.099 A 
ATOM      6  C   UNL d   1     -52.704  23.452  33.359  0.00  0.00     0.019 A 
ATOM      7  C   UNL d   1     -53.927  24.516  33.377  0.00  0.00     0.021 A 
ATOM      8  C   UNL d   1     -53.465  23.200  33.372  0.00  0.00     0.002 A 
ATOM      9  C   UNL d   1     -54.090  23.743  33.381  0.00  0.00     0.002 A 
ENDROOT
BRANCH   1  10
ATOM     10  C   UNL d   1     -51.480  26.114  33.336  0.00  0.00     0.035 A 
ATOM     11  C   UNL d   1     -51.746  26.893  33.341  0.00  0.00     0.005 A 
ATOM     12  C   UNL d   1     -51.203  27.518  33.332  0.00  0.00     0.021 A 
ATOM     13  C   UNL d   1     -50.394  27.363  33.317  0.00  0.00     0.103 A 
ATOM     14  C   UNL d   1     -50.125  26.581  33.311  0.00  0.00     0.021 A 
ATOM     15  N   UNL d   1     -49.851  27.987  33.307  0.00  0.00    -0.148 N 
ATOM     16  C   UNL d   1     -50.669  25.956  33.321  0.00  0.00     0.005 A 
ENDBRANCH   1  10
BRANCH   3  17
ATOM     17  C   UNL d   1     -51.061  24.505  33.332  0.00  0.00     0.082 C 
BRANCH  17  18
ATOM     18  C   UNL d   1     -50.773  23.748  33.417  0.00  0.00     0.019 C 
ATOM     19  C   UNL d   1     -49.973  23.573  33.456  0.00  0.00     0.002 C 
ENDBRANCH  17  18
ENDBRANCH   3  17
TORSDOF 3
ENDMDL
