MODEL 1
REMARK VINA RESULT:       2.5      0.000      0.000
REMARK  5 active torsions:
REMARK  status: ('A' for Active; 'I' for Inactive)
REMARK    1  A    between atoms: C_11  and  C_5 
REMARK    2  A    between atoms: C_25  and  N_6 
REMARK    3  A    between atoms: N_14  and  C_27 
REMARK    4  A    between atoms: C_26  and  C_25 
REMARK    5  A    between atoms: C_27  and  C_26 
ROOT
ATOM      1  C   UNL d   1     -41.652-122.682 -53.200  0.00  0.00     0.082 A 
ATOM      2  C   UNL d   1     -41.829-122.303 -52.487  0.00  0.00     0.267 A 
ATOM      3  C   UNL d   1     -41.302-123.432 -53.204  0.00  0.00     0.108 A 
ATOM      4  C   UNL d   1     -41.651-122.680 -54.637  0.00  0.00     0.113 A 
ATOM      5  C   UNL d   1     -41.830-122.297 -53.920  0.00  0.00     0.043 A 
ATOM      6  N   UNL d   1     -41.650-122.687 -51.776  0.00  0.00    -0.273 N 
ATOM      7  C   UNL d   1     -41.303-123.427 -54.637  0.00  0.00     0.213 A 
ATOM      8  O   UNL d   1     -41.128-123.804 -53.917  0.00  0.00    -0.287 OA
ATOM      9  C   UNL d   1     -41.129-123.805 -52.493  0.00  0.00     0.043 A 
ATOM     10  C   UNL d   1     -41.301-123.438 -51.780  0.00  0.00     0.069 A 
ATOM     11  C   UNL d   1     -41.826-122.302 -55.348  0.00  0.00     0.105 C 
ATOM     12  N   UNL d   1     -42.001-121.926 -56.058  0.00  0.00    -0.191 NA
ATOM     13  O   UNL d   1     -42.179-121.551 -52.483  0.00  0.00    -0.267 OA
ATOM     14  N   UNL d   1     -41.126-123.805 -55.350  0.00  0.00    -0.120 N 
ATOM     15  C   UNL d   1     -41.125-123.815 -51.056  0.00  0.00     0.019 C 
ENDROOT
BRANCH   5  16
ATOM     16  C   UNL d   1     -42.178-121.549 -53.920  0.00  0.00     0.101 A 
ATOM     17  O   UNL d   1     -42.954-121.379 -54.113  0.00  0.00    -0.305 OA
ATOM     18  C   UNL d   1     -43.066-120.564 -54.040  0.00  0.00     0.123 A 
ATOM     19  C   UNL d   1     -42.349-120.234 -53.799  0.00  0.00     0.029 A 
ATOM     20  C   UNL d   1     -41.796-120.837 -53.723  0.00  0.00     0.027 A 
ENDBRANCH   5  16
BRANCH   6  21
ATOM     21  C   UNL d   1     -41.827-122.309 -51.050  0.00  0.00     0.085 C 
BRANCH  21  22
ATOM     22  C   UNL d   1     -42.082-122.756 -50.403  0.00  0.00     0.038 C 
BRANCH  22  23
ATOM     23  C   UNL d   1     -42.671-122.460 -49.907  0.00  0.00     0.083 C 
BRANCH  23  24
ATOM     24  N   UNL d   1     -42.673-122.647 -49.102  0.00  0.00    -0.285 N 
ATOM     25  C   UNL d   1     -42.244-122.269 -48.512  0.00  0.00     0.183 A 
ATOM     26  N   UNL d   1     -42.415-122.637 -47.797  0.00  0.00    -0.222 NA
ATOM     27  C   UNL d   1     -42.950-123.245 -47.941  0.00  0.00     0.120 A 
ATOM     28  C   UNL d   1     -43.110-123.253 -48.741  0.00  0.00     0.102 A 
ENDBRANCH  23  24
ENDBRANCH  22  23
ENDBRANCH  21  22
ENDBRANCH   6  21
TORSDOF 5
ENDMDL
MODEL 2
REMARK VINA RESULT:       4.8      1.118      2.117
REMARK  5 active torsions:
REMARK  status: ('A' for Active; 'I' for Inactive)
REMARK    1  A    between atoms: C_11  and  C_5 
REMARK    2  A    between atoms: C_25  and  N_6 
REMARK    3  A    between atoms: N_14  and  C_27 
REMARK    4  A    between atoms: C_26  and  C_25 
REMARK    5  A    between atoms: C_27  and  C_26 
ROOT
ATOM      1  C   UNL d   1     -41.597-121.833 -52.896  0.00  0.00     0.082 A 
ATOM      2  C   UNL d   1     -41.446-122.518 -52.458  0.00  0.00     0.267 A 
ATOM      3  C   UNL d   1     -41.593-121.089 -52.532  0.00  0.00     0.108 A 
ATOM      4  C   UNL d   1     -41.906-121.210 -54.154  0.00  0.00     0.113 A 
ATOM      5  C   UNL d   1     -41.754-121.900 -53.713  0.00  0.00     0.043 A 
ATOM      6  N   UNL d   1     -41.291-122.446 -51.648  0.00  0.00    -0.273 N 
ATOM      7  C   UNL d   1     -41.901-120.472 -53.787  0.00  0.00     0.213 A 
ATOM      8  O   UNL d   1     -41.744-120.412 -52.974  0.00  0.00    -0.287 OA
ATOM      9  C   UNL d   1     -41.438-121.030 -51.728  0.00  0.00     0.043 A 
ATOM     10  C   UNL d   1     -41.286-121.703 -51.284  0.00  0.00     0.069 A 
ATOM     11  C   UNL d   1     -42.061-121.274 -54.960  0.00  0.00     0.105 C 
ATOM     12  N   UNL d   1     -42.217-121.337 -55.765  0.00  0.00    -0.191 NA
ATOM     13  O   UNL d   1     -41.450-123.262 -52.823  0.00  0.00    -0.267 OA
ATOM     14  N   UNL d   1     -42.052-119.787 -54.226  0.00  0.00    -0.120 N 
ATOM     15  C   UNL d   1     -41.128-121.645 -50.467  0.00  0.00     0.019 C 
ENDROOT
BRANCH   5  16
ATOM     16  C   UNL d   1     -41.759-122.639 -54.080  0.00  0.00     0.101 A 
ATOM     17  O   UNL d   1     -41.125-122.998 -54.450  0.00  0.00    -0.305 OA
ATOM     18  C   UNL d   1     -41.375-123.730 -54.739  0.00  0.00     0.123 A 
ATOM     19  C   UNL d   1     -42.172-123.817 -54.543  0.00  0.00     0.029 A 
ATOM     20  C   UNL d   1     -42.416-123.147 -54.136  0.00  0.00     0.027 A 
ENDBRANCH   5  16
BRANCH   6  21
ATOM     21  C   UNL d   1     -41.137-123.137 -51.198  0.00  0.00     0.085 C 
BRANCH  21  22
ATOM     22  C   UNL d   1     -41.257-123.132 -50.381  0.00  0.00     0.038 C 
BRANCH  22  23
ATOM     23  C   UNL d   1     -41.675-123.746 -50.024  0.00  0.00     0.083 C 
BRANCH  23  24
ATOM     24  N   UNL d   1     -41.811-123.742 -49.209  0.00  0.00    -0.285 N 
ATOM     25  C   UNL d   1     -41.244-123.669 -48.620  0.00  0.00     0.183 A 
ATOM     26  N   UNL d   1     -41.627-123.693 -47.892  0.00  0.00    -0.222 NA
ATOM     27  C   UNL d   1     -42.434-123.781 -48.029  0.00  0.00     0.120 A 
ATOM     28  C   UNL d   1     -42.549-123.812 -48.835  0.00  0.00     0.102 A 
ENDBRANCH  23  24
ENDBRANCH  22  23
ENDBRANCH  21  22
ENDBRANCH   6  21
TORSDOF 5
ENDMDL
