MODEL 1
REMARK VINA RESULT:      20.2      0.000      0.000
REMARK  5 active torsions:
REMARK  status: ('A' for Active; 'I' for Inactive)
REMARK    1  A    between atoms: N_6  and  C_1 
REMARK    2  A    between atoms: S_10  and  C_4 
REMARK       I    between atoms: C_7  and  N_6 
REMARK       I    between atoms: N_8  and  C_7 
REMARK    3  A    between atoms: C_11  and  N_8 
REMARK    4  A    between atoms: C_18  and  S_10 
REMARK    5  A    between atoms: C_19  and  C_18 
ROOT
ATOM      1  N   UNL d   1     -55.008-102.151 -41.614  0.00  0.00    -0.321 NA
ATOM      2  C   UNL d   1     -54.907-102.082 -42.310  0.00  0.00     0.422 C 
ATOM      3  N   UNL d   1     -54.781-102.020 -43.174  0.00  0.00    -0.180 NA
ATOM      4  O   UNL d   1     -54.950-101.384 -42.266  0.00  0.00    -0.228 OA
ENDROOT
BRANCH   1   5
ATOM      5  C   UNL d   1     -55.117-102.410 -40.790  0.00  0.00     0.271 A 
ATOM      6  S   UNL d   1     -54.711-102.489 -40.217  0.00  0.00    -0.006 SA
ATOM      7  C   UNL d   1     -55.010-102.724 -39.615  0.00  0.00     0.166 A 
ATOM      8  N   UNL d   1     -55.700-102.874 -39.592  0.00  0.00    -0.132 NA
ATOM      9  N   UNL d   1     -55.808-102.561 -40.767  0.00  0.00    -0.107 NA
BRANCH   7  10
ATOM     10  S   UNL d   1     -54.713-102.847 -38.966  0.00  0.00    -0.059 SA
BRANCH  10  11
ATOM     11  C   UNL d   1     -55.109-102.621 -38.284  0.00  0.00     0.037 C 
BRANCH  11  12
ATOM     12  C   UNL d   1     -54.732-102.672 -37.556  0.00  0.00     0.007 C 
ATOM     13  C   UNL d   1     -55.166-102.795 -36.872  0.00  0.00     0.001 C 
ENDBRANCH  11  12
ENDBRANCH  10  11
ENDBRANCH   7  10
ENDBRANCH   1   5
BRANCH   3  14
ATOM     14  C   UNL d   1     -54.767-101.271 -43.533  0.00  0.00     0.087 A 
ATOM     15  C   UNL d   1     -54.747-100.592 -43.063  0.00  0.00     0.022 A 
ATOM     16  C   UNL d   1     -54.733 -99.853 -43.429  0.00  0.00     0.031 A 
ATOM     17  C   UNL d   1     -54.739 -99.786 -44.251  0.00  0.00     0.140 A 
ATOM     18  C   UNL d   1     -54.759-100.469 -44.715  0.00  0.00     0.031 A 
ATOM     19  F   UNL d   1     -54.724 -99.037 -44.610  0.00  0.00    -0.204 F 
ATOM     20  C   UNL d   1     -54.773-101.211 -44.356  0.00  0.00     0.022 A 
ENDBRANCH   3  14
TORSDOF 5
ENDMDL
