MODEL 1
REMARK VINA RESULT:      -9.3      0.000      0.000
REMARK  5 active torsions:
REMARK  status: ('A' for Active; 'I' for Inactive)
REMARK    1  A    between atoms: C_11  and  C_2 
REMARK    2  A    between atoms: N_3  and  C_5 
REMARK       I    between atoms: C_6  and  N_3 
REMARK    3  A    between atoms: C_5  and  N_12 
REMARK    4  A    between atoms: C_7  and  C_6 
REMARK    5  A    between atoms: N_12  and  C_20 
ROOT
ATOM      1  C   UNL d   1      50.381  34.306  52.656  0.00  0.00     0.041 A 
ATOM      2  C   UNL d   1      50.406  33.579  53.058  0.00  0.00     0.005 A 
ATOM      3  C   UNL d   1      51.019  34.562  52.216  0.00  0.00     0.005 A 
ATOM      4  C   UNL d   1      51.741  33.365  52.561  0.00  0.00     0.084 A 
ATOM      5  C   UNL d   1      51.091  33.114  53.005  0.00  0.00     0.019 A 
ATOM      6  C   UNL d   1      51.684  34.102  52.169  0.00  0.00     0.019 A 
ENDROOT
BRANCH   4   7
ATOM      7  N   UNL d   1      52.423  32.902  52.509  0.00  0.00    -0.217 NA
BRANCH   7   8
ATOM      8  C   UNL d   1      52.696  32.496  53.168  0.00  0.00     0.224 C 
ATOM      9  S   UNL d   1      52.544  31.700  53.239  0.00  0.00    -0.037 SA
BRANCH   8  10
ATOM     10  N   UNL d   1      53.111  32.895  53.737  0.00  0.00    -0.178 NA
ATOM     11  C   UNL d   1      53.877  32.642  53.941  0.00  0.00     0.287 C 
ATOM     12  O   UNL d   1      54.206  31.989  53.564  0.00  0.00    -0.265 OA
BRANCH  11  13
ATOM     13  C   UNL d   1      54.322  33.020  54.508  0.00  0.00     0.087 A 
ATOM     14  S   UNL d   1      54.986  33.496  54.339  0.00  0.00    -0.082 SA
ATOM     15  C   UNL d   1      55.270  33.768  55.049  0.00  0.00     0.036 A 
ATOM     16  C   UNL d   1      54.784  33.463  55.674  0.00  0.00     0.008 A 
ATOM     17  C   UNL d   1      54.212  33.011  55.346  0.00  0.00     0.012 A 
ENDBRANCH  11  13
ENDBRANCH   8  10
ENDBRANCH   7   8
ENDBRANCH   4   7
BRANCH   1  18
ATOM     18  C   UNL d   1      49.692  34.774  52.709  0.00  0.00     0.182 A 
ATOM     19  N   UNL d   1      49.436  35.254  53.324  0.00  0.00    -0.220 NA
ATOM     20  C   UNL d   1      48.714  35.593  53.083  0.00  0.00     0.106 A 
ATOM     21  C   UNL d   1      48.548  35.310  52.326  0.00  0.00     0.119 A 
ATOM     22  C   UNL d   1      48.208  36.104  53.449  0.00  0.00     0.021 A 
ATOM     23  C   UNL d   1      47.875  35.541  51.935  0.00  0.00     0.026 A 
ATOM     24  O   UNL d   1      49.171  34.799  52.107  0.00  0.00    -0.288 OA
ATOM     25  C   UNL d   1      47.353  36.063  52.301  0.00  0.00     0.002 A 
ATOM     26  C   UNL d   1      47.518  36.346  53.058  0.00  0.00     0.002 A 
ENDBRANCH   1  18
TORSDOF 5
ENDMDL
MODEL 2
REMARK VINA RESULT:      -8.5      1.392      1.890
REMARK  5 active torsions:
REMARK  status: ('A' for Active; 'I' for Inactive)
REMARK    1  A    between atoms: C_11  and  C_2 
REMARK    2  A    between atoms: N_3  and  C_5 
REMARK       I    between atoms: C_6  and  N_3 
REMARK    3  A    between atoms: C_5  and  N_12 
REMARK    4  A    between atoms: C_7  and  C_6 
REMARK    5  A    between atoms: N_12  and  C_20 
ROOT
ATOM      1  C   UNL d   1      49.982  34.728  52.599  0.00  0.00     0.041 A 
ATOM      2  C   UNL d   1      50.467  34.778  53.272  0.00  0.00     0.005 A 
ATOM      3  C   UNL d   1      50.227  34.317  51.938  0.00  0.00     0.005 A 
ATOM      4  C   UNL d   1      51.463  33.983  52.599  0.00  0.00     0.084 A 
ATOM      5  C   UNL d   1      51.207  34.402  53.264  0.00  0.00     0.019 A 
ATOM      6  C   UNL d   1      50.951  33.952  51.938  0.00  0.00     0.019 A 
ENDROOT
BRANCH   4   7
ATOM      7  N   UNL d   1      52.199  33.610  52.591  0.00  0.00    -0.217 NA
BRANCH   7   8
ATOM      8  C   UNL d   1      52.458  33.199  53.252  0.00  0.00     0.224 C 
ATOM      9  S   UNL d   1      52.767  33.610  53.883  0.00  0.00    -0.037 SA
BRANCH   8  10
ATOM     10  N   UNL d   1      52.403  32.391  53.265  0.00  0.00    -0.178 NA
ATOM     11  C   UNL d   1      53.097  31.932  53.305  0.00  0.00     0.287 C 
ATOM     12  O   UNL d   1      53.831  32.301  53.332  0.00  0.00    -0.265 OA
BRANCH  11  13
ATOM     13  C   UNL d   1      53.077  31.118  53.320  0.00  0.00     0.087 A 
ATOM     14  S   UNL d   1      53.573  30.649  53.799  0.00  0.00    -0.082 SA
ATOM     15  C   UNL d   1      53.380  29.874  53.651  0.00  0.00     0.036 A 
ATOM     16  C   UNL d   1      52.757  29.850  53.076  0.00  0.00     0.008 A 
ATOM     17  C   UNL d   1      52.575  30.602  52.876  0.00  0.00     0.012 A 
ENDBRANCH  11  13
ENDBRANCH   8  10
ENDBRANCH   7   8
ENDBRANCH   4   7
BRANCH   1  18
ATOM     18  C   UNL d   1      49.239  35.106  52.607  0.00  0.00     0.182 A 
ATOM     19  N   UNL d   1      48.890  35.552  53.201  0.00  0.00    -0.220 NA
ATOM     20  C   UNL d   1      48.145  35.797  52.916  0.00  0.00     0.106 A 
ATOM     21  C   UNL d   1      48.060  35.491  52.154  0.00  0.00     0.119 A 
ATOM     22  C   UNL d   1      47.559  36.242  53.245  0.00  0.00     0.021 A 
ATOM     23  C   UNL d   1      47.387  35.632  51.722  0.00  0.00     0.026 A 
ATOM     24  O   UNL d   1      48.753  35.062  51.977  0.00  0.00    -0.288 OA
ATOM     25  C   UNL d   1      46.784  36.087  52.052  0.00  0.00     0.002 A 
ATOM     26  C   UNL d   1      46.867  36.392  52.813  0.00  0.00     0.002 A 
ENDBRANCH   1  18
TORSDOF 5
ENDMDL
MODEL 3
REMARK VINA RESULT:      -8.3      2.007      5.852
REMARK  5 active torsions:
REMARK  status: ('A' for Active; 'I' for Inactive)
REMARK    1  A    between atoms: C_11  and  C_2 
REMARK    2  A    between atoms: N_3  and  C_5 
REMARK       I    between atoms: C_6  and  N_3 
REMARK    3  A    between atoms: C_5  and  N_12 
REMARK    4  A    between atoms: C_7  and  C_6 
REMARK    5  A    between atoms: N_12  and  C_20 
ROOT
ATOM      1  C   UNL d   1      51.668  33.834  53.197  0.00  0.00     0.041 A 
ATOM      2  C   UNL d   1      51.667  34.104  52.412  0.00  0.00     0.005 A 
ATOM      3  C   UNL d   1      50.975  33.599  53.559  0.00  0.00     0.005 A 
ATOM      4  C   UNL d   1      50.242  33.896  52.355  0.00  0.00     0.084 A 
ATOM      5  C   UNL d   1      50.948  34.132  51.997  0.00  0.00     0.019 A 
ATOM      6  C   UNL d   1      50.278  33.629  53.147  0.00  0.00     0.019 A 
ENDROOT
BRANCH   4   7
ATOM      7  N   UNL d   1      49.527  33.924  51.942  0.00  0.00    -0.217 NA
BRANCH   7   8
ATOM      8  C   UNL d   1      49.297  34.616  51.566  0.00  0.00     0.224 C 
ATOM      9  S   UNL d   1      49.568  34.771  50.814  0.00  0.00    -0.037 SA
BRANCH   8  10
ATOM     10  N   UNL d   1      48.805  35.131  51.948  0.00  0.00    -0.178 NA
ATOM     11  C   UNL d   1      48.033  35.253  51.660  0.00  0.00     0.287 C 
ATOM     12  O   UNL d   1      47.777  34.849  50.992  0.00  0.00    -0.265 OA
BRANCH  11  13
ATOM     13  C   UNL d   1      47.512  35.764  52.021  0.00  0.00     0.087 A 
ATOM     14  S   UNL d   1      46.735  35.906  51.750  0.00  0.00    -0.082 SA
ATOM     15  C   UNL d   1      46.403  36.446  52.258  0.00  0.00     0.036 A 
ATOM     16  C   UNL d   1      46.970  36.649  52.854  0.00  0.00     0.008 A 
ATOM     17  C   UNL d   1      47.640  36.237  52.710  0.00  0.00     0.012 A 
ENDBRANCH  11  13
ENDBRANCH   8  10
ENDBRANCH   7   8
ENDBRANCH   4   7
BRANCH   1  18
ATOM     18  C   UNL d   1      52.390  33.806  53.614  0.00  0.00     0.182 A 
ATOM     19  N   UNL d   1      52.720  34.363  54.118  0.00  0.00    -0.220 NA
ATOM     20  C   UNL d   1      53.447  34.051  54.382  0.00  0.00     0.106 A 
ATOM     21  C   UNL d   1      53.540  33.311  54.031  0.00  0.00     0.119 A 
ATOM     22  C   UNL d   1      54.011  34.342  54.880  0.00  0.00     0.021 A 
ATOM     23  C   UNL d   1      54.200  32.861  54.179  0.00  0.00     0.026 A 
ATOM     24  O   UNL d   1      52.870  33.173  53.553  0.00  0.00    -0.288 OA
ATOM     25  C   UNL d   1      54.781  33.151  54.687  0.00  0.00     0.002 A 
ATOM     26  C   UNL d   1      54.689  33.890  55.038  0.00  0.00     0.002 A 
ENDBRANCH   1  18
TORSDOF 5
ENDMDL
