MODEL 1
REMARK VINA RESULT:      18.3      0.000      0.000
REMARK  4 active torsions:
REMARK  status: ('A' for Active; 'I' for Inactive)
REMARK    1  A    between atoms: N_10  and  C_3 
REMARK    2  A    between atoms: C_15  and  C_5 
REMARK    3  A    between atoms: C_14  and  C_9 
REMARK       I    between atoms: C_11  and  N_12 
REMARK    4  A    between atoms: C_13  and  C_11 
ROOT
ATOM      1  N   UNL d   1     -42.451-122.836 -50.646  0.00  0.00    -0.196 N 
ATOM      2  C   UNL d   1     -42.751-122.839 -49.866  0.00  0.00     0.167 A 
ATOM      3  C   UNL d   1     -42.903-122.506 -51.248  0.00  0.00     0.152 A 
ATOM      4  N   UNL d   1     -41.276-123.486 -50.183  0.00  0.00    -0.163 NA
ATOM      5  C   UNL d   1     -42.316-123.162 -49.256  0.00  0.00     0.055 A 
ATOM      6  N   UNL d   1     -43.496-122.513 -49.707  0.00  0.00    -0.231 NA
ATOM      7  C   UNL d   1     -43.652-122.177 -51.091  0.00  0.00     0.052 A 
ATOM      8  C   UNL d   1     -41.571-123.489 -49.415  0.00  0.00     0.104 A 
ATOM      9  C   UNL d   1     -43.948-122.180 -50.323  0.00  0.00     0.063 A 
ATOM     10  C   UNL d   1     -41.123-123.817 -48.810  0.00  0.00     0.023 C 
ENDROOT
BRANCH   3  11
ATOM     11  N   UNL d   1     -42.594-122.503 -52.053  0.00  0.00    -0.286 N 
ATOM     12  C   UNL d   1     -42.553-121.933 -52.637  0.00  0.00     0.101 A 
ATOM     13  C   UNL d   1     -42.215-122.118 -53.357  0.00  0.00     0.102 A 
ATOM     14  N   UNL d   1     -41.921-122.867 -53.489  0.00  0.00    -0.267 N 
ATOM     15  C   UNL d   1     -41.588-123.044 -54.202  0.00  0.00     0.288 C 
ATOM     16  C   UNL d   1     -41.965-123.419 -52.908  0.00  0.00     0.102 A 
ATOM     17  O   UNL d   1     -41.293-123.788 -54.339  0.00  0.00    -0.264 OA
ATOM     18  C   UNL d   1     -42.304-123.240 -52.182  0.00  0.00     0.101 A 
BRANCH  15  19
ATOM     19  C   UNL d   1     -41.544-122.487 -54.785  0.00  0.00     0.156 A 
ATOM     20  O   UNL d   1     -41.926-122.607 -55.489  0.00  0.00    -0.300 OA
ATOM     21  C   UNL d   1     -41.887-122.052 -56.080  0.00  0.00     0.123 A 
ATOM     22  C   UNL d   1     -41.464-121.374 -55.966  0.00  0.00     0.029 A 
ATOM     23  C   UNL d   1     -41.123-121.808 -54.674  0.00  0.00     0.032 A 
ENDBRANCH  15  19
ENDBRANCH   3  11
BRANCH   9  24
ATOM     24  C   UNL d   1     -44.721-121.841 -50.157  0.00  0.00     0.036 C 
ATOM     25  C   UNL d   1     -45.482-121.502 -49.990  0.00  0.00     0.006 C 
ATOM     26  C   UNL d   1     -45.434-122.271 -50.379  0.00  0.00     0.006 C 
ATOM     27  C   UNL d   1     -44.770-121.078 -49.770  0.00  0.00     0.006 C 
ENDBRANCH   9  24
BRANCH   5  28
ATOM     28  C   UNL d   1     -42.613-123.165 -48.483  0.00  0.00     0.004 A 
ATOM     29  C   UNL d   1     -43.074-123.800 -48.229  0.00  0.00     0.000 A 
ATOM     30  C   UNL d   1     -43.374-123.803 -47.449  0.00  0.00     0.000 A 
ATOM     31  C   UNL d   1     -43.204-123.172 -46.947  0.00  0.00     0.000 A 
ATOM     32  C   UNL d   1     -42.740-122.540 -47.214  0.00  0.00     0.000 A 
ATOM     33  C   UNL d   1     -42.445-122.536 -47.982  0.00  0.00     0.000 A 
ENDBRANCH   5  28
TORSDOF 4
ENDMDL
