MODEL 1
REMARK VINA RESULT:      -4.2      0.000      0.000
REMARK  3 active torsions:
REMARK  status: ('A' for Active; 'I' for Inactive)
REMARK    1  A    between atoms: C_2  and  C_1 
REMARK    2  A    between atoms: N_5  and  C_2 
REMARK    3  A    between atoms: C_9  and  N_5 
ROOT
ATOM      1  C   UNL d   1      57.773   0.429  31.135  0.00  0.00     0.139 C 
ATOM      2  S   UNL d   1      58.107   0.677  31.854  0.00  0.00    -0.057 SA
ENDROOT
BRANCH   1   3
ATOM      3  C   UNL d   1      58.219   0.454  30.438  0.00  0.00     0.074 A 
ATOM      4  C   UNL d   1      59.069   0.574  30.391  0.00  0.00     0.129 A 
ATOM      5  O   UNL d   1      59.287   0.559  29.559  0.00  0.00    -0.211 OA
ATOM      6  C   UNL d   1      59.574   0.682  31.025  0.00  0.00     0.029 C 
ATOM      7  N   UNL d   1      58.579   0.431  29.097  0.00  0.00    -0.125 NA
ATOM      8  C   UNL d   1      57.916   0.366  29.638  0.00  0.00     0.132 A 
ENDBRANCH   1   3
BRANCH   1   9
ATOM      9  N   UNL d   1      56.997   0.158  31.118  0.00  0.00    -0.235 NA
BRANCH   9  10
ATOM     10  C   UNL d   1      56.617  -0.046  31.818  0.00  0.00     0.082 A 
ATOM     11  C   UNL d   1      56.621  -0.828  32.069  0.00  0.00     0.019 A 
ATOM     12  C   UNL d   1      56.242  -1.028  32.766  0.00  0.00     0.002 A 
ATOM     13  C   UNL d   1      55.864  -0.456  33.209  0.00  0.00     0.000 A 
ATOM     14  C   UNL d   1      55.863   0.329  32.951  0.00  0.00     0.002 A 
ATOM     15  C   UNL d   1      56.245   0.532  32.248  0.00  0.00     0.019 A 
ENDBRANCH   9  10
ENDBRANCH   1   9
TORSDOF 3
ENDMDL
MODEL 2
REMARK VINA RESULT:      -4.1      1.508      2.274
REMARK  3 active torsions:
REMARK  status: ('A' for Active; 'I' for Inactive)
REMARK    1  A    between atoms: C_2  and  C_1 
REMARK    2  A    between atoms: N_5  and  C_2 
REMARK    3  A    between atoms: C_9  and  N_5 
ROOT
ATOM      1  C   UNL d   1      56.743   0.243  32.598  0.00  0.00     0.139 C 
ATOM      2  S   UNL d   1      57.306   0.373  33.195  0.00  0.00    -0.057 SA
ENDROOT
BRANCH   1   3
ATOM      3  C   UNL d   1      56.917  -0.264  31.966  0.00  0.00     0.074 A 
ATOM      4  C   UNL d   1      57.365  -0.054  31.263  0.00  0.00     0.129 A 
ATOM      5  O   UNL d   1      57.405  -0.752  30.763  0.00  0.00    -0.211 OA
ATOM      6  C   UNL d   1      57.692   0.678  31.104  0.00  0.00     0.029 C 
ATOM      7  N   UNL d   1      56.986  -1.388  31.154  0.00  0.00    -0.125 NA
ATOM      8  C   UNL d   1      56.682  -1.089  31.899  0.00  0.00     0.132 A 
ENDBRANCH   1   3
BRANCH   1   9
ATOM      9  N   UNL d   1      56.013   0.618  32.636  0.00  0.00    -0.235 NA
BRANCH   9  10
ATOM     10  C   UNL d   1      55.598   0.638  33.345  0.00  0.00     0.082 A 
ATOM     11  C   UNL d   1      54.776   0.636  33.335  0.00  0.00     0.019 A 
ATOM     12  C   UNL d   1      54.366   0.656  34.043  0.00  0.00     0.002 A 
ATOM     13  C   UNL d   1      54.768   0.678  34.752  0.00  0.00     0.000 A 
ATOM     14  C   UNL d   1      55.594   0.680  34.757  0.00  0.00     0.002 A 
ATOM     15  C   UNL d   1      56.009   0.660  34.044  0.00  0.00     0.019 A 
ENDBRANCH   9  10
ENDBRANCH   1   9
TORSDOF 3
ENDMDL
MODEL 3
REMARK VINA RESULT:      -3.7      2.344      3.922
REMARK  3 active torsions:
REMARK  status: ('A' for Active; 'I' for Inactive)
REMARK    1  A    between atoms: C_2  and  C_1 
REMARK    2  A    between atoms: N_5  and  C_2 
REMARK    3  A    between atoms: C_9  and  N_5 
ROOT
ATOM      1  C   UNL d   1      55.951  -0.203  32.987  0.00  0.00     0.139 C 
ATOM      2  S   UNL d   1      55.908  -1.027  32.893  0.00  0.00    -0.057 SA
ENDROOT
BRANCH   1   3
ATOM      3  C   UNL d   1      55.873   0.134  33.739  0.00  0.00     0.074 A 
ATOM      4  C   UNL d   1      55.132   0.353  34.117  0.00  0.00     0.129 A 
ATOM      5  O   UNL d   1      55.322   0.681  34.889  0.00  0.00    -0.211 OA
ATOM      6  C   UNL d   1      54.385   0.264  33.795  0.00  0.00     0.029 C 
ATOM      7  N   UNL d   1      56.171   0.664  34.987  0.00  0.00    -0.125 NA
ATOM      8  C   UNL d   1      56.515   0.327  34.277  0.00  0.00     0.132 A 
ENDBRANCH   1   3
BRANCH   1   9
ATOM      9  N   UNL d   1      56.071   0.276  32.330  0.00  0.00    -0.235 NA
BRANCH   9  10
ATOM     10  C   UNL d   1      56.654   0.086  31.784  0.00  0.00     0.082 A 
ATOM     11  C   UNL d   1      56.827  -0.704  31.632  0.00  0.00     0.019 A 
ATOM     12  C   UNL d   1      57.408  -0.890  31.087  0.00  0.00     0.002 A 
ATOM     13  C   UNL d   1      57.813  -0.299  30.697  0.00  0.00     0.000 A 
ATOM     14  C   UNL d   1      57.636   0.493  30.853  0.00  0.00     0.002 A 
ATOM     15  C   UNL d   1      57.050   0.682  31.403  0.00  0.00     0.019 A 
ENDBRANCH   9  10
ENDBRANCH   1   9
TORSDOF 3
ENDMDL
MODEL 4
REMARK VINA RESULT:      -2.8      2.754      4.134
REMARK  3 active torsions:
REMARK  status: ('A' for Active; 'I' for Inactive)
REMARK    1  A    between atoms: C_2  and  C_1 
REMARK    2  A    between atoms: N_5  and  C_2 
REMARK    3  A    between atoms: C_9  and  N_5 
ROOT
ATOM      1  C   UNL d   1      59.039  -0.836  29.204  0.00  0.00     0.139 C 
ATOM      2  S   UNL d   1      59.841  -0.669  29.342  0.00  0.00    -0.057 SA
ENDROOT
BRANCH   1   3
ATOM      3  C   UNL d   1      58.452  -0.353  29.531  0.00  0.00     0.074 A 
ATOM      4  C   UNL d   1      58.134   0.362  29.176  0.00  0.00     0.129 A 
ATOM      5  O   UNL d   1      57.540   0.677  29.711  0.00  0.00    -0.211 OA
ATOM      6  C   UNL d   1      58.361   0.682  28.458  0.00  0.00     0.029 C 
ATOM      7  N   UNL d   1      57.490   0.161  30.392  0.00  0.00    -0.125 NA
ATOM      8  C   UNL d   1      58.053  -0.478  30.283  0.00  0.00     0.132 A 
ENDBRANCH   1   3
BRANCH   1   9
ATOM      9  N   UNL d   1      58.831  -1.483  28.742  0.00  0.00    -0.235 NA
BRANCH   9  10
ATOM     10  C   UNL d   1      59.293  -2.162  28.754  0.00  0.00     0.082 A 
ATOM     11  C   UNL d   1      60.081  -2.121  28.525  0.00  0.00     0.019 A 
ATOM     12  C   UNL d   1      60.539  -2.799  28.537  0.00  0.00     0.002 A 
ATOM     13  C   UNL d   1      60.217  -3.510  28.775  0.00  0.00     0.000 A 
ATOM     14  C   UNL d   1      59.423  -3.546  29.004  0.00  0.00     0.002 A 
ATOM     15  C   UNL d   1      58.961  -2.863  28.992  0.00  0.00     0.019 A 
ENDBRANCH   9  10
ENDBRANCH   1   9
TORSDOF 3
ENDMDL
