MODEL 1
REMARK VINA RESULT:      -4.6      0.000      0.000
REMARK  4 active torsions:
REMARK  status: ('A' for Active; 'I' for Inactive)
REMARK    1  A    between atoms: S_5  and  C_2 
REMARK    2  A    between atoms: C_16  and  S_5 
REMARK    3  A    between atoms: N_11  and  C_8 
REMARK    4  A    between atoms: C_12  and  N_11 
ROOT
ATOM      1  C   UNL d   1     -48.042  14.491  22.754  0.00  0.00     0.197 A 
ATOM      2  C   UNL d   1     -47.229  14.653  22.775  0.00  0.00     0.227 A 
ATOM      3  N   UNL d   1     -48.444  15.194  22.920  0.00  0.00    -0.192 N 
ATOM      4  N   UNL d   1     -48.467  13.800  22.606  0.00  0.00    -0.206 NA
ATOM      5  N   UNL d   1     -47.130  15.454  22.954  0.00  0.00    -0.115 NA
ATOM      6  N   UNL d   1     -47.882  15.792  23.045  0.00  0.00    -0.058 NA
ATOM      7  C   UNL d   1     -49.296  13.808  22.624  0.00  0.00     0.166 A 
ATOM      8  C   UNL d   1     -49.691  14.512  22.791  0.00  0.00     0.054 A 
ATOM      9  C   UNL d   1     -49.273  15.208  22.940  0.00  0.00     0.089 A 
ATOM     10  C   UNL d   1     -50.522  14.526  22.810  0.00  0.00     0.005 A 
ATOM     11  C   UNL d   1     -49.672  15.909  23.106  0.00  0.00     0.019 A 
ATOM     12  C   UNL d   1     -50.919  15.227  22.976  0.00  0.00     0.000 A 
ATOM     13  C   UNL d   1     -50.495  15.919  23.124  0.00  0.00     0.002 A 
ENDROOT
BRANCH   2  14
ATOM     14  S   UNL d   1     -46.625  14.107  22.639  0.00  0.00     0.231 S 
ATOM     15  O   UNL d   1     -46.648  14.248  21.829  0.00  0.00    -0.215 OA
ATOM     16  O   UNL d   1     -46.604  13.968  23.451  0.00  0.00    -0.215 OA
BRANCH  14  17
ATOM     17  C   UNL d   1     -46.023  13.557  22.548  0.00  0.00     0.090 A 
ATOM     18  C   UNL d   1     -45.596  13.533  21.841  0.00  0.00     0.011 A 
ATOM     19  C   UNL d   1     -44.996  12.987  21.744  0.00  0.00     0.001 A 
ATOM     20  C   UNL d   1     -44.814  12.457  22.353  0.00  0.00     0.000 A 
ATOM     21  C   UNL d   1     -45.243  12.484  23.059  0.00  0.00     0.001 A 
ATOM     22  C   UNL d   1     -45.842  13.031  23.152  0.00  0.00     0.011 A 
ENDBRANCH  14  17
ENDBRANCH   2  14
BRANCH   7  23
ATOM     23  N   UNL d   1     -49.721  13.116  22.476  0.00  0.00    -0.227 NA
BRANCH  23  24
ATOM     24  C   UNL d   1     -49.406  12.386  22.688  0.00  0.00     0.083 A 
ATOM     25  C   UNL d   1     -49.141  11.865  22.105  0.00  0.00     0.018 A 
ATOM     26  C   UNL d   1     -48.826  11.134  22.318  0.00  0.00     0.002 A 
ATOM     27  C   UNL d   1     -49.191  12.078  21.308  0.00  0.00     0.002 C 
ATOM     28  C   UNL d   1     -48.561  10.613  21.736  0.00  0.00     0.000 C 
ATOM     29  C   UNL d   1     -48.775  10.919  23.118  0.00  0.00     0.000 A 
ATOM     30  C   UNL d   1     -49.044  11.448  23.698  0.00  0.00     0.002 A 
ATOM     31  C   UNL d   1     -49.357  12.176  23.483  0.00  0.00     0.019 A 
ENDBRANCH  23  24
ENDBRANCH   7  23
TORSDOF 4
ENDMDL
MODEL 2
REMARK VINA RESULT:      -4.4      1.374      3.038
REMARK  4 active torsions:
REMARK  status: ('A' for Active; 'I' for Inactive)
REMARK    1  A    between atoms: S_5  and  C_2 
REMARK    2  A    between atoms: C_16  and  S_5 
REMARK    3  A    between atoms: N_11  and  C_8 
REMARK    4  A    between atoms: C_12  and  N_11 
ROOT
ATOM      1  C   UNL d   1     -48.151  12.231  23.071  0.00  0.00     0.197 A 
ATOM      2  C   UNL d   1     -47.347  12.043  23.148  0.00  0.00     0.227 A 
ATOM      3  N   UNL d   1     -48.589  11.604  23.384  0.00  0.00    -0.192 N 
ATOM      4  N   UNL d   1     -48.540  12.888  22.757  0.00  0.00    -0.206 NA
ATOM      5  N   UNL d   1     -47.290  11.301  23.508  0.00  0.00    -0.115 NA
ATOM      6  N   UNL d   1     -48.058  11.026  23.656  0.00  0.00    -0.058 NA
ATOM      7  C   UNL d   1     -49.368  12.920  22.756  0.00  0.00     0.166 A 
ATOM      8  C   UNL d   1     -49.800  12.291  23.070  0.00  0.00     0.054 A 
ATOM      9  C   UNL d   1     -49.418  11.631  23.385  0.00  0.00     0.089 A 
ATOM     10  C   UNL d   1     -50.630  12.319  23.071  0.00  0.00     0.005 A 
ATOM     11  C   UNL d   1     -49.852  11.005  23.698  0.00  0.00     0.019 A 
ATOM     12  C   UNL d   1     -51.063  11.693  23.384  0.00  0.00     0.000 A 
ATOM     13  C   UNL d   1     -50.675  11.036  23.697  0.00  0.00     0.002 A 
ENDROOT
BRANCH   2  14
ATOM     14  S   UNL d   1     -46.715  12.517  22.906  0.00  0.00     0.231 S 
ATOM     15  O   UNL d   1     -46.559  12.742  23.682  0.00  0.00    -0.215 OA
ATOM     16  O   UNL d   1     -46.875  12.288  22.131  0.00  0.00    -0.215 OA
BRANCH  14  17
ATOM     17  C   UNL d   1     -46.096  12.975  22.625  0.00  0.00     0.090 A 
ATOM     18  C   UNL d   1     -46.061  13.777  22.822  0.00  0.00     0.011 A 
ATOM     19  C   UNL d   1     -45.446  14.238  22.544  0.00  0.00     0.001 A 
ATOM     20  C   UNL d   1     -44.858  13.905  22.067  0.00  0.00     0.000 A 
ATOM     21  C   UNL d   1     -44.897  13.102  21.872  0.00  0.00     0.001 A 
ATOM     22  C   UNL d   1     -45.512  12.644  22.151  0.00  0.00     0.011 A 
ENDBRANCH  14  17
ENDBRANCH   2  14
BRANCH   7  23
ATOM     23  N   UNL d   1     -49.757  13.577  22.443  0.00  0.00    -0.227 NA
BRANCH  23  24
ATOM     24  C   UNL d   1     -49.433  14.328  22.530  0.00  0.00     0.083 A 
ATOM     25  C   UNL d   1     -49.181  14.749  21.865  0.00  0.00     0.018 A 
ATOM     26  C   UNL d   1     -48.856  15.501  21.953  0.00  0.00     0.002 A 
ATOM     27  C   UNL d   1     -49.255  14.414  21.113  0.00  0.00     0.002 C 
ATOM     28  C   UNL d   1     -48.604  15.921  21.289  0.00  0.00     0.000 C 
ATOM     29  C   UNL d   1     -48.781  15.838  22.707  0.00  0.00     0.000 A 
ATOM     30  C   UNL d   1     -49.037  15.409  23.370  0.00  0.00     0.002 A 
ATOM     31  C   UNL d   1     -49.360  14.660  23.280  0.00  0.00     0.019 A 
ENDBRANCH  23  24
ENDBRANCH   7  23
TORSDOF 4
ENDMDL
MODEL 3
REMARK VINA RESULT:      -3.8      8.518      9.729
REMARK  4 active torsions:
REMARK  status: ('A' for Active; 'I' for Inactive)
REMARK    1  A    between atoms: S_5  and  C_2 
REMARK    2  A    between atoms: C_16  and  S_5 
REMARK    3  A    between atoms: N_11  and  C_8 
REMARK    4  A    between atoms: C_12  and  N_11 
ROOT
ATOM      1  C   UNL d   1     -40.172  15.355  19.424  0.00  0.00     0.197 A 
ATOM      2  C   UNL d   1     -40.291  15.416  20.242  0.00  0.00     0.227 A 
ATOM      3  N   UNL d   1     -40.855  15.631  19.048  0.00  0.00    -0.192 N 
ATOM      4  N   UNL d   1     -39.535  15.085  18.975  0.00  0.00    -0.206 NA
ATOM      5  N   UNL d   1     -41.045  15.729  20.370  0.00  0.00    -0.115 NA
ATOM      6  N   UNL d   1     -41.397  15.863  19.632  0.00  0.00    -0.058 NA
ATOM      7  C   UNL d   1     -39.578  15.091  18.146  0.00  0.00     0.166 A 
ATOM      8  C   UNL d   1     -40.262  15.367  17.777  0.00  0.00     0.054 A 
ATOM      9  C   UNL d   1     -40.903  15.638  18.220  0.00  0.00     0.089 A 
ATOM     10  C   UNL d   1     -40.309  15.375  16.947  0.00  0.00     0.005 A 
ATOM     11  C   UNL d   1     -41.583  15.914  17.847  0.00  0.00     0.019 A 
ATOM     12  C   UNL d   1     -40.990  15.650  16.576  0.00  0.00     0.000 A 
ATOM     13  C   UNL d   1     -41.627  15.920  17.026  0.00  0.00     0.002 A 
ENDROOT
BRANCH   2  14
ATOM     14  S   UNL d   1     -39.748  15.200  20.826  0.00  0.00     0.231 S 
ATOM     15  O   UNL d   1     -39.330  15.902  20.728  0.00  0.00    -0.215 OA
ATOM     16  O   UNL d   1     -40.169  14.499  20.922  0.00  0.00    -0.215 OA
BRANCH  14  17
ATOM     17  C   UNL d   1     -39.231  14.950  21.411  0.00  0.00     0.090 A 
ATOM     18  C   UNL d   1     -38.606  15.440  21.641  0.00  0.00     0.011 A 
ATOM     19  C   UNL d   1     -38.088  15.195  22.224  0.00  0.00     0.001 A 
ATOM     20  C   UNL d   1     -38.187  14.457  22.585  0.00  0.00     0.000 A 
ATOM     21  C   UNL d   1     -38.813  13.969  22.352  0.00  0.00     0.001 A 
ATOM     22  C   UNL d   1     -39.329  14.217  21.770  0.00  0.00     0.011 A 
ENDBRANCH  14  17
ENDBRANCH   2  14
BRANCH   7  23
ATOM     23  N   UNL d   1     -38.941  14.821  17.696  0.00  0.00    -0.227 NA
BRANCH  23  24
ATOM     24  C   UNL d   1     -38.717  14.030  17.730  0.00  0.00     0.083 A 
ATOM     25  C   UNL d   1     -38.440  13.649  17.052  0.00  0.00     0.018 A 
ATOM     26  C   UNL d   1     -38.217  12.857  17.087  0.00  0.00     0.002 A 
ATOM     27  C   UNL d   1     -38.387  14.064  16.339  0.00  0.00     0.002 C 
ATOM     28  C   UNL d   1     -37.940  12.477  16.409  0.00  0.00     0.000 C 
ATOM     29  C   UNL d   1     -38.269  12.440  17.802  0.00  0.00     0.000 A 
ATOM     30  C   UNL d   1     -38.549  12.830  18.479  0.00  0.00     0.002 A 
ATOM     31  C   UNL d   1     -38.771  13.619  18.442  0.00  0.00     0.019 A 
ENDBRANCH  23  24
ENDBRANCH   7  23
TORSDOF 4
ENDMDL
MODEL 4
REMARK VINA RESULT:      -3.6      7.210      9.346
REMARK  4 active torsions:
REMARK  status: ('A' for Active; 'I' for Inactive)
REMARK    1  A    between atoms: S_5  and  C_2 
REMARK    2  A    between atoms: C_16  and  S_5 
REMARK    3  A    between atoms: N_11  and  C_8 
REMARK    4  A    between atoms: C_12  and  N_11 
ROOT
ATOM      1  C   UNL d   1     -39.244  14.658  18.630  0.00  0.00     0.197 A 
ATOM      2  C   UNL d   1     -38.510  14.400  18.917  0.00  0.00     0.227 A 
ATOM      3  N   UNL d   1     -39.125  14.970  17.874  0.00  0.00    -0.192 N 
ATOM      4  N   UNL d   1     -40.001  14.649  18.957  0.00  0.00    -0.206 NA
ATOM      5  N   UNL d   1     -37.940  14.553  18.338  0.00  0.00    -0.115 NA
ATOM      6  N   UNL d   1     -38.318  14.906  17.690  0.00  0.00    -0.058 NA
ATOM      7  C   UNL d   1     -40.643  14.953  18.529  0.00  0.00     0.166 A 
ATOM      8  C   UNL d   1     -40.518  15.263  17.774  0.00  0.00     0.054 A 
ATOM      9  C   UNL d   1     -39.763  15.275  17.441  0.00  0.00     0.089 A 
ATOM     10  C   UNL d   1     -41.158  15.568  17.341  0.00  0.00     0.005 A 
ATOM     11  C   UNL d   1     -39.643  15.585  16.688  0.00  0.00     0.019 A 
ATOM     12  C   UNL d   1     -41.036  15.878  16.588  0.00  0.00     0.000 A 
ATOM     13  C   UNL d   1     -40.279  15.886  16.262  0.00  0.00     0.002 A 
ENDROOT
BRANCH   2  14
ATOM     14  S   UNL d   1     -38.374  14.051  19.653  0.00  0.00     0.231 S 
ATOM     15  O   UNL d   1     -38.565  13.307  19.360  0.00  0.00    -0.215 OA
ATOM     16  O   UNL d   1     -38.184  14.799  19.942  0.00  0.00    -0.215 OA
BRANCH  14  17
ATOM     17  C   UNL d   1     -38.230  13.745  20.399  0.00  0.00     0.090 A 
ATOM     18  C   UNL d   1     -38.159  14.257  21.044  0.00  0.00     0.011 A 
ATOM     19  C   UNL d   1     -38.015  13.956  21.790  0.00  0.00     0.001 A 
ATOM     20  C   UNL d   1     -37.940  13.140  21.903  0.00  0.00     0.000 A 
ATOM     21  C   UNL d   1     -38.012  12.630  21.255  0.00  0.00     0.001 A 
ATOM     22  C   UNL d   1     -38.156  12.934  20.511  0.00  0.00     0.011 A 
ENDBRANCH  14  17
ENDBRANCH   2  14
BRANCH   7  23
ATOM     23  N   UNL d   1     -41.401  14.944  18.855  0.00  0.00    -0.227 NA
BRANCH  23  24
ATOM     24  C   UNL d   1     -41.501  15.045  19.665  0.00  0.00     0.083 A 
ATOM     25  C   UNL d   1     -41.764  14.415  20.131  0.00  0.00     0.018 A 
ATOM     26  C   UNL d   1     -41.864  14.516  20.942  0.00  0.00     0.002 A 
ATOM     27  C   UNL d   1     -41.925  13.683  19.781  0.00  0.00     0.002 C 
ATOM     28  C   UNL d   1     -42.126  13.887  21.407  0.00  0.00     0.000 C 
ATOM     29  C   UNL d   1     -41.703  15.249  21.294  0.00  0.00     0.000 A 
ATOM     30  C   UNL d   1     -41.439  15.878  20.820  0.00  0.00     0.002 A 
ATOM     31  C   UNL d   1     -41.340  15.774  20.012  0.00  0.00     0.019 A 
ENDBRANCH  23  24
ENDBRANCH   7  23
TORSDOF 4
ENDMDL
MODEL 5
REMARK VINA RESULT:      -2.7      8.972     10.413
REMARK  4 active torsions:
REMARK  status: ('A' for Active; 'I' for Inactive)
REMARK    1  A    between atoms: S_5  and  C_2 
REMARK    2  A    between atoms: C_16  and  S_5 
REMARK    3  A    between atoms: N_11  and  C_8 
REMARK    4  A    between atoms: C_12  and  N_11 
ROOT
ATOM      1  C   UNL d   1     -38.456  13.648  19.705  0.00  0.00     0.197 A 
ATOM      2  C   UNL d   1     -38.379  13.567  20.526  0.00  0.00     0.227 A 
ATOM      3  N   UNL d   1     -38.193  12.946  19.356  0.00  0.00    -0.192 N 
ATOM      4  N   UNL d   1     -38.728  14.266  19.230  0.00  0.00    -0.206 NA
ATOM      5  N   UNL d   1     -38.071  12.817  20.683  0.00  0.00    -0.115 NA
ATOM      6  N   UNL d   1     -37.954  12.429  19.959  0.00  0.00    -0.058 NA
ATOM      7  C   UNL d   1     -38.740  14.184  18.405  0.00  0.00     0.166 A 
ATOM      8  C   UNL d   1     -38.477  13.481  18.063  0.00  0.00     0.054 A 
ATOM      9  C   UNL d   1     -38.203  12.859  18.531  0.00  0.00     0.089 A 
ATOM     10  C   UNL d   1     -38.486  13.394  17.237  0.00  0.00     0.005 A 
ATOM     11  C   UNL d   1     -37.941  12.158  18.185  0.00  0.00     0.019 A 
ATOM     12  C   UNL d   1     -38.225  12.694  16.893  0.00  0.00     0.000 A 
ATOM     13  C   UNL d   1     -37.952  12.076  17.367  0.00  0.00     0.002 A 
ENDROOT
BRANCH   2  14
ATOM     14  S   UNL d   1     -38.578  14.139  21.088  0.00  0.00     0.231 S 
ATOM     15  O   UNL d   1     -39.210  13.687  21.357  0.00  0.00    -0.215 OA
ATOM     16  O   UNL d   1     -37.944  14.589  20.816  0.00  0.00    -0.215 OA
BRANCH  14  17
ATOM     17  C   UNL d   1     -38.741  14.731  21.631  0.00  0.00     0.090 A 
ATOM     18  C   UNL d   1     -39.527  14.932  21.790  0.00  0.00     0.011 A 
ATOM     19  C   UNL d   1     -39.696  15.521  22.331  0.00  0.00     0.001 A 
ATOM     20  C   UNL d   1     -39.083  15.917  22.720  0.00  0.00     0.000 A 
ATOM     21  C   UNL d   1     -38.297  15.713  22.558  0.00  0.00     0.001 A 
ATOM     22  C   UNL d   1     -38.132  15.124  22.018  0.00  0.00     0.011 A 
ENDBRANCH  14  17
ENDBRANCH   2  14
BRANCH   7  23
ATOM     23  N   UNL d   1     -39.012  14.802  17.931  0.00  0.00    -0.227 NA
BRANCH  23  24
ATOM     24  C   UNL d   1     -39.820  14.933  17.850  0.00  0.00     0.083 A 
ATOM     25  C   UNL d   1     -40.107  15.359  17.203  0.00  0.00     0.018 A 
ATOM     26  C   UNL d   1     -40.916  15.490  17.122  0.00  0.00     0.002 A 
ATOM     27  C   UNL d   1     -39.581  15.652  16.636  0.00  0.00     0.002 C 
ATOM     28  C   UNL d   1     -41.203  15.915  16.475  0.00  0.00     0.000 C 
ATOM     29  C   UNL d   1     -41.445  15.197  17.689  0.00  0.00     0.000 A 
ATOM     30  C   UNL d   1     -41.149  14.770  18.337  0.00  0.00     0.002 A 
ATOM     31  C   UNL d   1     -40.343  14.641  18.415  0.00  0.00     0.019 A 
ENDBRANCH  23  24
ENDBRANCH   7  23
TORSDOF 4
ENDMDL
MODEL 6
REMARK VINA RESULT:      -2.5      1.972      4.712
REMARK  4 active torsions:
REMARK  status: ('A' for Active; 'I' for Inactive)
REMARK    1  A    between atoms: S_5  and  C_2 
REMARK    2  A    between atoms: C_16  and  S_5 
REMARK    3  A    between atoms: N_11  and  C_8 
REMARK    4  A    between atoms: C_12  and  N_11 
ROOT
ATOM      1  C   UNL d   1     -47.645  11.572  23.101  0.00  0.00     0.197 A 
ATOM      2  C   UNL d   1     -48.444  11.361  23.160  0.00  0.00     0.227 A 
ATOM      3  N   UNL d   1     -47.195  10.940  23.389  0.00  0.00    -0.192 N 
ATOM      4  N   UNL d   1     -47.269  12.252  22.826  0.00  0.00    -0.206 NA
ATOM      5  N   UNL d   1     -48.487  10.601  23.483  0.00  0.00    -0.115 NA
ATOM      6  N   UNL d   1     -47.714  10.337  23.626  0.00  0.00    -0.058 NA
ATOM      7  C   UNL d   1     -46.441  12.304  22.836  0.00  0.00     0.166 A 
ATOM      8  C   UNL d   1     -45.998  11.671  23.123  0.00  0.00     0.054 A 
ATOM      9  C   UNL d   1     -46.367  10.987  23.401  0.00  0.00     0.089 A 
ATOM     10  C   UNL d   1     -45.168  11.718  23.135  0.00  0.00     0.005 A 
ATOM     11  C   UNL d   1     -45.921  10.357  23.687  0.00  0.00     0.019 A 
ATOM     12  C   UNL d   1     -44.723  11.087  23.422  0.00  0.00     0.000 A 
ATOM     13  C   UNL d   1     -45.100  10.407  23.698  0.00  0.00     0.002 A 
ENDROOT
BRANCH   2  14
ATOM     14  S   UNL d   1     -49.085  11.831  22.935  0.00  0.00     0.231 S 
ATOM     15  O   UNL d   1     -49.165  12.127  23.698  0.00  0.00    -0.215 OA
ATOM     16  O   UNL d   1     -49.002  11.532  22.172  0.00  0.00    -0.215 OA
BRANCH  14  17
ATOM     17  C   UNL d   1     -49.717  12.282  22.671  0.00  0.00     0.090 A 
ATOM     18  C   UNL d   1     -49.976  12.203  21.890  0.00  0.00     0.011 A 
ATOM     19  C   UNL d   1     -50.605  12.650  21.621  0.00  0.00     0.001 A 
ATOM     20  C   UNL d   1     -50.984  13.181  22.129  0.00  0.00     0.000 A 
ATOM     21  C   UNL d   1     -50.723  13.258  22.910  0.00  0.00     0.001 A 
ATOM     22  C   UNL d   1     -50.094  12.810  23.175  0.00  0.00     0.011 A 
ENDBRANCH  14  17
ENDBRANCH   2  14
BRANCH   7  23
ATOM     23  N   UNL d   1     -46.065  12.985  22.560  0.00  0.00    -0.227 NA
BRANCH  23  24
ATOM     24  C   UNL d   1     -46.397  13.724  22.700  0.00  0.00     0.083 A 
ATOM     25  C   UNL d   1     -46.659  14.187  22.068  0.00  0.00     0.018 A 
ATOM     26  C   UNL d   1     -46.991  14.927  22.209  0.00  0.00     0.002 A 
ATOM     27  C   UNL d   1     -46.588  13.905  21.294  0.00  0.00     0.002 C 
ATOM     28  C   UNL d   1     -47.253  15.389  21.578  0.00  0.00     0.000 C 
ATOM     29  C   UNL d   1     -47.063  15.211  22.985  0.00  0.00     0.000 A 
ATOM     30  C   UNL d   1     -46.797  14.741  23.615  0.00  0.00     0.002 A 
ATOM     31  C   UNL d   1     -46.466  14.004  23.472  0.00  0.00     0.019 A 
ENDBRANCH  23  24
ENDBRANCH   7  23
TORSDOF 4
ENDMDL
