MODEL 1
REMARK VINA RESULT:      69.5      0.000      0.000
REMARK  6 active torsions:
REMARK  status: ('A' for Active; 'I' for Inactive)
REMARK    1  A    between atoms: N_9  and  C_1 
REMARK    2  A    between atoms: C_15  and  N_4 
REMARK    3  A    between atoms: C_7  and  N_9 
REMARK    4  A    between atoms: C_12  and  C_11 
REMARK    5  A    between atoms: C_13  and  C_12 
REMARK       I    between atoms: N_16  and  C_13 
REMARK    6  A    between atoms: C_20  and  N_16 
ROOT
ATOM      1  N   UNL d   1     -49.338  27.565  35.159  0.00  0.00    -0.182 NA
ATOM      2  C   UNL d   1     -48.893  27.528  34.463  0.00  0.00     0.197 A 
ATOM      3  C   UNL d   1     -49.005  28.140  35.646  0.00  0.00     0.287 A 
ATOM      4  S   UNL d   1     -48.281  28.084  34.522  0.00  0.00    -0.043 SA
ATOM      5  C   UNL d   1     -48.355  28.457  35.250  0.00  0.00     0.095 A 
ATOM      6  O   UNL d   1     -49.277  28.358  36.397  0.00  0.00    -0.265 OA
ENDROOT
BRANCH   2   7
ATOM      7  N   UNL d   1     -49.036  27.024  33.824  0.00  0.00    -0.215 NA
BRANCH   7   8
ATOM      8  C   UNL d   1     -49.787  26.732  33.695  0.00  0.00     0.159 A 
ATOM      9  C   UNL d   1     -49.993  25.929  33.669  0.00  0.00     0.298 A 
ATOM     10  N   UNL d   1     -50.809  25.884  33.526  0.00  0.00    -0.209 N 
ATOM     11  O   UNL d   1     -49.483  25.295  33.768  0.00  0.00    -0.263 OA
ATOM     12  N   UNL d   1     -51.101  26.652  33.465  0.00  0.00    -0.238 N 
ATOM     13  C   UNL d   1     -50.469  27.177  33.569  0.00  0.00     0.104 A 
ATOM     14  C   UNL d   1     -51.880  26.864  33.324  0.00  0.00     0.120 C 
ATOM     15  C   UNL d   1     -50.508  27.995  33.552  0.00  0.00     0.022 C 
BRANCH  10  16
ATOM     16  C   UNL d   1     -51.246  25.198  33.458  0.00  0.00     0.085 A 
ATOM     17  C   UNL d   1     -50.860  24.469  33.382  0.00  0.00     0.019 A 
ATOM     18  C   UNL d   1     -51.298  23.783  33.314  0.00  0.00     0.002 A 
ATOM     19  C   UNL d   1     -52.129  23.808  33.320  0.00  0.00     0.000 A 
ATOM     20  C   UNL d   1     -52.511  24.535  33.395  0.00  0.00     0.002 A 
ATOM     21  C   UNL d   1     -52.070  25.228  33.464  0.00  0.00     0.019 A 
ENDBRANCH  10  16
ENDBRANCH   7   8
ENDBRANCH   2   7
BRANCH   5  22
ATOM     22  C   UNL d   1     -47.862  29.050  35.542  0.00  0.00     0.074 C 
BRANCH  22  23
ATOM     23  C   UNL d   1     -47.953  29.824  35.280  0.00  0.00     0.280 C 
ATOM     24  N   UNL d   1     -47.312  30.334  35.256  0.00  0.00    -0.208 NA
ATOM     25  O   UNL d   1     -48.697  30.095  35.038  0.00  0.00    -0.265 OA
BRANCH  24  26
ATOM     26  C   UNL d   1     -47.406  31.106  34.994  0.00  0.00     0.085 A 
ATOM     27  C   UNL d   1     -47.059  31.725  35.414  0.00  0.00     0.020 A 
ATOM     28  C   UNL d   1     -47.152  32.503  35.152  0.00  0.00     0.013 A 
ATOM     29  C   UNL d   1     -47.597  32.654  34.466  0.00  0.00     0.058 A 
ATOM     30  C   UNL d   1     -47.939  32.036  34.054  0.00  0.00     0.013 A 
ATOM     31 CL   UNL d   1     -47.690  33.432  34.205  0.00  0.00    -0.082 Cl
ATOM     32  C   UNL d   1     -47.846  31.258  34.315  0.00  0.00     0.020 A 
ENDBRANCH  24  26
ENDBRANCH  22  23
ENDBRANCH   5  22
TORSDOF 6
ENDMDL
