MODEL 1
REMARK VINA RESULT:      -6.7      0.000      0.000
REMARK  4 active torsions:
REMARK  status: ('A' for Active; 'I' for Inactive)
REMARK    1  A    between atoms: N_2  and  S_1 
REMARK    2  A    between atoms: C_4  and  S_1 
REMARK    3  A    between atoms: C_3  and  C_8 
REMARK       I    between atoms: N_5  and  C_3 
REMARK    4  A    between atoms: C_17  and  N_5 
ROOT
ATOM      1  C   UNL d   1     -41.704-123.018 -50.200  0.00  0.00     0.104 A 
ATOM      2  C   UNL d   1     -41.576-122.598 -51.788  0.00  0.00     0.058 A 
ATOM      3  C   UNL d   1     -41.455-123.579 -50.771  0.00  0.00     0.013 A 
ATOM      4  C   UNL d   1     -41.889-122.238 -50.440  0.00  0.00     0.013 A 
ATOM      5  C   UNL d   1     -41.395-123.359 -51.558  0.00  0.00     0.005 A 
ATOM      6  C   UNL d   1     -41.827-122.023 -51.231  0.00  0.00     0.005 A 
ENDROOT
BRANCH   1   7
ATOM      7  S   UNL d   1     -41.772-123.224 -49.395  0.00  0.00     0.272 S 
ATOM      8  O   UNL d   1     -41.125-123.755 -49.459  0.00  0.00    -0.200 OA
ATOM      9  O   UNL d   1     -42.424-122.691 -49.319  0.00  0.00    -0.200 OA
BRANCH   7  10
ATOM     10  N   UNL d   1     -41.855-123.418 -48.584  0.00  0.00    -0.225 N 
ATOM     11  C   UNL d   1     -42.594-123.631 -48.283  0.00  0.00     0.118 A 
ATOM     12  C   UNL d   1     -42.664-123.817 -47.491  0.00  0.00     0.142 A 
ATOM     13  O   UNL d   1     -41.985-123.793 -46.980  0.00  0.00    -0.300 OA
ATOM     14  C   UNL d   1     -41.256-123.583 -47.275  0.00  0.00     0.142 A 
ATOM     15  C   UNL d   1     -41.177-123.393 -48.073  0.00  0.00     0.118 A 
ENDBRANCH   7  10
ENDBRANCH   1   7
BRANCH   2  16
ATOM     16  C   UNL d   1     -41.517-122.367 -52.586  0.00  0.00     0.279 C 
ATOM     17  N   UNL d   1     -41.841-122.827 -53.186  0.00  0.00    -0.208 NA
ATOM     18  O   UNL d   1     -41.123-121.662 -52.759  0.00  0.00    -0.265 OA
BRANCH  17  19
ATOM     19  C   UNL d   1     -41.782-122.596 -53.985  0.00  0.00     0.085 A 
ATOM     20  C   UNL d   1     -42.292-122.015 -54.276  0.00  0.00     0.019 A 
ATOM     21  C   UNL d   1     -42.247-121.775 -55.064  0.00  0.00     0.002 A 
ATOM     22  C   UNL d   1     -41.687-122.123 -55.552  0.00  0.00     0.000 A 
ATOM     23  C   UNL d   1     -41.177-122.704 -55.261  0.00  0.00     0.002 A 
ATOM     24  C   UNL d   1     -41.227-122.936 -54.482  0.00  0.00     0.019 A 
ENDBRANCH  17  19
ENDBRANCH   2  16
TORSDOF 4
ENDMDL
MODEL 2
REMARK VINA RESULT:      -5.5      1.151      5.472
REMARK  4 active torsions:
REMARK  status: ('A' for Active; 'I' for Inactive)
REMARK    1  A    between atoms: N_2  and  S_1 
REMARK    2  A    between atoms: C_4  and  S_1 
REMARK    3  A    between atoms: C_3  and  C_8 
REMARK       I    between atoms: N_5  and  C_3 
REMARK    4  A    between atoms: C_17  and  N_5 
ROOT
ATOM      1  C   UNL d   1     -41.700-122.806 -52.230  0.00  0.00     0.104 A 
ATOM      2  C   UNL d   1     -41.734-123.135 -50.616  0.00  0.00     0.058 A 
ATOM      3  C   UNL d   1     -41.672-123.597 -51.955  0.00  0.00     0.013 A 
ATOM      4  C   UNL d   1     -41.746-122.178 -51.678  0.00  0.00     0.013 A 
ATOM      5  C   UNL d   1     -41.689-123.750 -51.150  0.00  0.00     0.005 A 
ATOM      6  C   UNL d   1     -41.763-122.337 -50.872  0.00  0.00     0.005 A 
ENDROOT
BRANCH   1   7
ATOM      7  S   UNL d   1     -41.684-122.632 -53.045  0.00  0.00     0.272 S 
ATOM      8  O   UNL d   1     -41.302-121.899 -52.898  0.00  0.00    -0.200 OA
ATOM      9  O   UNL d   1     -42.069-123.368 -53.204  0.00  0.00    -0.200 OA
BRANCH   7  10
ATOM     10  N   UNL d   1     -41.677-122.475 -53.868  0.00  0.00    -0.225 N 
ATOM     11  C   UNL d   1     -42.155-121.879 -54.181  0.00  0.00     0.118 A 
ATOM     12  C   UNL d   1     -42.140-121.735 -54.985  0.00  0.00     0.142 A 
ATOM     13  O   UNL d   1     -41.638-122.193 -55.496  0.00  0.00    -0.300 OA
ATOM     14  C   UNL d   1     -41.165-122.781 -55.189  0.00  0.00     0.142 A 
ATOM     15  C   UNL d   1     -41.175-122.932 -54.380  0.00  0.00     0.118 A 
ENDBRANCH   7  10
ENDBRANCH   1   7
BRANCH   2  16
ATOM     16  C   UNL d   1     -41.752-123.282 -49.796  0.00  0.00     0.279 C 
ATOM     17  N   UNL d   1     -42.373-123.011 -49.329  0.00  0.00    -0.208 NA
ATOM     18  O   UNL d   1     -41.127-123.708 -49.464  0.00  0.00    -0.265 OA
BRANCH  17  19
ATOM     19  C   UNL d   1     -42.390-123.159 -48.509  0.00  0.00     0.085 A 
ATOM     20  C   UNL d   1     -42.970-123.661 -48.202  0.00  0.00     0.019 A 
ATOM     21  C   UNL d   1     -43.002-123.817 -47.393  0.00  0.00     0.002 A 
ATOM     22  C   UNL d   1     -42.448-123.466 -46.899  0.00  0.00     0.000 A 
ATOM     23  C   UNL d   1     -41.869-122.964 -47.206  0.00  0.00     0.002 A 
ATOM     24  C   UNL d   1     -41.843-122.813 -48.007  0.00  0.00     0.019 A 
ENDBRANCH  17  19
ENDBRANCH   2  16
TORSDOF 4
ENDMDL
