MODEL 1
REMARK VINA RESULT:       0.5      0.000      0.000
REMARK  3 active torsions:
REMARK  status: ('A' for Active; 'I' for Inactive)
REMARK    1  A    between atoms: N_5  and  C_1 
REMARK    2  A    between atoms: C_9  and  C_2 
REMARK       I    between atoms: C_8  and  N_5 
REMARK    3  A    between atoms: C_13  and  C_8 
ROOT
ATOM      1  C   UNL d   1      59.107  -1.749  29.411  0.00  0.00     0.156 A 
ATOM      2  C   UNL d   1      59.897  -1.633  29.195  0.00  0.00     0.091 A 
ATOM      3  N   UNL d   1      58.764  -2.500  29.333  0.00  0.00    -0.289 N 
ATOM      4  C   UNL d   1      60.342  -2.268  28.901  0.00  0.00     0.201 A 
ATOM      5  C   UNL d   1      59.998  -3.014  28.824  0.00  0.00     0.055 A 
ATOM      6  C   UNL d   1      59.208  -3.130  29.041  0.00  0.00     0.069 A 
ATOM      7  O   UNL d   1      61.132  -2.152  28.684  0.00  0.00    -0.286 OA
ATOM      8  C   UNL d   1      57.974  -2.615  29.550  0.00  0.00     0.101 C 
ATOM      9  C   UNL d   1      60.443  -3.644  28.532  0.00  0.00     0.005 A 
ATOM     10  C   UNL d   1      58.864  -3.875  28.964  0.00  0.00     0.018 A 
ATOM     11  C   UNL d   1      60.092  -4.398  28.455  0.00  0.00     0.000 A 
ATOM     12  C   UNL d   1      59.310  -4.513  28.669  0.00  0.00     0.002 A 
ENDROOT
BRANCH   1  13
ATOM     13  N   UNL d   1      58.649  -1.113  29.709  0.00  0.00    -0.190 NA
ATOM     14  C   UNL d   1      58.128  -1.204  30.345  0.00  0.00     0.280 C 
ATOM     15  O   UNL d   1      58.061  -1.949  30.692  0.00  0.00    -0.265 OA
BRANCH  14  16
ATOM     16  C   UNL d   1      57.680  -0.574  30.633  0.00  0.00     0.058 A 
ATOM     17  C   UNL d   1      57.267  -0.092  30.103  0.00  0.00     0.005 A 
ATOM     18  C   UNL d   1      56.820   0.537  30.391  0.00  0.00     0.000 A 
ATOM     19  C   UNL d   1      56.788   0.681  31.203  0.00  0.00     0.000 A 
ATOM     20  C   UNL d   1      57.204   0.195  31.726  0.00  0.00     0.000 A 
ATOM     21  C   UNL d   1      57.651  -0.435  31.438  0.00  0.00     0.005 A 
ENDBRANCH  14  16
ENDBRANCH   1  13
BRANCH   2  22
ATOM     22  C   UNL d   1      60.241  -0.887  29.271  0.00  0.00     0.087 A 
ATOM     23  N   UNL d   1      60.146  -0.328  28.674  0.00  0.00    -0.244 NA
ATOM     24  C   UNL d   1      60.493   0.427  28.750  0.00  0.00     0.099 A 
ATOM     25  C   UNL d   1      60.936   0.606  29.435  0.00  0.00     0.021 A 
ATOM     26  C   UNL d   1      61.027   0.044  30.027  0.00  0.00     0.003 A 
ATOM     27  C   UNL d   1      60.681  -0.701  29.946  0.00  0.00     0.019 A 
ENDBRANCH   2  22
TORSDOF 3
ENDMDL
