MODEL 1
REMARK VINA RESULT:      79.5      0.000      0.000
REMARK  5 active torsions:
REMARK  status: ('A' for Active; 'I' for Inactive)
REMARK    1  A    between atoms: C_13  and  C_4 
REMARK    2  A    between atoms: S_11  and  C_5 
REMARK    3  A    between atoms: C_10  and  C_12 
REMARK    4  A    between atoms: C_15  and  S_11 
REMARK    5  A    between atoms: C_12  and  C_15 
ROOT
ATOM      1  N   UNL d   1     -49.593  27.810  34.065  0.00  0.00    -0.206 N 
ATOM      2  C   UNL d   1     -49.824  27.019  33.971  0.00  0.00     0.166 A 
ATOM      3  N   UNL d   1     -50.862  28.229  33.653  0.00  0.00    -0.163 NA
ATOM      4  C   UNL d   1     -50.573  26.838  33.719  0.00  0.00     0.055 A 
ATOM      5  C   UNL d   1     -48.828  27.973  34.322  0.00  0.00     0.116 A 
ATOM      6  C   UNL d   1     -51.091  27.443  33.560  0.00  0.00     0.104 A 
ATOM      7  N   UNL d   1     -49.284  26.412  34.137  0.00  0.00    -0.227 NA
ATOM      8  C   UNL d   1     -48.300  27.383  34.484  0.00  0.00     0.045 A 
ATOM      9  C   UNL d   1     -48.531  26.592  34.391  0.00  0.00     0.085 A 
ATOM     10  C   UNL d   1     -51.847  27.268  33.306  0.00  0.00     0.023 C 
ATOM     11  C   UNL d   1     -47.980  25.964  34.560  0.00  0.00     0.021 C 
ENDROOT
BRANCH   5  12
ATOM     12  S   UNL d   1     -48.587  28.787  34.420  0.00  0.00    -0.064 SA
BRANCH  12  13
ATOM     13  C   UNL d   1     -48.195  29.524  34.301  0.00  0.00     0.079 C 
BRANCH  13  14
ATOM     14  C   UNL d   1     -47.982  30.007  34.954  0.00  0.00     0.208 C 
ATOM     15  O   UNL d   1     -47.883  29.661  35.716  0.00  0.00    -0.285 OA
BRANCH  14  16
ATOM     16  C   UNL d   1     -47.870  30.832  34.844  0.00  0.00     0.069 A 
ATOM     17  S   UNL d   1     -47.227  31.300  35.138  0.00  0.00    -0.083 SA
ATOM     18  C   UNL d   1     -47.350  32.103  34.888  0.00  0.00     0.035 A 
ATOM     19  C   UNL d   1     -48.063  32.130  34.442  0.00  0.00     0.008 A 
ATOM     20  C   UNL d   1     -48.386  31.348  34.413  0.00  0.00     0.010 A 
ENDBRANCH  14  16
ENDBRANCH  13  14
ENDBRANCH  12  13
ENDBRANCH   5  12
BRANCH   4  21
ATOM     21  C   UNL d   1     -50.801  26.056  33.627  0.00  0.00     0.004 A 
ATOM     22  C   UNL d   1     -50.238  25.498  33.398  0.00  0.00     0.001 A 
ATOM     23  C   UNL d   1     -50.465  24.720  33.306  0.00  0.00     0.011 A 
ATOM     24  C   UNL d   1     -51.251  24.513  33.444  0.00  0.00     0.058 A 
ATOM     25  C   UNL d   1     -51.798  25.053  33.666  0.00  0.00     0.011 A 
ATOM     26 CL   UNL d   1     -51.489  23.697  33.348  0.00  0.00    -0.082 Cl
ATOM     27  C   UNL d   1     -51.567  25.843  33.760  0.00  0.00     0.001 A 
ENDBRANCH   4  21
TORSDOF 5
ENDMDL
