MODEL 1
REMARK VINA RESULT:      10.8      0.000      0.000
REMARK  2 active torsions:
REMARK  status: ('A' for Active; 'I' for Inactive)
REMARK    1  A    between atoms: C_5  and  N_1 
REMARK    2  A    between atoms: O_14  and  C_11 
ROOT
ATOM      1  C   UNL d   1     -51.660  25.172  33.313  0.00  0.00     0.069 A 
ATOM      2  C   UNL d   1     -50.835  25.126  33.306  0.00  0.00     0.020 A 
ATOM      3  C   UNL d   1     -52.017  25.934  33.320  0.00  0.00     0.020 A 
ATOM      4  C   UNL d   1     -50.712  26.536  33.312  0.00  0.00     0.094 A 
ATOM      5  C   UNL d   1     -50.371  25.808  33.306  0.00  0.00     0.026 A 
ATOM      6  C   UNL d   1     -51.547  26.615  33.320  0.00  0.00     0.026 A 
ENDROOT
BRANCH   1   7
ATOM      7  N   UNL d   1     -52.106  24.474  33.313  0.00  0.00    -0.249 N 
ATOM      8  C   UNL d   1     -51.798  23.709  33.315  0.00  0.00     0.208 A 
ATOM      9  N   UNL d   1     -52.469  23.189  33.314  0.00  0.00    -0.212 NA
ATOM     10  S   UNL d   1     -50.986  23.499  33.316  0.00  0.00    -0.038 SA
ATOM     11  C   UNL d   1     -53.140  23.666  33.313  0.00  0.00     0.162 A 
ATOM     12  C   UNL d   1     -52.908  24.457  33.313  0.00  0.00     0.286 A 
ATOM     13  O   UNL d   1     -53.415  25.135  33.311  0.00  0.00    -0.265 OA
ENDBRANCH   1   7
BRANCH   4  14
ATOM     14  O   UNL d   1     -50.224  27.199  33.311  0.00  0.00    -0.328 OA
ATOM     15  C   UNL d   1     -50.552  27.952  33.378  0.00  0.00     0.181 C 
ENDBRANCH   4  14
TORSDOF 2
ENDMDL
MODEL 2
REMARK VINA RESULT:      11.6      1.130      1.231
REMARK  2 active torsions:
REMARK  status: ('A' for Active; 'I' for Inactive)
REMARK    1  A    between atoms: C_5  and  N_1 
REMARK    2  A    between atoms: O_14  and  C_11 
ROOT
ATOM      1  C   UNL d   1     -51.853  25.129  33.344  0.00  0.00     0.069 A 
ATOM      2  C   UNL d   1     -51.032  25.045  33.326  0.00  0.00     0.020 A 
ATOM      3  C   UNL d   1     -52.176  25.906  33.352  0.00  0.00     0.020 A 
ATOM      4  C   UNL d   1     -50.845  26.448  33.325  0.00  0.00     0.094 A 
ATOM      5  C   UNL d   1     -50.537  25.705  33.317  0.00  0.00     0.026 A 
ATOM      6  C   UNL d   1     -51.675  26.564  33.343  0.00  0.00     0.026 A 
ENDROOT
BRANCH   1   7
ATOM      7  N   UNL d   1     -52.331  24.451  33.352  0.00  0.00    -0.249 N 
ATOM      8  C   UNL d   1     -53.155  24.446  33.343  0.00  0.00     0.208 A 
ATOM      9  N   UNL d   1     -53.382  23.628  33.358  0.00  0.00    -0.212 NA
ATOM     10  S   UNL d   1     -53.657  25.118  33.324  0.00  0.00    -0.038 SA
ATOM     11  C   UNL d   1     -52.686  23.188  33.375  0.00  0.00     0.162 A 
ATOM     12  C   UNL d   1     -52.043  23.703  33.371  0.00  0.00     0.286 A 
ATOM     13  O   UNL d   1     -51.223  23.491  33.385  0.00  0.00    -0.265 OA
ENDBRANCH   1   7
BRANCH   4  14
ATOM     14  O   UNL d   1     -50.327  27.088  33.315  0.00  0.00    -0.328 OA
ATOM     15  C   UNL d   1     -50.610  27.849  33.459  0.00  0.00     0.181 C 
ENDBRANCH   4  14
TORSDOF 2
ENDMDL
