MODEL 1
REMARK VINA RESULT:     -12.4      0.000      0.000
REMARK  1 active torsions:
REMARK  status: ('A' for Active; 'I' for Inactive)
REMARK    1  A    between atoms: C_2  and  C_1 
REMARK       I    between atoms: N_3  and  C_2 
ROOT
ATOM      1  C   UNL d   1     -48.193  11.682  23.210  0.00  0.00     0.248 C 
ATOM      2  N   UNL d   1     -47.638  12.298  23.223  0.00  0.00    -0.278 N 
ATOM      3  C   UNL d   1     -46.952  12.137  23.466  0.00  0.00     0.067 A 
ATOM      4  C   UNL d   1     -47.849  12.940  23.002  0.00  0.00     0.067 A 
ATOM      5  C   UNL d   1     -47.279  13.523  23.028  0.00  0.00     0.018 A 
ATOM      6  C   UNL d   1     -46.433  12.668  23.489  0.00  0.00     0.019 A 
ATOM      7  O   UNL d   1     -47.835  10.980  23.489  0.00  0.00    -0.271 OA
ATOM      8  C   UNL d   1     -46.796  11.442  23.683  0.00  0.00     0.019 C 
ATOM      9  C   UNL d   1     -48.610  13.114  22.734  0.00  0.00     0.018 A 
ATOM     10  C   UNL d   1     -47.457  14.287  22.788  0.00  0.00     0.002 A 
ATOM     11  C   UNL d   1     -48.792  13.882  22.491  0.00  0.00     0.002 A 
ATOM     12  C   UNL d   1     -48.213  14.467  22.519  0.00  0.00     0.000 A 
ENDROOT
BRANCH   1  13
ATOM     13  C   UNL d   1     -48.893  11.972  22.931  0.00  0.00     0.112 A 
ATOM     14  C   UNL d   1     -49.906  12.482  22.072  0.00  0.00     0.025 A 
ATOM     15  C   UNL d   1     -49.726  12.267  22.863  0.00  0.00     0.074 A 
ATOM     16  C   UNL d   1     -49.332  12.404  21.469  0.00  0.00     0.002 C 
ATOM     17  C   UNL d   1     -50.695  12.743  22.102  0.00  0.00     0.002 C 
ATOM     18  C   UNL d   1     -50.519  12.531  22.887  0.00  0.00     0.012 C 
ATOM     19  C   UNL d   1     -48.955  12.054  22.621  0.00  0.00    -0.023 A 
ATOM     20  C   UNL d   1     -50.290  12.343  23.458  0.00  0.00     0.172 A 
ATOM     21  C   UNL d   1     -48.190  11.759  22.804  0.00  0.00    -0.018 A 
ATOM     22  C   UNL d   1     -49.526  12.049  23.640  0.00  0.00     0.024 A 
ATOM     23  O   UNL d   1     -51.064  12.558  23.697  0.00  0.00    -0.291 OA
ENDBRANCH   1  13
TORSDOF 1
ENDMDL
MODEL 2
REMARK VINA RESULT:     -12.0      1.043      2.589
REMARK  1 active torsions:
REMARK  status: ('A' for Active; 'I' for Inactive)
REMARK    1  A    between atoms: C_2  and  C_1 
REMARK       I    between atoms: N_3  and  C_2 
ROOT
ATOM      1  C   UNL d   1     -48.801  11.863  23.207  0.00  0.00     0.248 C 
ATOM      2  N   UNL d   1     -49.406  12.416  23.332  0.00  0.00    -0.278 N 
ATOM      3  C   UNL d   1     -50.062  12.159  23.574  0.00  0.00     0.067 A 
ATOM      4  C   UNL d   1     -49.263  13.100  23.200  0.00  0.00     0.067 A 
ATOM      5  C   UNL d   1     -49.880  13.618  23.333  0.00  0.00     0.018 A 
ATOM      6  C   UNL d   1     -50.624  12.630  23.695  0.00  0.00     0.019 A 
ATOM      7  O   UNL d   1     -49.082  11.098  23.393  0.00  0.00    -0.271 OA
ATOM      8  C   UNL d   1     -50.146  11.428  23.693  0.00  0.00     0.019 C 
ATOM      9  C   UNL d   1     -48.535  13.381  22.932  0.00  0.00     0.018 A 
ATOM     10  C   UNL d   1     -49.781  14.421  23.201  0.00  0.00     0.002 A 
ATOM     11  C   UNL d   1     -48.432  14.189  22.798  0.00  0.00     0.002 A 
ATOM     12  C   UNL d   1     -49.058  14.707  22.933  0.00  0.00     0.000 A 
ENDROOT
BRANCH   1  13
ATOM     13  C   UNL d   1     -48.144  12.254  22.948  0.00  0.00     0.112 A 
ATOM     14  C   UNL d   1     -47.228  12.981  22.139  0.00  0.00     0.025 A 
ATOM     15  C   UNL d   1     -47.342  12.628  22.891  0.00  0.00     0.074 A 
ATOM     16  C   UNL d   1     -47.829  12.952  21.559  0.00  0.00     0.002 C 
ATOM     17  C   UNL d   1     -46.461  13.302  22.175  0.00  0.00     0.002 C 
ATOM     18  C   UNL d   1     -46.572  12.952  22.922  0.00  0.00     0.012 C 
ATOM     19  C   UNL d   1     -48.107  12.389  22.653  0.00  0.00    -0.023 A 
ATOM     20  C   UNL d   1     -46.751  12.655  23.464  0.00  0.00     0.172 A 
ATOM     21  C   UNL d   1     -48.835  12.004  22.820  0.00  0.00    -0.018 A 
ATOM     22  C   UNL d   1     -47.477  12.271  23.630  0.00  0.00     0.024 A 
ATOM     23  O   UNL d   1     -45.983  12.896  23.698  0.00  0.00    -0.291 OA
ENDBRANCH   1  13
TORSDOF 1
ENDMDL
MODEL 3
REMARK VINA RESULT:     -11.9      1.156      2.064
REMARK  1 active torsions:
REMARK  status: ('A' for Active; 'I' for Inactive)
REMARK    1  A    between atoms: C_2  and  C_1 
REMARK       I    between atoms: N_3  and  C_2 
ROOT
ATOM      1  C   UNL d   1     -47.419  13.514  22.676  0.00  0.00     0.248 C 
ATOM      2  N   UNL d   1     -47.494  12.793  23.079  0.00  0.00    -0.278 N 
ATOM      3  C   UNL d   1     -46.869  12.470  23.325  0.00  0.00     0.067 A 
ATOM      4  C   UNL d   1     -48.148  12.527  23.165  0.00  0.00     0.067 A 
ATOM      5  C   UNL d   1     -48.186  11.817  23.565  0.00  0.00     0.018 A 
ATOM      6  C   UNL d   1     -46.904  11.823  23.689  0.00  0.00     0.019 A 
ATOM      7  O   UNL d   1     -46.612  13.727  22.636  0.00  0.00    -0.271 OA
ATOM      8  C   UNL d   1     -46.214  12.803  23.201  0.00  0.00     0.019 C 
ATOM      9  C   UNL d   1     -48.838  12.887  22.891  0.00  0.00     0.018 A 
ATOM     10  C   UNL d   1     -48.911  11.455  23.698  0.00  0.00     0.002 A 
ATOM     11  C   UNL d   1     -49.568  12.526  23.023  0.00  0.00     0.002 A 
ATOM     12  C   UNL d   1     -49.602  11.810  23.428  0.00  0.00     0.000 A 
ENDROOT
BRANCH   1  13
ATOM     13  C   UNL d   1     -48.155  13.765  22.460  0.00  0.00     0.112 A 
ATOM     14  C   UNL d   1     -49.412  13.883  21.803  0.00  0.00     0.025 A 
ATOM     15  C   UNL d   1     -48.922  14.207  22.402  0.00  0.00     0.074 A 
ATOM     16  C   UNL d   1     -49.155  13.227  21.352  0.00  0.00     0.002 C 
ATOM     17  C   UNL d   1     -50.098  14.352  21.820  0.00  0.00     0.002 C 
ATOM     18  C   UNL d   1     -49.614  14.676  22.414  0.00  0.00     0.012 C 
ATOM     19  C   UNL d   1     -48.340  13.634  22.225  0.00  0.00    -0.023 A 
ATOM     20  C   UNL d   1     -49.173  14.853  22.847  0.00  0.00     0.172 A 
ATOM     21  C   UNL d   1     -47.586  13.293  22.369  0.00  0.00    -0.018 A 
ATOM     22  C   UNL d   1     -48.420  14.512  22.991  0.00  0.00     0.024 A 
ATOM     23  O   UNL d   1     -49.759  15.426  23.022  0.00  0.00    -0.291 OA
ENDBRANCH   1  13
TORSDOF 1
ENDMDL
MODEL 4
REMARK VINA RESULT:     -11.5      1.651      3.401
REMARK  1 active torsions:
REMARK  status: ('A' for Active; 'I' for Inactive)
REMARK    1  A    between atoms: C_2  and  C_1 
REMARK       I    between atoms: N_3  and  C_2 
ROOT
ATOM      1  C   UNL d   1     -48.496  14.575  22.973  0.00  0.00     0.248 C 
ATOM      2  N   UNL d   1     -49.056  14.298  22.428  0.00  0.00    -0.278 N 
ATOM      3  C   UNL d   1     -49.660  14.719  22.313  0.00  0.00     0.067 A 
ATOM      4  C   UNL d   1     -48.926  13.679  22.103  0.00  0.00     0.067 A 
ATOM      5  C   UNL d   1     -49.497  13.436  21.573  0.00  0.00     0.018 A 
ATOM      6  C   UNL d   1     -50.180  14.498  21.830  0.00  0.00     0.019 A 
ATOM      7  O   UNL d   1     -48.753  15.305  23.289  0.00  0.00    -0.271 OA
ATOM      8  C   UNL d   1     -49.735  15.359  22.687  0.00  0.00     0.019 C 
ATOM      9  C   UNL d   1     -48.256  13.216  22.233  0.00  0.00     0.018 A 
ATOM     10  C   UNL d   1     -49.408  12.730  21.164  0.00  0.00     0.002 A 
ATOM     11  C   UNL d   1     -48.163  12.505  21.823  0.00  0.00     0.002 A 
ATOM     12  C   UNL d   1     -48.742  12.265  21.289  0.00  0.00     0.000 A 
ENDROOT
BRANCH   1  13
ATOM     13  C   UNL d   1     -47.891  14.041  23.013  0.00  0.00     0.112 A 
ATOM     14  C   UNL d   1     -47.130  12.868  23.276  0.00  0.00     0.025 A 
ATOM     15  C   UNL d   1     -47.105  13.638  22.942  0.00  0.00     0.074 A 
ATOM     16  C   UNL d   1     -47.834  12.575  23.617  0.00  0.00     0.002 C 
ATOM     17  C   UNL d   1     -46.362  12.570  23.166  0.00  0.00     0.002 C 
ATOM     18  C   UNL d   1     -46.334  13.332  22.834  0.00  0.00     0.012 C 
ATOM     19  C   UNL d   1     -47.909  13.743  23.145  0.00  0.00    -0.023 A 
ATOM     20  C   UNL d   1     -46.412  13.928  22.605  0.00  0.00     0.172 A 
ATOM     21  C   UNL d   1     -48.601  14.219  23.157  0.00  0.00    -0.018 A 
ATOM     22  C   UNL d   1     -47.103  14.403  22.617  0.00  0.00     0.024 A 
ATOM     23  O   UNL d   1     -45.606  13.819  22.404  0.00  0.00    -0.291 OA
ENDBRANCH   1  13
TORSDOF 1
ENDMDL
MODEL 5
REMARK VINA RESULT:     -11.0      1.231      2.515
REMARK  1 active torsions:
REMARK  status: ('A' for Active; 'I' for Inactive)
REMARK    1  A    between atoms: C_2  and  C_1 
REMARK       I    between atoms: N_3  and  C_2 
ROOT
ATOM      1  C   UNL d   1     -50.304  13.630  23.196  0.00  0.00     0.248 C 
ATOM      2  N   UNL d   1     -49.870  14.336  23.158  0.00  0.00    -0.278 N 
ATOM      3  C   UNL d   1     -50.204  14.959  23.393  0.00  0.00     0.067 A 
ATOM      4  C   UNL d   1     -49.206  14.303  22.903  0.00  0.00     0.067 A 
ATOM      5  C   UNL d   1     -48.807  15.014  22.879  0.00  0.00     0.018 A 
ATOM      6  C   UNL d   1     -49.840  15.607  23.370  0.00  0.00     0.019 A 
ATOM      7  O   UNL d   1     -51.063  13.789  23.509  0.00  0.00    -0.271 OA
ATOM      8  C   UNL d   1     -50.903  14.923  23.648  0.00  0.00     0.019 C 
ATOM      9  C   UNL d   1     -48.839  13.612  22.644  0.00  0.00     0.018 A 
ATOM     10  C   UNL d   1     -48.037  15.047  22.596  0.00  0.00     0.002 A 
ATOM     11  C   UNL d   1     -48.065  13.641  22.359  0.00  0.00     0.002 A 
ATOM     12  C   UNL d   1     -47.666  14.361  22.336  0.00  0.00     0.000 A 
ENDROOT
BRANCH   1  13
ATOM     13  C   UNL d   1     -49.844  13.029  22.917  0.00  0.00     0.112 A 
ATOM     14  C   UNL d   1     -49.111  12.166  22.055  0.00  0.00     0.025 A 
ATOM     15  C   UNL d   1     -49.332  12.308  22.852  0.00  0.00     0.074 A 
ATOM     16  C   UNL d   1     -49.372  12.675  21.445  0.00  0.00     0.002 C 
ATOM     17  C   UNL d   1     -48.641  11.482  22.088  0.00  0.00     0.002 C 
ATOM     18  C   UNL d   1     -48.858  11.619  22.879  0.00  0.00     0.012 C 
ATOM     19  C   UNL d   1     -49.762  12.981  22.605  0.00  0.00    -0.023 A 
ATOM     20  C   UNL d   1     -49.077  11.808  23.454  0.00  0.00     0.172 A 
ATOM     21  C   UNL d   1     -50.249  13.641  22.786  0.00  0.00    -0.018 A 
ATOM     22  C   UNL d   1     -49.563  12.467  23.635  0.00  0.00     0.024 A 
ATOM     23  O   UNL d   1     -48.644  11.132  23.698  0.00  0.00    -0.291 OA
ENDBRANCH   1  13
TORSDOF 1
ENDMDL
