MODEL 1
REMARK VINA RESULT:      14.2      0.000      0.000
REMARK  3 active torsions:
REMARK  status: ('A' for Active; 'I' for Inactive)
REMARK       I    between atoms: C_6  and  N_1 
REMARK    1  A    between atoms: C_11  and  C_5 
REMARK    2  A    between atoms: C_12  and  C_6 
REMARK    3  A    between atoms: C_14  and  C_15 
ROOT
ATOM      1  N   UNL d   1     -41.546-122.095 -51.992  0.00  0.00    -0.264 N 
ATOM      2  C   UNL d   1     -41.415-122.057 -51.175  0.00  0.00     0.198 A 
ATOM      3  C   UNL d   1     -41.521-121.337 -52.288  0.00  0.00     0.138 A 
ATOM      4  N   UNL d   1     -41.310-121.276 -50.968  0.00  0.00    -0.243 NA
ATOM      5  C   UNL d   1     -41.375-120.825 -51.658  0.00  0.00     0.105 A 
ATOM      6  C   UNL d   1     -41.682-122.778 -52.453  0.00  0.00     0.263 C 
ATOM      7  C   UNL d   1     -41.274-121.852 -50.391  0.00  0.00     0.041 A 
ATOM      8  C   UNL d   1     -41.521-122.847 -51.379  0.00  0.00     0.041 A 
ATOM      9  S   UNL d   1     -41.624-121.120 -53.082  0.00  0.00    -0.058 SA
ATOM     10  N   UNL d   1     -41.344-123.232 -50.009  0.00  0.00    -0.302 N 
ATOM     11  O   UNL d   1     -41.697-123.519 -52.098  0.00  0.00    -0.267 OA
ATOM     12  C   UNL d   1     -41.486-123.438 -50.793  0.00  0.00     0.080 A 
ATOM     13  C   UNL d   1     -41.238-122.442 -49.805  0.00  0.00     0.080 A 
ATOM     14  C   UNL d   1     -41.309-123.817 -49.428  0.00  0.00     0.100 C 
ENDROOT
BRANCH   6  15
ATOM     15  C   UNL d   1     -41.801-122.704 -53.259  0.00  0.00     0.056 A 
ATOM     16  C   UNL d   1     -41.182-122.834 -53.783  0.00  0.00     0.004 A 
ATOM     17  C   UNL d   1     -41.305-122.759 -54.592  0.00  0.00    -0.004 A 
ATOM     18  C   UNL d   1     -42.051-122.552 -54.878  0.00  0.00    -0.023 A 
ATOM     19  C   UNL d   1     -42.670-122.422 -54.354  0.00  0.00    -0.004 A 
ATOM     20  C   UNL d   1     -42.544-122.498 -53.543  0.00  0.00     0.004 A 
BRANCH  18  21
ATOM     21  C   UNL d   1     -42.175-122.476 -55.693  0.00  0.00     0.019 C 
ATOM     22  C   UNL d   1     -41.368-122.312 -55.798  0.00  0.00     0.004 C 
ATOM     23  C   UNL d   1     -42.971-122.638 -55.590  0.00  0.00     0.004 C 
ATOM     24  C   UNL d   1     -42.297-122.399 -56.510  0.00  0.00     0.004 C 
ENDBRANCH  18  21
ENDBRANCH   6  15
BRANCH   5  25
ATOM     25  C   UNL d   1     -41.312-120.012 -51.748  0.00  0.00     0.020 A 
ATOM     26  C   UNL d   1     -41.208-119.526 -51.086  0.00  0.00     0.004 A 
ATOM     27  C   UNL d   1     -41.146-118.708 -51.182  0.00  0.00     0.030 A 
ATOM     28  C   UNL d   1     -41.187-118.374 -51.937  0.00  0.00     0.140 A 
ATOM     29  C   UNL d   1     -41.292-118.863 -52.595  0.00  0.00     0.030 A 
ATOM     30  F   UNL d   1     -41.124-117.549 -52.029  0.00  0.00    -0.204 F 
ATOM     31  C   UNL d   1     -41.354-119.675 -52.506  0.00  0.00     0.004 A 
ENDBRANCH   5  25
TORSDOF 3
ENDMDL
