MODEL 1
REMARK VINA RESULT:      -7.1      0.000      0.000
REMARK  3 active torsions:
REMARK  status: ('A' for Active; 'I' for Inactive)
REMARK    1  A    between atoms: C_12  and  C_4 
REMARK    2  A    between atoms: S_8  and  C_12 
REMARK    3  A    between atoms: C_11  and  S_8 
ROOT
ATOM      1  N   UNL d   1     -46.680  12.935  23.062  0.00  0.00    -0.289 N 
ATOM      2  C   UNL d   1     -46.354  13.545  22.574  0.00  0.00     0.148 A 
ATOM      3  N   UNL d   1     -46.921  14.166  22.527  0.00  0.00    -0.226 NA
ATOM      4  C   UNL d   1     -47.561  13.920  22.980  0.00  0.00     0.107 A 
ATOM      5  C   UNL d   1     -47.433  13.206  23.296  0.00  0.00     0.101 A 
ATOM      6  C   UNL d   1     -46.241  12.266  23.198  0.00  0.00     0.066 A 
ATOM      7  C   UNL d   1     -45.604  13.460  22.242  0.00  0.00     0.037 A 
ATOM      8  C   UNL d   1     -45.171  12.768  22.393  0.00  0.00     0.005 A 
ATOM      9  C   UNL d   1     -45.483  12.184  22.861  0.00  0.00     0.018 A 
ATOM     10  C   UNL d   1     -46.564  11.659  23.684  0.00  0.00     0.019 C 
ENDROOT
BRANCH   4  11
ATOM     11  C   UNL d   1     -48.246  14.404  23.066  0.00  0.00     0.056 C 
BRANCH  11  12
ATOM     12  S   UNL d   1     -48.921  14.174  22.656  0.00  0.00    -0.083 SA
BRANCH  12  13
ATOM     13  C   UNL d   1     -49.651  14.582  22.792  0.00  0.00     0.049 A 
ATOM     14  C   UNL d   1     -50.304  14.420  22.322  0.00  0.00     0.109 A 
ATOM     15  N   UNL d   1     -50.247  13.834  21.689  0.00  0.00    -0.148 N 
ATOM     16  C   UNL d   1     -51.014  14.816  22.455  0.00  0.00     0.021 A 
ATOM     17  C   UNL d   1     -51.063  15.370  23.056  0.00  0.00     0.002 A 
ATOM     18  C   UNL d   1     -50.446  15.529  23.506  0.00  0.00     0.001 A 
ATOM     19  C   UNL d   1     -49.702  15.140  23.397  0.00  0.00     0.008 A 
ENDBRANCH  12  13
ENDBRANCH  11  12
ENDBRANCH   4  11
TORSDOF 3
ENDMDL
MODEL 2
REMARK VINA RESULT:      -6.9      0.952      4.386
REMARK  3 active torsions:
REMARK  status: ('A' for Active; 'I' for Inactive)
REMARK    1  A    between atoms: C_12  and  C_4 
REMARK    2  A    between atoms: S_8  and  C_12 
REMARK    3  A    between atoms: C_11  and  S_8 
ROOT
ATOM      1  N   UNL d   1     -49.796  14.297  23.144  0.00  0.00    -0.289 N 
ATOM      2  C   UNL d   1     -49.482  15.076  23.240  0.00  0.00     0.148 A 
ATOM      3  N   UNL d   1     -48.667  15.053  23.028  0.00  0.00    -0.226 NA
ATOM      4  C   UNL d   1     -48.514  14.274  22.813  0.00  0.00     0.107 A 
ATOM      5  C   UNL d   1     -49.163  13.825  22.877  0.00  0.00     0.101 A 
ATOM      6  C   UNL d   1     -50.579  14.166  23.314  0.00  0.00     0.066 A 
ATOM      7  C   UNL d   1     -49.964  15.693  23.502  0.00  0.00     0.037 A 
ATOM      8  C   UNL d   1     -50.762  15.540  23.670  0.00  0.00     0.005 A 
ATOM      9  C   UNL d   1     -51.063  14.792  23.578  0.00  0.00     0.018 A 
ATOM     10  C   UNL d   1     -50.892  13.391  23.218  0.00  0.00     0.019 C 
ENDROOT
BRANCH   4  11
ATOM     11  C   UNL d   1     -47.745  14.034  22.564  0.00  0.00     0.056 C 
BRANCH  11  12
ATOM     12  S   UNL d   1     -47.361  13.471  23.025  0.00  0.00    -0.083 SA
BRANCH  12  13
ATOM     13  C   UNL d   1     -46.584  13.214  22.808  0.00  0.00     0.049 A 
ATOM     14  C   UNL d   1     -46.275  12.526  23.132  0.00  0.00     0.109 A 
ATOM     15  N   UNL d   1     -46.742  12.066  23.695  0.00  0.00    -0.148 N 
ATOM     16  C   UNL d   1     -45.519  12.276  22.920  0.00  0.00     0.021 A 
ATOM     17  C   UNL d   1     -45.081  12.715  22.387  0.00  0.00     0.002 A 
ATOM     18  C   UNL d   1     -45.369  13.370  22.074  0.00  0.00     0.001 A 
ATOM     19  C   UNL d   1     -46.141  13.656  22.270  0.00  0.00     0.008 A 
ENDBRANCH  12  13
ENDBRANCH  11  12
ENDBRANCH   4  11
TORSDOF 3
ENDMDL
MODEL 3
REMARK VINA RESULT:      -6.7      1.044      4.512
REMARK  3 active torsions:
REMARK  status: ('A' for Active; 'I' for Inactive)
REMARK    1  A    between atoms: C_12  and  C_4 
REMARK    2  A    between atoms: S_8  and  C_12 
REMARK    3  A    between atoms: C_11  and  S_8 
ROOT
ATOM      1  N   UNL d   1     -49.953  14.264  22.874  0.00  0.00    -0.289 N 
ATOM      2  C   UNL d   1     -50.049  13.728  22.226  0.00  0.00     0.148 A 
ATOM      3  N   UNL d   1     -49.507  13.093  22.336  0.00  0.00    -0.226 NA
ATOM      4  C   UNL d   1     -49.106  13.259  23.035  0.00  0.00     0.107 A 
ATOM      5  C   UNL d   1     -49.357  13.937  23.357  0.00  0.00     0.101 A 
ATOM      6  C   UNL d   1     -50.415  14.931  22.902  0.00  0.00     0.066 A 
ATOM      7  C   UNL d   1     -50.602  13.882  21.633  0.00  0.00     0.037 A 
ATOM      8  C   UNL d   1     -51.064  14.569  21.680  0.00  0.00     0.005 A 
ATOM      9  C   UNL d   1     -50.973  15.083  22.301  0.00  0.00     0.018 A 
ATOM     10  C   UNL d   1     -50.320  15.465  23.546  0.00  0.00     0.019 C 
ENDROOT
BRANCH   4  11
ATOM     11  C   UNL d   1     -48.511  12.740  23.329  0.00  0.00     0.056 C 
BRANCH  11  12
ATOM     12  S   UNL d   1     -47.741  12.867  23.068  0.00  0.00    -0.083 SA
BRANCH  12  13
ATOM     13  C   UNL d   1     -47.140  12.298  23.248  0.00  0.00     0.049 A 
ATOM     14  C   UNL d   1     -46.349  12.491  23.145  0.00  0.00     0.109 A 
ATOM     15  N   UNL d   1     -46.130  13.274  22.853  0.00  0.00    -0.148 N 
ATOM     16  C   UNL d   1     -45.764  11.937  23.321  0.00  0.00     0.021 A 
ATOM     17  C   UNL d   1     -45.977  11.197  23.597  0.00  0.00     0.002 A 
ATOM     18  C   UNL d   1     -46.727  11.007  23.698  0.00  0.00     0.001 A 
ATOM     19  C   UNL d   1     -47.353  11.552  23.527  0.00  0.00     0.008 A 
ENDBRANCH  12  13
ENDBRANCH  11  12
ENDBRANCH   4  11
TORSDOF 3
ENDMDL
MODEL 4
REMARK VINA RESULT:      -5.3      1.235      4.429
REMARK  3 active torsions:
REMARK  status: ('A' for Active; 'I' for Inactive)
REMARK    1  A    between atoms: C_12  and  C_4 
REMARK    2  A    between atoms: S_8  and  C_12 
REMARK    3  A    between atoms: C_11  and  S_8 
ROOT
ATOM      1  N   UNL d   1     -48.748  13.885  22.178  0.00  0.00    -0.289 N 
ATOM      2  C   UNL d   1     -48.410  14.512  22.634  0.00  0.00     0.148 A 
ATOM      3  N   UNL d   1     -47.646  14.263  22.885  0.00  0.00    -0.226 NA
ATOM      4  C   UNL d   1     -47.544  13.507  22.579  0.00  0.00     0.107 A 
ATOM      5  C   UNL d   1     -48.178  13.276  22.165  0.00  0.00     0.101 A 
ATOM      6  C   UNL d   1     -49.492  13.984  21.867  0.00  0.00     0.066 A 
ATOM      7  C   UNL d   1     -48.830  15.211  22.761  0.00  0.00     0.037 A 
ATOM      8  C   UNL d   1     -49.588  15.292  22.435  0.00  0.00     0.005 A 
ATOM      9  C   UNL d   1     -49.912  14.692  21.998  0.00  0.00     0.018 A 
ATOM     10  C   UNL d   1     -49.829  13.360  21.412  0.00  0.00     0.019 C 
ENDROOT
BRANCH   4  11
ATOM     11  C   UNL d   1     -46.834  13.073  22.715  0.00  0.00     0.056 C 
BRANCH  11  12
ATOM     12  S   UNL d   1     -46.869  12.463  23.267  0.00  0.00    -0.083 SA
BRANCH  12  13
ATOM     13  C   UNL d   1     -46.235  11.904  23.311  0.00  0.00     0.049 A 
ATOM     14  C   UNL d   1     -46.389  11.125  23.518  0.00  0.00     0.109 A 
ATOM     15  N   UNL d   1     -47.198  10.876  23.690  0.00  0.00    -0.148 N 
ATOM     16  C   UNL d   1     -45.771  10.581  23.560  0.00  0.00     0.021 A 
ATOM     17  C   UNL d   1     -45.007  10.822  23.396  0.00  0.00     0.002 A 
ATOM     18  C   UNL d   1     -44.853  11.561  23.198  0.00  0.00     0.001 A 
ATOM     19  C   UNL d   1     -45.463  12.145  23.145  0.00  0.00     0.008 A 
ENDBRANCH  12  13
ENDBRANCH  11  12
ENDBRANCH   4  11
TORSDOF 3
ENDMDL
MODEL 5
REMARK VINA RESULT:      -5.3      8.699      9.252
REMARK  3 active torsions:
REMARK  status: ('A' for Active; 'I' for Inactive)
REMARK    1  A    between atoms: C_12  and  C_4 
REMARK    2  A    between atoms: S_8  and  C_12 
REMARK    3  A    between atoms: C_11  and  S_8 
ROOT
ATOM      1  N   UNL d   1     -39.193  14.992  21.578  0.00  0.00    -0.289 N 
ATOM      2  C   UNL d   1     -39.552  14.227  21.532  0.00  0.00     0.148 A 
ATOM      3  N   UNL d   1     -40.019  14.204  20.831  0.00  0.00    -0.226 NA
ATOM      4  C   UNL d   1     -39.932  14.943  20.479  0.00  0.00     0.107 A 
ATOM      5  C   UNL d   1     -39.454  15.409  20.904  0.00  0.00     0.101 A 
ATOM      6  C   UNL d   1     -38.709  15.160  22.208  0.00  0.00     0.066 A 
ATOM      7  C   UNL d   1     -39.413  13.662  22.117  0.00  0.00     0.037 A 
ATOM      8  C   UNL d   1     -38.915  13.854  22.753  0.00  0.00     0.005 A 
ATOM      9  C   UNL d   1     -38.571  14.587  22.797  0.00  0.00     0.018 A 
ATOM     10  C   UNL d   1     -38.352  15.921  22.254  0.00  0.00     0.019 C 
ENDROOT
BRANCH   4  11
ATOM     11  C   UNL d   1     -40.323  15.130  19.757  0.00  0.00     0.056 C 
BRANCH  11  12
ATOM     12  S   UNL d   1     -40.018  14.798  19.069  0.00  0.00    -0.083 SA
BRANCH  12  13
ATOM     13  C   UNL d   1     -40.329  15.035  18.318  0.00  0.00     0.049 A 
ATOM     14  C   UNL d   1     -40.150  14.601  17.644  0.00  0.00     0.109 A 
ATOM     15  N   UNL d   1     -39.645  13.902  17.703  0.00  0.00    -0.148 N 
ATOM     16  C   UNL d   1     -40.452  14.832  16.914  0.00  0.00     0.021 A 
ATOM     17  C   UNL d   1     -40.930  15.494  16.864  0.00  0.00     0.002 A 
ATOM     18  C   UNL d   1     -41.105  15.912  17.500  0.00  0.00     0.001 A 
ATOM     19  C   UNL d   1     -40.811  15.703  18.266  0.00  0.00     0.008 A 
ENDBRANCH  12  13
ENDBRANCH  11  12
ENDBRANCH   4  11
TORSDOF 3
ENDMDL
MODEL 6
REMARK VINA RESULT:      -5.2      8.767      9.680
REMARK  3 active torsions:
REMARK  status: ('A' for Active; 'I' for Inactive)
REMARK    1  A    between atoms: C_12  and  C_4 
REMARK    2  A    between atoms: S_8  and  C_12 
REMARK    3  A    between atoms: C_11  and  S_8 
ROOT
ATOM      1  N   UNL d   1     -40.072  14.688  18.247  0.00  0.00    -0.289 N 
ATOM      2  C   UNL d   1     -40.594  15.295  18.521  0.00  0.00     0.148 A 
ATOM      3  N   UNL d   1     -40.606  15.264  19.362  0.00  0.00    -0.226 NA
ATOM      4  C   UNL d   1     -40.101  14.649  19.571  0.00  0.00     0.107 A 
ATOM      5  C   UNL d   1     -39.785  14.306  18.931  0.00  0.00     0.101 A 
ATOM      6  C   UNL d   1     -39.960  14.598  17.448  0.00  0.00     0.066 A 
ATOM      7  C   UNL d   1     -40.981  15.788  17.984  0.00  0.00     0.037 A 
ATOM      8  C   UNL d   1     -40.854  15.680  17.171  0.00  0.00     0.005 A 
ATOM      9  C   UNL d   1     -40.354  15.097  16.909  0.00  0.00     0.018 A 
ATOM     10  C   UNL d   1     -39.441  13.993  17.176  0.00  0.00     0.019 C 
ENDROOT
BRANCH   4  11
ATOM     11  C   UNL d   1     -39.970  14.448  20.379  0.00  0.00     0.056 C 
BRANCH  11  12
ATOM     12  S   UNL d   1     -39.373  14.855  20.773  0.00  0.00    -0.083 SA
BRANCH  12  13
ATOM     13  C   UNL d   1     -39.145  14.608  21.551  0.00  0.00     0.049 A 
ATOM     14  C   UNL d   1     -38.740  15.126  22.042  0.00  0.00     0.109 A 
ATOM     15  N   UNL d   1     -38.547  15.922  21.766  0.00  0.00    -0.148 N 
ATOM     16  C   UNL d   1     -38.517  14.886  22.799  0.00  0.00     0.021 A 
ATOM     17  C   UNL d   1     -38.702  14.132  23.055  0.00  0.00     0.002 A 
ATOM     18  C   UNL d   1     -39.087  13.634  22.593  0.00  0.00     0.001 A 
ATOM     19  C   UNL d   1     -39.330  13.848  21.811  0.00  0.00     0.008 A 
ENDBRANCH  12  13
ENDBRANCH  11  12
ENDBRANCH   4  11
TORSDOF 3
ENDMDL
MODEL 7
REMARK VINA RESULT:      -5.2      1.363      2.238
REMARK  3 active torsions:
REMARK  status: ('A' for Active; 'I' for Inactive)
REMARK    1  A    between atoms: C_12  and  C_4 
REMARK    2  A    between atoms: S_8  and  C_12 
REMARK    3  A    between atoms: C_11  and  S_8 
ROOT
ATOM      1  N   UNL d   1     -45.115  11.832  22.966  0.00  0.00    -0.289 N 
ATOM      2  C   UNL d   1     -45.694  11.396  23.402  0.00  0.00     0.148 A 
ATOM      3  N   UNL d   1     -46.392  11.867  23.444  0.00  0.00    -0.226 NA
ATOM      4  C   UNL d   1     -46.218  12.562  23.040  0.00  0.00     0.107 A 
ATOM      5  C   UNL d   1     -45.479  12.553  22.757  0.00  0.00     0.101 A 
ATOM      6  C   UNL d   1     -44.384  11.500  22.844  0.00  0.00     0.066 A 
ATOM      7  C   UNL d   1     -45.519  10.646  23.697  0.00  0.00     0.037 A 
ATOM      8  C   UNL d   1     -44.767  10.324  23.562  0.00  0.00     0.005 A 
ATOM      9  C   UNL d   1     -44.211  10.742  23.144  0.00  0.00     0.018 A 
ATOM     10  C   UNL d   1     -43.808  11.934  22.410  0.00  0.00     0.019 C 
ENDROOT
BRANCH   4  11
ATOM     11  C   UNL d   1     -46.790  13.176  22.963  0.00  0.00     0.056 C 
BRANCH  11  12
ATOM     12  S   UNL d   1     -47.401  13.053  22.427  0.00  0.00    -0.083 SA
BRANCH  12  13
ATOM     13  C   UNL d   1     -48.002  13.644  22.337  0.00  0.00     0.049 A 
ATOM     14  C   UNL d   1     -48.615  13.527  21.803  0.00  0.00     0.109 A 
ATOM     15  N   UNL d   1     -48.646  12.803  21.333  0.00  0.00    -0.148 N 
ATOM     16  C   UNL d   1     -49.199  14.102  21.716  0.00  0.00     0.021 A 
ATOM     17  C   UNL d   1     -49.165  14.786  22.163  0.00  0.00     0.002 A 
ATOM     18  C   UNL d   1     -48.585  14.903  22.673  0.00  0.00     0.001 A 
ATOM     19  C   UNL d   1     -47.969  14.334  22.787  0.00  0.00     0.008 A 
ENDBRANCH  12  13
ENDBRANCH  11  12
ENDBRANCH   4  11
TORSDOF 3
ENDMDL
MODEL 8
REMARK VINA RESULT:      -5.1      8.051     10.440
REMARK  3 active torsions:
REMARK  status: ('A' for Active; 'I' for Inactive)
REMARK    1  A    between atoms: C_12  and  C_4 
REMARK    2  A    between atoms: S_8  and  C_12 
REMARK    3  A    between atoms: C_11  and  S_8 
ROOT
ATOM      1  N   UNL d   1     -40.060  15.686  20.170  0.00  0.00    -0.289 N 
ATOM      2  C   UNL d   1     -39.232  15.687  20.341  0.00  0.00     0.148 A 
ATOM      3  N   UNL d   1     -38.820  15.555  19.618  0.00  0.00    -0.226 NA
ATOM      4  C   UNL d   1     -39.400  15.479  19.040  0.00  0.00     0.107 A 
ATOM      5  C   UNL d   1     -40.125  15.554  19.348  0.00  0.00     0.101 A 
ATOM      6  C   UNL d   1     -40.586  15.803  20.777  0.00  0.00     0.066 A 
ATOM      7  C   UNL d   1     -38.964  15.804  21.112  0.00  0.00     0.037 A 
ATOM      8  C   UNL d   1     -39.517  15.922  21.719  0.00  0.00     0.005 A 
ATOM      9  C   UNL d   1     -40.311  15.921  21.555  0.00  0.00     0.018 A 
ATOM     10  C   UNL d   1     -41.411  15.802  20.606  0.00  0.00     0.019 C 
ENDROOT
BRANCH   4  11
ATOM     11  C   UNL d   1     -39.196  15.341  18.234  0.00  0.00     0.056 C 
BRANCH  11  12
ATOM     12  S   UNL d   1     -39.103  14.557  18.001  0.00  0.00    -0.083 SA
BRANCH  12  13
ATOM     13  C   UNL d   1     -38.821  14.385  17.222  0.00  0.00     0.049 A 
ATOM     14  C   UNL d   1     -38.612  13.616  17.022  0.00  0.00     0.109 A 
ATOM     15  N   UNL d   1     -38.680  12.984  17.608  0.00  0.00    -0.148 N 
ATOM     16  C   UNL d   1     -38.337  13.449  16.264  0.00  0.00     0.021 A 
ATOM     17  C   UNL d   1     -38.274  14.051  15.713  0.00  0.00     0.002 A 
ATOM     18  C   UNL d   1     -38.470  14.783  15.896  0.00  0.00     0.001 A 
ATOM     19  C   UNL d   1     -38.756  14.991  16.665  0.00  0.00     0.008 A 
ENDBRANCH  12  13
ENDBRANCH  11  12
ENDBRANCH   4  11
TORSDOF 3
ENDMDL
MODEL 9
REMARK VINA RESULT:      -5.1      8.273     10.039
REMARK  3 active torsions:
REMARK  status: ('A' for Active; 'I' for Inactive)
REMARK    1  A    between atoms: C_12  and  C_4 
REMARK    2  A    between atoms: S_8  and  C_12 
REMARK    3  A    between atoms: C_11  and  S_8 
ROOT
ATOM      1  N   UNL d   1     -38.749  13.838  17.250  0.00  0.00    -0.289 N 
ATOM      2  C   UNL d   1     -38.896  14.535  16.793  0.00  0.00     0.148 A 
ATOM      3  N   UNL d   1     -39.344  15.065  17.270  0.00  0.00    -0.226 NA
ATOM      4  C   UNL d   1     -39.454  14.682  17.989  0.00  0.00     0.107 A 
ATOM      5  C   UNL d   1     -39.113  13.968  17.990  0.00  0.00     0.101 A 
ATOM      6  C   UNL d   1     -38.324  13.232  16.916  0.00  0.00     0.066 A 
ATOM      7  C   UNL d   1     -38.611  14.597  16.021  0.00  0.00     0.037 A 
ATOM      8  C   UNL d   1     -38.179  13.967  15.697  0.00  0.00     0.005 A 
ATOM      9  C   UNL d   1     -38.038  13.299  16.135  0.00  0.00     0.018 A 
ATOM     10  C   UNL d   1     -38.178  12.539  17.370  0.00  0.00     0.019 C 
ENDROOT
BRANCH   4  11
ATOM     11  C   UNL d   1     -39.883  15.047  18.616  0.00  0.00     0.056 C 
BRANCH  11  12
ATOM     12  S   UNL d   1     -39.638  14.879  19.383  0.00  0.00    -0.083 SA
BRANCH  12  13
ATOM     13  C   UNL d   1     -40.044  15.235  20.037  0.00  0.00     0.049 A 
ATOM     14  C   UNL d   1     -39.651  15.351  20.748  0.00  0.00     0.109 A 
ATOM     15  N   UNL d   1     -38.825  15.112  20.830  0.00  0.00    -0.148 N 
ATOM     16  C   UNL d   1     -40.046  15.697  21.384  0.00  0.00     0.021 A 
ATOM     17  C   UNL d   1     -40.828  15.922  21.301  0.00  0.00     0.002 A 
ATOM     18  C   UNL d   1     -41.208  15.814  20.628  0.00  0.00     0.001 A 
ATOM     19  C   UNL d   1     -40.833  15.462  19.955  0.00  0.00     0.008 A 
ENDBRANCH  12  13
ENDBRANCH  11  12
ENDBRANCH   4  11
TORSDOF 3
ENDMDL
