MODEL 1
REMARK VINA RESULT:       4.0      0.000      0.000
REMARK  3 active torsions:
REMARK  status: ('A' for Active; 'I' for Inactive)
REMARK    1  A    between atoms: S_6  and  C_2 
REMARK    2  A    between atoms: C_9  and  S_6 
REMARK    3  A    between atoms: C_7  and  C_9 
ROOT
ATOM      1  N   UNL d   1     -51.915  26.228  33.323  0.00  0.00    -0.196 NA
ATOM      2  C   UNL d   1     -51.309  25.657  33.319  0.00  0.00     0.213 A 
ATOM      3  N   UNL d   1     -50.737  26.872  33.336  0.00  0.00    -0.123 NA
ATOM      4  N   UNL d   1     -50.585  26.056  33.326  0.00  0.00    -0.120 NA
ATOM      5  C   UNL d   1     -51.553  26.980  33.334  0.00  0.00     0.224 A 
ENDROOT
BRANCH   2   6
ATOM      6  S   UNL d   1     -51.417  24.840  33.308  0.00  0.00    -0.062 SA
BRANCH   6   7
ATOM      7  C   UNL d   1     -52.151  24.513  33.512  0.00  0.00     0.162 C 
BRANCH   7   8
ATOM      8  C   UNL d   1     -52.268  23.696  33.486  0.00  0.00     0.197 C 
ATOM      9  O   UNL d   1     -51.627  23.193  33.316  0.00  0.00    -0.647 OA
ATOM     10  O   UNL d   1     -53.017  23.381  33.629  0.00  0.00    -0.647 OA
ENDBRANCH   7   8
ENDBRANCH   6   7
ENDBRANCH   2   6
TORSDOF 3
ENDMDL
