MODEL 1
REMARK VINA RESULT:      -7.2      0.000      0.000
REMARK  3 active torsions:
REMARK  status: ('A' for Active; 'I' for Inactive)
REMARK    1  A    between atoms: S_8  and  C_1 
REMARK       I    between atoms: N_4  and  C_5 
REMARK    2  A    between atoms: C_5  and  C_9 
REMARK    3  A    between atoms: C_9  and  S_8 
ROOT
ATOM      1  S   UNL d   1      52.949  32.153  53.013  0.00  0.00    -0.056 SA
ENDROOT
BRANCH   1   2
ATOM      2  C   UNL d   1      52.957  32.904  53.329  0.00  0.00     0.141 A 
ATOM      3  N   UNL d   1      53.471  33.186  53.905  0.00  0.00    -0.232 NA
ATOM      4  C   UNL d   1      53.285  33.969  54.060  0.00  0.00     0.088 A 
ATOM      5  C   UNL d   1      53.612  34.518  54.578  0.00  0.00     0.020 A 
ATOM      6  C   UNL d   1      52.639  34.183  53.571  0.00  0.00     0.049 A 
ATOM      7  C   UNL d   1      53.287  35.293  54.607  0.00  0.00     0.002 A 
ATOM      8  C   UNL d   1      52.669  35.497  54.138  0.00  0.00     0.001 A 
ATOM      9  C   UNL d   1      52.332  34.941  53.608  0.00  0.00     0.008 A 
ATOM     10  S   UNL d   1      52.448  33.524  53.129  0.00  0.00    -0.060 SA
ENDBRANCH   1   2
BRANCH   1  11
ATOM     11  C   UNL d   1      53.026  31.496  53.501  0.00  0.00     0.098 C 
BRANCH  11  12
ATOM     12  C   UNL d   1      52.987  30.716  53.193  0.00  0.00     0.271 C 
ATOM     13  N   UNL d   1      53.084  30.048  53.695  0.00  0.00    -0.272 N 
ATOM     14  C   UNL d   1      53.045  29.293  53.382  0.00  0.00     0.083 A 
ATOM     15  C   UNL d   1      53.217  30.165  54.490  0.00  0.00     0.083 A 
ATOM     16  C   UNL d   1      53.137  28.648  53.859  0.00  0.00     0.019 A 
ATOM     17  C   UNL d   1      53.275  28.765  54.684  0.00  0.00     0.003 A 
ATOM     18  C   UNL d   1      53.313  29.498  54.989  0.00  0.00     0.019 A 
ATOM     19  O   UNL d   1      52.852  30.628  52.381  0.00  0.00    -0.266 OA
ENDBRANCH  11  12
ENDBRANCH   1  11
TORSDOF 3
ENDMDL
MODEL 2
REMARK VINA RESULT:      -7.1      2.180      2.853
REMARK  3 active torsions:
REMARK  status: ('A' for Active; 'I' for Inactive)
REMARK    1  A    between atoms: S_8  and  C_1 
REMARK       I    between atoms: N_4  and  C_5 
REMARK    2  A    between atoms: C_5  and  C_9 
REMARK    3  A    between atoms: C_9  and  S_8 
ROOT
ATOM      1  S   UNL d   1      52.128  33.624  52.955  0.00  0.00    -0.056 SA
ENDROOT
BRANCH   1   2
ATOM      2  C   UNL d   1      51.404  33.917  52.722  0.00  0.00     0.141 A 
ATOM      3  N   UNL d   1      51.091  33.899  51.963  0.00  0.00    -0.232 NA
ATOM      4  C   UNL d   1      50.352  34.253  51.976  0.00  0.00     0.088 A 
ATOM      5  C   UNL d   1      49.797  34.386  51.383  0.00  0.00     0.020 A 
ATOM      6  C   UNL d   1      50.198  34.499  52.762  0.00  0.00     0.049 A 
ATOM      7  C   UNL d   1      49.077  34.772  51.581  0.00  0.00     0.002 A 
ATOM      8  C   UNL d   1      48.929  35.008  52.334  0.00  0.00     0.001 A 
ATOM      9  C   UNL d   1      49.492  34.874  52.942  0.00  0.00     0.008 A 
ATOM     10  S   UNL d   1      50.847  34.288  53.208  0.00  0.00    -0.060 SA
ENDBRANCH   1   2
BRANCH   1  11
ATOM     11  C   UNL d   1      52.276  32.815  52.929  0.00  0.00     0.098 C 
BRANCH  11  12
ATOM     12  C   UNL d   1      52.987  32.492  53.237  0.00  0.00     0.271 C 
ATOM     13  N   UNL d   1      53.101  31.659  53.276  0.00  0.00    -0.272 N 
ATOM     14  C   UNL d   1      53.799  31.357  53.579  0.00  0.00     0.083 A 
ATOM     15  C   UNL d   1      52.511  31.165  53.011  0.00  0.00     0.083 A 
ATOM     16  C   UNL d   1      53.914  30.558  53.619  0.00  0.00     0.019 A 
ATOM     17  C   UNL d   1      53.305  30.042  53.345  0.00  0.00     0.003 A 
ATOM     18  C   UNL d   1      52.626  30.335  53.051  0.00  0.00     0.019 A 
ATOM     19  O   UNL d   1      53.569  33.019  53.499  0.00  0.00    -0.266 OA
ENDBRANCH  11  12
ENDBRANCH   1  11
TORSDOF 3
ENDMDL
MODEL 3
REMARK VINA RESULT:      -7.0      2.438      4.416
REMARK  3 active torsions:
REMARK  status: ('A' for Active; 'I' for Inactive)
REMARK    1  A    between atoms: S_8  and  C_1 
REMARK       I    between atoms: N_4  and  C_5 
REMARK    2  A    between atoms: C_5  and  C_9 
REMARK    3  A    between atoms: C_9  and  S_8 
ROOT
ATOM      1  S   UNL d   1      52.117  33.788  52.631  0.00  0.00    -0.056 SA
ENDROOT
BRANCH   1   2
ATOM      2  C   UNL d   1      52.641  33.668  53.243  0.00  0.00     0.141 A 
ATOM      3  N   UNL d   1      52.974  34.247  53.722  0.00  0.00    -0.232 NA
ATOM      4  C   UNL d   1      53.469  33.884  54.266  0.00  0.00     0.088 A 
ATOM      5  C   UNL d   1      53.937  34.189  54.869  0.00  0.00     0.020 A 
ATOM      6  C   UNL d   1      53.445  33.058  54.125  0.00  0.00     0.049 A 
ATOM      7  C   UNL d   1      54.390  33.658  55.339  0.00  0.00     0.002 A 
ATOM      8  C   UNL d   1      54.367  32.867  55.204  0.00  0.00     0.001 A 
ATOM      9  C   UNL d   1      53.891  32.552  54.589  0.00  0.00     0.008 A 
ATOM     10  S   UNL d   1      52.937  32.939  53.499  0.00  0.00    -0.060 SA
ENDBRANCH   1   2
BRANCH   1  11
ATOM     11  C   UNL d   1      51.377  34.115  52.776  0.00  0.00     0.098 C 
BRANCH  11  12
ATOM     12  C   UNL d   1      50.813  34.209  52.162  0.00  0.00     0.271 C 
ATOM     13  N   UNL d   1      50.064  34.562  52.313  0.00  0.00    -0.272 N 
ATOM     14  C   UNL d   1      49.523  34.647  51.705  0.00  0.00     0.083 A 
ATOM     15  C   UNL d   1      49.889  34.814  53.068  0.00  0.00     0.083 A 
ATOM     16  C   UNL d   1      48.802  34.986  51.844  0.00  0.00     0.019 A 
ATOM     17  C   UNL d   1      48.618  35.249  52.625  0.00  0.00     0.003 A 
ATOM     18  C   UNL d   1      49.143  35.166  53.216  0.00  0.00     0.019 A 
ATOM     19  O   UNL d   1      51.018  33.943  51.406  0.00  0.00    -0.266 OA
ENDBRANCH  11  12
ENDBRANCH   1  11
TORSDOF 3
ENDMDL
MODEL 4
REMARK VINA RESULT:      -6.8      0.979      4.536
REMARK  3 active torsions:
REMARK  status: ('A' for Active; 'I' for Inactive)
REMARK    1  A    between atoms: S_8  and  C_1 
REMARK       I    between atoms: N_4  and  C_5 
REMARK    2  A    between atoms: C_5  and  C_9 
REMARK    3  A    between atoms: C_9  and  S_8 
ROOT
ATOM      1  S   UNL d   1      52.928  32.223  52.994  0.00  0.00    -0.056 SA
ENDROOT
BRANCH   1   2
ATOM      2  C   UNL d   1      52.997  31.449  53.243  0.00  0.00     0.141 A 
ATOM      3  N   UNL d   1      53.509  31.165  53.818  0.00  0.00    -0.232 NA
ATOM      4  C   UNL d   1      53.396  30.356  53.893  0.00  0.00     0.088 A 
ATOM      5  C   UNL d   1      53.752  29.795  54.378  0.00  0.00     0.020 A 
ATOM      6  C   UNL d   1      52.798  30.129  53.351  0.00  0.00     0.049 A 
ATOM      7  C   UNL d   1      53.506  28.993  54.319  0.00  0.00     0.002 A 
ATOM      8  C   UNL d   1      52.933  28.775  53.800  0.00  0.00     0.001 A 
ATOM      9  C   UNL d   1      52.568  29.345  53.304  0.00  0.00     0.008 A 
ATOM     10  S   UNL d   1      52.563  30.804  52.960  0.00  0.00    -0.060 SA
ENDBRANCH   1   2
BRANCH   1  11
ATOM     11  C   UNL d   1      53.000  32.839  53.533  0.00  0.00     0.098 C 
BRANCH  11  12
ATOM     12  C   UNL d   1      52.779  33.623  53.331  0.00  0.00     0.271 C 
ATOM     13  N   UNL d   1      52.926  34.263  53.858  0.00  0.00    -0.272 N 
ATOM     14  C   UNL d   1      52.705  35.022  53.648  0.00  0.00     0.083 A 
ATOM     15  C   UNL d   1      53.288  34.114  54.572  0.00  0.00     0.083 A 
ATOM     16  C   UNL d   1      52.843  35.641  54.150  0.00  0.00     0.019 A 
ATOM     17  C   UNL d   1      53.218  35.490  54.891  0.00  0.00     0.003 A 
ATOM     18  C   UNL d   1      53.433  34.753  55.095  0.00  0.00     0.019 A 
ATOM     19  O   UNL d   1      52.412  33.744  52.599  0.00  0.00    -0.266 OA
ENDBRANCH  11  12
ENDBRANCH   1  11
TORSDOF 3
ENDMDL
MODEL 5
REMARK VINA RESULT:      -6.6      2.365      3.633
REMARK  3 active torsions:
REMARK  status: ('A' for Active; 'I' for Inactive)
REMARK    1  A    between atoms: S_8  and  C_1 
REMARK       I    between atoms: N_4  and  C_5 
REMARK    2  A    between atoms: C_5  and  C_9 
REMARK    3  A    between atoms: C_9  and  S_8 
ROOT
ATOM      1  S   UNL d   1      51.618  33.602  52.516  0.00  0.00    -0.056 SA
ENDROOT
BRANCH   1   2
ATOM      2  C   UNL d   1      50.910  34.006  52.510  0.00  0.00     0.141 A 
ATOM      3  N   UNL d   1      50.583  34.428  53.134  0.00  0.00    -0.232 NA
ATOM      4  C   UNL d   1      49.868  34.747  52.889  0.00  0.00     0.088 A 
ATOM      5  C   UNL d   1      49.313  35.211  53.279  0.00  0.00     0.020 A 
ATOM      6  C   UNL d   1      49.745  34.519  52.092  0.00  0.00     0.049 A 
ATOM      7  C   UNL d   1      48.623  35.452  52.864  0.00  0.00     0.002 A 
ATOM      8  C   UNL d   1      48.504  35.235  52.100  0.00  0.00     0.001 A 
ATOM      9  C   UNL d   1      49.068  34.761  51.699  0.00  0.00     0.008 A 
ATOM     10  S   UNL d   1      50.387  34.068  51.872  0.00  0.00    -0.060 SA
ENDBRANCH   1   2
BRANCH   1  11
ATOM     11  C   UNL d   1      52.100  33.619  53.181  0.00  0.00     0.098 C 
BRANCH  11  12
ATOM     12  C   UNL d   1      52.787  33.141  53.235  0.00  0.00     0.271 C 
ATOM     13  N   UNL d   1      53.359  33.272  53.839  0.00  0.00    -0.272 N 
ATOM     14  C   UNL d   1      54.024  32.798  53.879  0.00  0.00     0.083 A 
ATOM     15  C   UNL d   1      53.239  33.871  54.376  0.00  0.00     0.083 A 
ATOM     16  C   UNL d   1      54.577  32.918  54.457  0.00  0.00     0.019 A 
ATOM     17  C   UNL d   1      54.455  33.539  55.016  0.00  0.00     0.003 A 
ATOM     18  C   UNL d   1      53.809  34.000  54.977  0.00  0.00     0.019 A 
ATOM     19  O   UNL d   1      52.883  32.539  52.675  0.00  0.00    -0.266 OA
ENDBRANCH  11  12
ENDBRANCH   1  11
TORSDOF 3
ENDMDL
MODEL 6
REMARK VINA RESULT:      -6.4      1.395      4.550
REMARK  3 active torsions:
REMARK  status: ('A' for Active; 'I' for Inactive)
REMARK    1  A    between atoms: S_8  and  C_1 
REMARK       I    between atoms: N_4  and  C_5 
REMARK    2  A    between atoms: C_5  and  C_9 
REMARK    3  A    between atoms: C_9  and  S_8 
ROOT
ATOM      1  S   UNL d   1      53.344  31.847  53.274  0.00  0.00    -0.056 SA
ENDROOT
BRANCH   1   2
ATOM      2  C   UNL d   1      53.341  31.101  53.602  0.00  0.00     0.141 A 
ATOM      3  N   UNL d   1      53.403  30.917  54.400  0.00  0.00    -0.232 NA
ATOM      4  C   UNL d   1      53.375  30.102  54.484  0.00  0.00     0.088 A 
ATOM      5  C   UNL d   1      53.412  29.618  55.148  0.00  0.00     0.020 A 
ATOM      6  C   UNL d   1      53.294  29.767  53.720  0.00  0.00     0.049 A 
ATOM      7  C   UNL d   1      53.367  28.785  55.046  0.00  0.00     0.002 A 
ATOM      8  C   UNL d   1      53.290  28.464  54.314  0.00  0.00     0.001 A 
ATOM      9  C   UNL d   1      53.251  28.954  53.634  0.00  0.00     0.008 A 
ATOM     10  S   UNL d   1      53.274  30.387  53.191  0.00  0.00    -0.060 SA
ENDBRANCH   1   2
BRANCH   1  11
ATOM     11  C   UNL d   1      52.673  32.321  53.314  0.00  0.00     0.098 C 
BRANCH  11  12
ATOM     12  C   UNL d   1      52.697  33.131  53.094  0.00  0.00     0.271 C 
ATOM     13  N   UNL d   1      51.988  33.577  53.011  0.00  0.00    -0.272 N 
ATOM     14  C   UNL d   1      52.026  34.365  52.796  0.00  0.00     0.083 A 
ATOM     15  C   UNL d   1      51.273  33.213  53.147  0.00  0.00     0.083 A 
ATOM     16  C   UNL d   1      51.348  34.799  52.715  0.00  0.00     0.019 A 
ATOM     17  C   UNL d   1      50.604  34.425  52.855  0.00  0.00     0.003 A 
ATOM     18  C   UNL d   1      50.568  33.659  53.064  0.00  0.00     0.019 A 
ATOM     19  O   UNL d   1      53.439  33.473  52.962  0.00  0.00    -0.266 OA
ENDBRANCH  11  12
ENDBRANCH   1  11
TORSDOF 3
ENDMDL
MODEL 7
REMARK VINA RESULT:      -5.9      9.971     11.020
REMARK  3 active torsions:
REMARK  status: ('A' for Active; 'I' for Inactive)
REMARK    1  A    between atoms: S_8  and  C_1 
REMARK       I    between atoms: N_4  and  C_5 
REMARK    2  A    between atoms: C_5  and  C_9 
REMARK    3  A    between atoms: C_9  and  S_8 
ROOT
ATOM      1  S   UNL d   1      44.890  30.006  58.803  0.00  0.00    -0.056 SA
ENDROOT
BRANCH   1   2
ATOM      2  C   UNL d   1      44.996  29.300  58.409  0.00  0.00     0.141 A 
ATOM      3  N   UNL d   1      45.220  28.584  58.742  0.00  0.00    -0.232 NA
ATOM      4  C   UNL d   1      45.260  28.020  58.148  0.00  0.00     0.088 A 
ATOM      5  C   UNL d   1      45.453  27.221  58.163  0.00  0.00     0.020 A 
ATOM      6  C   UNL d   1      45.055  28.392  57.426  0.00  0.00     0.049 A 
ATOM      7  C   UNL d   1      45.441  26.787  57.443  0.00  0.00     0.002 A 
ATOM      8  C   UNL d   1      45.245  27.144  56.751  0.00  0.00     0.001 A 
ATOM      9  C   UNL d   1      45.047  27.959  56.731  0.00  0.00     0.008 A 
ATOM     10  S   UNL d   1      44.896  29.173  57.598  0.00  0.00    -0.060 SA
ENDBRANCH   1   2
BRANCH   1  11
ATOM     11  C   UNL d   1      44.838  30.020  59.624  0.00  0.00     0.098 C 
BRANCH  11  12
ATOM     12  C   UNL d   1      44.655  30.727  60.037  0.00  0.00     0.271 C 
ATOM     13  N   UNL d   1      44.573  30.728  60.875  0.00  0.00    -0.272 N 
ATOM     14  C   UNL d   1      44.394  31.424  61.266  0.00  0.00     0.083 A 
ATOM     15  C   UNL d   1      44.674  30.032  61.285  0.00  0.00     0.083 A 
ATOM     16  C   UNL d   1      44.314  31.432  62.070  0.00  0.00     0.019 A 
ATOM     17  C   UNL d   1      44.418  30.711  62.498  0.00  0.00     0.003 A 
ATOM     18  C   UNL d   1      44.592  30.035  62.119  0.00  0.00     0.019 A 
ATOM     19  O   UNL d   1      44.558  31.419  59.595  0.00  0.00    -0.266 OA
ENDBRANCH  11  12
ENDBRANCH   1  11
TORSDOF 3
ENDMDL
MODEL 8
REMARK VINA RESULT:      -5.7      3.504      5.431
REMARK  3 active torsions:
REMARK  status: ('A' for Active; 'I' for Inactive)
REMARK    1  A    between atoms: S_8  and  C_1 
REMARK       I    between atoms: N_4  and  C_5 
REMARK    2  A    between atoms: C_5  and  C_9 
REMARK    3  A    between atoms: C_9  and  S_8 
ROOT
ATOM      1  S   UNL d   1      50.251  34.401  53.278  0.00  0.00    -0.056 SA
ENDROOT
BRANCH   1   2
ATOM      2  C   UNL d   1      50.978  34.035  53.234  0.00  0.00     0.141 A 
ATOM      3  N   UNL d   1      51.712  34.405  53.237  0.00  0.00    -0.232 NA
ATOM      4  C   UNL d   1      52.294  33.830  53.182  0.00  0.00     0.088 A 
ATOM      5  C   UNL d   1      53.115  33.882  53.162  0.00  0.00     0.020 A 
ATOM      6  C   UNL d   1      51.916  33.083  53.144  0.00  0.00     0.049 A 
ATOM      7  C   UNL d   1      53.564  33.174  53.103  0.00  0.00     0.002 A 
ATOM      8  C   UNL d   1      53.202  32.458  53.066  0.00  0.00     0.001 A 
ATOM      9  C   UNL d   1      52.366  32.401  53.087  0.00  0.00     0.008 A 
ATOM     10  S   UNL d   1      51.114  33.222  53.176  0.00  0.00    -0.060 SA
ENDBRANCH   1   2
BRANCH   1  11
ATOM     11  C   UNL d   1      49.867  34.647  52.594  0.00  0.00     0.098 C 
BRANCH  11  12
ATOM     12  C   UNL d   1      49.158  35.094  52.628  0.00  0.00     0.271 C 
ATOM     13  N   UNL d   1      48.619  35.100  51.981  0.00  0.00    -0.272 N 
ATOM     14  C   UNL d   1      47.931  35.539  52.027  0.00  0.00     0.083 A 
ATOM     15  C   UNL d   1      48.794  34.664  51.315  0.00  0.00     0.083 A 
ATOM     16  C   UNL d   1      47.410  35.549  51.409  0.00  0.00     0.019 A 
ATOM     17  C   UNL d   1      47.588  35.099  50.717  0.00  0.00     0.003 A 
ATOM     18  C   UNL d   1      48.257  34.671  50.672  0.00  0.00     0.019 A 
ATOM     19  O   UNL d   1      49.007  35.526  53.317  0.00  0.00    -0.266 OA
ENDBRANCH  11  12
ENDBRANCH   1  11
TORSDOF 3
ENDMDL
MODEL 9
REMARK VINA RESULT:      -5.4      9.392     10.832
REMARK  3 active torsions:
REMARK  status: ('A' for Active; 'I' for Inactive)
REMARK    1  A    between atoms: S_8  and  C_1 
REMARK       I    between atoms: N_4  and  C_5 
REMARK    2  A    between atoms: C_5  and  C_9 
REMARK    3  A    between atoms: C_9  and  S_8 
ROOT
ATOM      1  S   UNL d   1      45.244  28.158  58.077  0.00  0.00    -0.056 SA
ENDROOT
BRANCH   1   2
ATOM      2  C   UNL d   1      45.080  27.425  57.761  0.00  0.00     0.141 A 
ATOM      3  N   UNL d   1      45.183  27.194  56.979  0.00  0.00    -0.232 NA
ATOM      4  C   UNL d   1      44.949  26.413  56.903  0.00  0.00     0.088 A 
ATOM      5  C   UNL d   1      44.933  25.906  56.256  0.00  0.00     0.020 A 
ATOM      6  C   UNL d   1      44.692  26.146  57.655  0.00  0.00     0.049 A 
ATOM      7  C   UNL d   1      44.655  25.119  56.363  0.00  0.00     0.002 A 
ATOM      8  C   UNL d   1      44.409  24.864  57.084  0.00  0.00     0.001 A 
ATOM      9  C   UNL d   1      44.424  25.378  57.747  0.00  0.00     0.008 A 
ATOM     10  S   UNL d   1      44.777  26.773  58.170  0.00  0.00    -0.060 SA
ENDBRANCH   1   2
BRANCH   1  11
ATOM     11  C   UNL d   1      44.979  28.840  57.702  0.00  0.00     0.098 C 
BRANCH  11  12
ATOM     12  C   UNL d   1      45.068  29.595  58.056  0.00  0.00     0.271 C 
ATOM     13  N   UNL d   1      44.854  30.295  57.641  0.00  0.00    -0.272 N 
ATOM     14  C   UNL d   1      44.946  31.025  57.998  0.00  0.00     0.083 A 
ATOM     15  C   UNL d   1      44.558  30.233  56.885  0.00  0.00     0.083 A 
ATOM     16  C   UNL d   1      44.743  31.701  57.604  0.00  0.00     0.019 A 
ATOM     17  C   UNL d   1      44.435  31.641  56.820  0.00  0.00     0.003 A 
ATOM     18  C   UNL d   1      44.345  30.932  56.473  0.00  0.00     0.019 A 
ATOM     19  O   UNL d   1      45.372  29.627  58.825  0.00  0.00    -0.266 OA
ENDBRANCH  11  12
ENDBRANCH   1  11
TORSDOF 3
ENDMDL
