MODEL 1
REMARK VINA RESULT:      58.9      0.000      0.000
REMARK  3 active torsions:
REMARK  status: ('A' for Active; 'I' for Inactive)
REMARK    1  A    between atoms: C_4  and  C_8 
REMARK    2  A    between atoms: N_13  and  C_7 
REMARK       I    between atoms: C_8  and  N_12 
REMARK    3  A    between atoms: N_12  and  N_13 
ROOT
ATOM      1  C   UNL d   1     -49.979  27.726  33.985  0.00  0.00     0.297 C 
ATOM      2  N   UNL d   1     -49.999  26.901  33.899  0.00  0.00    -0.104 NA
ATOM      3  O   UNL d   1     -50.493  28.196  33.536  0.00  0.00    -0.264 OA
ENDROOT
BRANCH   2   4
ATOM      4  N   UNL d   1     -50.524  26.551  33.373  0.00  0.00    -0.125 NA
BRANCH   4   5
ATOM      5  C   UNL d   1     -50.626  25.732  33.373  0.00  0.00     0.190 A 
ATOM      6  C   UNL d   1     -51.380  25.415  33.350  0.00  0.00     0.094 A 
ATOM      7  C   UNL d   1     -51.484  24.597  33.350  0.00  0.00     0.170 A 
ATOM      8  C   UNL d   1     -52.129  25.774  33.323  0.00  0.00     0.127 A 
ATOM      9  N   UNL d   1     -52.299  24.445  33.324  0.00  0.00    -0.209 N 
ATOM     10  N   UNL d   1     -50.831  24.099  33.374  0.00  0.00    -0.205 NA
ATOM     11  C   UNL d   1     -52.651  23.692  33.316  0.00  0.00     0.123 C 
ATOM     12  N   UNL d   1     -52.696  25.170  33.307  0.00  0.00    -0.162 NA
ATOM     13  C   UNL d   1     -50.075  24.419  33.398  0.00  0.00     0.202 A 
ATOM     14  N   UNL d   1     -49.972  25.242  33.397  0.00  0.00    -0.203 NA
ENDBRANCH   4   5
ENDBRANCH   2   4
BRANCH   1  15
ATOM     15  C   UNL d   1     -49.453  28.079  34.513  0.00  0.00     0.070 A 
ATOM     16  C   UNL d   1     -48.987  28.706  34.270  0.00  0.00     0.063 A 
ATOM     17  C   UNL d   1     -48.461  29.061  34.794  0.00  0.00     0.023 A 
ATOM     18 CL   UNL d   1     -49.050  28.981  33.490  0.00  0.00    -0.082 Cl
ATOM     19  C   UNL d   1     -48.404  28.779  35.576  0.00  0.00     0.059 A 
ATOM     20  C   UNL d   1     -48.878  28.141  35.821  0.00  0.00     0.012 A 
ATOM     21 CL   UNL d   1     -47.875  29.133  36.108  0.00  0.00    -0.082 Cl
ATOM     22  C   UNL d   1     -49.399  27.795  35.291  0.00  0.00     0.007 A 
ENDBRANCH   1  15
TORSDOF 3
ENDMDL
MODEL 2
REMARK VINA RESULT:      60.1      2.123      4.817
REMARK  3 active torsions:
REMARK  status: ('A' for Active; 'I' for Inactive)
REMARK    1  A    between atoms: C_4  and  C_8 
REMARK    2  A    between atoms: N_13  and  C_7 
REMARK       I    between atoms: C_8  and  N_12 
REMARK    3  A    between atoms: N_12  and  N_13 
ROOT
ATOM      1  C   UNL d   1     -50.470  26.982  33.685  0.00  0.00     0.297 C 
ATOM      2  N   UNL d   1     -49.801  27.113  34.157  0.00  0.00    -0.104 NA
ATOM      3  O   UNL d   1     -50.835  27.622  33.306  0.00  0.00    -0.264 OA
ENDROOT
BRANCH   2   4
ATOM      4  N   UNL d   1     -49.501  27.872  34.250  0.00  0.00    -0.125 NA
BRANCH   4   5
ATOM      5  C   UNL d   1     -49.110  28.080  34.946  0.00  0.00     0.190 A 
ATOM      6  C   UNL d   1     -48.609  28.728  34.955  0.00  0.00     0.094 A 
ATOM      7  C   UNL d   1     -48.218  28.936  35.650  0.00  0.00     0.170 A 
ATOM      8  C   UNL d   1     -48.393  29.266  34.360  0.00  0.00     0.127 A 
ATOM      9  N   UNL d   1     -47.756  29.607  35.489  0.00  0.00    -0.209 N 
ATOM     10  N   UNL d   1     -48.329  28.496  36.334  0.00  0.00    -0.205 NA
ATOM     11  C   UNL d   1     -47.271  30.003  36.035  0.00  0.00     0.123 C 
ATOM     12  N   UNL d   1     -47.865  29.810  34.695  0.00  0.00    -0.162 NA
ATOM     13  C   UNL d   1     -48.831  27.846  36.323  0.00  0.00     0.202 A 
ATOM     14  N   UNL d   1     -49.224  27.637  35.623  0.00  0.00    -0.203 NA
ENDBRANCH   4   5
ENDBRANCH   2   4
BRANCH   1  15
ATOM     15  C   UNL d   1     -50.772  26.220  33.590  0.00  0.00     0.070 A 
ATOM     16  C   UNL d   1     -51.582  26.101  33.559  0.00  0.00     0.063 A 
ATOM     17  C   UNL d   1     -51.887  25.343  33.465  0.00  0.00     0.023 A 
ATOM     18 CL   UNL d   1     -52.091  26.752  33.623  0.00  0.00    -0.082 Cl
ATOM     19  C   UNL d   1     -51.369  24.694  33.401  0.00  0.00     0.059 A 
ATOM     20  C   UNL d   1     -50.547  24.817  33.434  0.00  0.00     0.012 A 
ATOM     21 CL   UNL d   1     -51.672  23.927  33.306  0.00  0.00    -0.082 Cl
ATOM     22  C   UNL d   1     -50.253  25.577  33.528  0.00  0.00     0.007 A 
ENDBRANCH   1  15
TORSDOF 3
ENDMDL
MODEL 3
REMARK VINA RESULT:      61.5      2.477      5.159
REMARK  3 active torsions:
REMARK  status: ('A' for Active; 'I' for Inactive)
REMARK    1  A    between atoms: C_4  and  C_8 
REMARK    2  A    between atoms: N_13  and  C_7 
REMARK       I    between atoms: C_8  and  N_12 
REMARK    3  A    between atoms: N_12  and  N_13 
ROOT
ATOM      1  C   UNL d   1     -50.062  28.055  33.660  0.00  0.00     0.297 C 
ATOM      2  N   UNL d   1     -49.363  28.265  34.054  0.00  0.00    -0.104 NA
ATOM      3  O   UNL d   1     -50.551  28.648  33.350  0.00  0.00    -0.264 OA
ENDROOT
BRANCH   2   4
ATOM      4  N   UNL d   1     -49.155  29.055  34.137  0.00  0.00    -0.125 NA
BRANCH   4   5
ATOM      5  C   UNL d   1     -48.615  29.282  34.718  0.00  0.00     0.190 A 
ATOM      6  C   UNL d   1     -48.279  30.027  34.694  0.00  0.00     0.094 A 
ATOM      7  C   UNL d   1     -47.739  30.255  35.275  0.00  0.00     0.170 A 
ATOM      8  C   UNL d   1     -48.375  30.659  34.163  0.00  0.00     0.127 A 
ATOM      9  N   UNL d   1     -47.497  31.031  35.105  0.00  0.00    -0.209 N 
ATOM     10  N   UNL d   1     -47.538  29.735  35.878  0.00  0.00    -0.205 NA
ATOM     11  C   UNL d   1     -46.954  31.476  35.550  0.00  0.00     0.123 C 
ATOM     12  N   UNL d   1     -47.888  31.278  34.421  0.00  0.00    -0.162 NA
ATOM     13  C   UNL d   1     -47.877  28.987  35.900  0.00  0.00     0.202 A 
ATOM     14  N   UNL d   1     -48.419  28.759  35.316  0.00  0.00    -0.203 NA
ENDBRANCH   4   5
ENDBRANCH   2   4
BRANCH   1  15
ATOM     15  C   UNL d   1     -50.273  27.262  33.575  0.00  0.00     0.070 A 
ATOM     16  C   UNL d   1     -51.048  27.059  33.405  0.00  0.00     0.063 A 
ATOM     17  C   UNL d   1     -51.261  26.269  33.320  0.00  0.00     0.023 A 
ATOM     18 CL   UNL d   1     -51.615  27.657  33.319  0.00  0.00    -0.082 Cl
ATOM     19  C   UNL d   1     -50.685  25.674  33.408  0.00  0.00     0.059 A 
ATOM     20  C   UNL d   1     -49.899  25.882  33.581  0.00  0.00     0.012 A 
ATOM     21 CL   UNL d   1     -50.896  24.875  33.323  0.00  0.00    -0.082 Cl
ATOM     22  C   UNL d   1     -49.696  26.672  33.663  0.00  0.00     0.007 A 
ENDBRANCH   1  15
TORSDOF 3
ENDMDL
