MODEL 1
REMARK VINA RESULT:      44.8      0.000      0.000
REMARK  5 active torsions:
REMARK  status: ('A' for Active; 'I' for Inactive)
REMARK    1  A    between atoms: C_5  and  N_1 
REMARK    2  A    between atoms: C_7  and  C_5 
REMARK    3  A    between atoms: O_14  and  C_10 
REMARK    4  A    between atoms: C_18  and  O_14 
REMARK    5  A    between atoms: C_19  and  C_18 
ROOT
ATOM      1  N   UNL d   1     -55.514-102.556 -38.102  0.00  0.00    -0.251 N 
ATOM      2  C   UNL d   1     -56.251-102.772 -38.415  0.00  0.00     0.378 A 
ATOM      3  C   UNL d   1     -55.584-102.518 -37.278  0.00  0.00     0.092 A 
ATOM      4  O   UNL d   1     -56.777-102.867 -37.782  0.00  0.00    -0.258 OA
ATOM      5  C   UNL d   1     -56.364-102.709 -37.080  0.00  0.00     0.121 A 
ATOM      6  O   UNL d   1     -56.432-102.875 -39.211  0.00  0.00    -0.237 OA
ATOM      7  C   UNL d   1     -55.037-102.333 -36.694  0.00  0.00     0.020 A 
ATOM      8  C   UNL d   1     -56.590-102.714 -36.283  0.00  0.00     0.026 A 
ATOM      9  C   UNL d   1     -55.265-102.339 -35.904  0.00  0.00     0.002 A 
ATOM     10  C   UNL d   1     -56.043-102.529 -35.699  0.00  0.00     0.002 A 
ATOM     11  C   UNL d   1     -54.717-102.153 -35.316  0.00  0.00     0.000 C 
ENDROOT
BRANCH   1  12
ATOM     12  C   UNL d   1     -54.811-102.399 -38.505  0.00  0.00     0.087 C 
BRANCH  12  13
ATOM     13  C   UNL d   1     -54.823-102.236 -39.318  0.00  0.00     0.041 A 
ATOM     14  C   UNL d   1     -54.775-101.468 -39.580  0.00  0.00     0.102 A 
ATOM     15  C   UNL d   1     -54.787-101.308 -40.383  0.00  0.00     0.025 A 
ATOM     16  C   UNL d   1     -54.848-101.923 -40.926  0.00  0.00     0.002 A 
ATOM     17  C   UNL d   1     -54.896-102.703 -40.658  0.00  0.00     0.000 A 
ATOM     18  C   UNL d   1     -54.883-102.858 -39.847  0.00  0.00     0.004 A 
BRANCH  14  19
ATOM     19  O   UNL d   1     -54.715-100.844 -39.038  0.00  0.00    -0.305 OA
BRANCH  19  20
ATOM     20  C   UNL d   1     -55.024-100.102 -39.224  0.00  0.00     0.123 C 
BRANCH  20  21
ATOM     21  C   UNL d   1     -54.870 -99.459 -38.741  0.00  0.00     0.027 C 
ATOM     22  C   UNL d   1     -55.494 -99.031 -38.407  0.00  0.00     0.002 C 
ENDBRANCH  20  21
ENDBRANCH  19  20
ENDBRANCH  14  19
ENDBRANCH  12  13
ENDBRANCH   1  12
TORSDOF 5
ENDMDL
MODEL 2
REMARK VINA RESULT:      45.9      5.691      7.483
REMARK  5 active torsions:
REMARK  status: ('A' for Active; 'I' for Inactive)
REMARK    1  A    between atoms: C_5  and  N_1 
REMARK    2  A    between atoms: C_7  and  C_5 
REMARK    3  A    between atoms: O_14  and  C_10 
REMARK    4  A    between atoms: C_18  and  O_14 
REMARK    5  A    between atoms: C_19  and  C_18 
ROOT
ATOM      1  N   UNL d   1     -57.338 -98.811 -44.039  0.00  0.00    -0.251 N 
ATOM      2  C   UNL d   1     -57.577 -98.799 -43.245  0.00  0.00     0.378 A 
ATOM      3  C   UNL d   1     -58.017 -98.796 -44.513  0.00  0.00     0.092 A 
ATOM      4  O   UNL d   1     -58.405 -98.776 -43.230  0.00  0.00    -0.258 OA
ATOM      5  C   UNL d   1     -58.675 -98.774 -44.013  0.00  0.00     0.121 A 
ATOM      6  O   UNL d   1     -57.082 -98.808 -42.587  0.00  0.00    -0.237 OA
ATOM      7  C   UNL d   1     -58.111 -98.799 -45.330  0.00  0.00     0.020 A 
ATOM      8  C   UNL d   1     -59.435 -98.755 -44.345  0.00  0.00     0.026 A 
ATOM      9  C   UNL d   1     -58.865 -98.780 -45.654  0.00  0.00     0.002 A 
ATOM     10  C   UNL d   1     -59.528 -98.758 -45.161  0.00  0.00     0.002 A 
ATOM     11  C   UNL d   1     -58.961 -98.783 -46.474  0.00  0.00     0.000 C 
ENDROOT
BRANCH   1  12
ATOM     12  C   UNL d   1     -56.572 -98.834 -44.345  0.00  0.00     0.087 C 
BRANCH  12  13
ATOM     13  C   UNL d   1     -55.946 -99.121 -43.884  0.00  0.00     0.041 A 
ATOM     14  C   UNL d   1     -55.506 -99.755 -44.141  0.00  0.00     0.102 A 
ATOM     15  C   UNL d   1     -54.889-100.037 -43.683  0.00  0.00     0.025 A 
ATOM     16  C   UNL d   1     -54.712 -99.681 -42.963  0.00  0.00     0.002 A 
ATOM     17  C   UNL d   1     -55.159 -99.038 -42.703  0.00  0.00     0.000 A 
ATOM     18  C   UNL d   1     -55.781 -98.757 -43.168  0.00  0.00     0.004 A 
BRANCH  14  19
ATOM     19  O   UNL d   1     -55.680-100.117 -44.865  0.00  0.00    -0.305 OA
BRANCH  19  20
ATOM     20  C   UNL d   1     -55.169-100.685 -45.178  0.00  0.00     0.123 C 
BRANCH  20  21
ATOM     21  C   UNL d   1     -55.424-101.457 -45.280  0.00  0.00     0.027 C 
ATOM     22  C   UNL d   1     -55.022-102.079 -44.912  0.00  0.00     0.002 C 
ENDBRANCH  20  21
ENDBRANCH  19  20
ENDBRANCH  14  19
ENDBRANCH  12  13
ENDBRANCH   1  12
TORSDOF 5
ENDMDL
