MODEL 1
REMARK VINA RESULT:      22.0      0.000      0.000
REMARK  2 active torsions:
REMARK  status: ('A' for Active; 'I' for Inactive)
REMARK    1  A    between atoms: C_7  and  C_2 
REMARK    2  A    between atoms: C_6  and  N_3 
ROOT
ATOM      1  C   UNL d   1     -51.338  25.126  33.347  0.00  0.00     0.085 A 
ATOM      2  C   UNL d   1     -52.142  25.246  33.336  0.00  0.00     0.019 A 
ATOM      3  C   UNL d   1     -52.660  24.604  33.326  0.00  0.00     0.002 A 
ATOM      4  C   UNL d   1     -51.039  24.332  33.349  0.00  0.00     0.019 A 
ATOM      5  C   UNL d   1     -52.368  23.831  33.328  0.00  0.00     0.000 A 
ATOM      6  C   UNL d   1     -51.553  23.684  33.339  0.00  0.00     0.002 A 
ATOM      7  C   UNL d   1     -53.457  24.750  33.315  0.00  0.00     0.000 A 
ATOM      8  C   UNL d   1     -52.868  23.189  33.319  0.00  0.00     0.000 A 
ATOM      9  C   UNL d   1     -53.981  24.129  33.306  0.00  0.00     0.000 A 
ATOM     10  C   UNL d   1     -53.682  23.336  33.307  0.00  0.00     0.000 A 
ENDROOT
BRANCH   1  11
ATOM     11  N   UNL d   1     -50.802  25.751  33.357  0.00  0.00    -0.210 N 
ATOM     12  C   UNL d   1     -50.924  26.557  33.414  0.00  0.00     0.191 A 
ATOM     13  C   UNL d   1     -50.208  26.914  33.397  0.00  0.00     0.118 A 
ATOM     14  N   UNL d   1     -51.656  26.922  33.476  0.00  0.00    -0.127 N 
ATOM     15  C   UNL d   1     -49.622  26.337  33.330  0.00  0.00     0.129 A 
ATOM     16  N   UNL d   1     -49.990  25.632  33.306  0.00  0.00    -0.162 NA
BRANCH  13  17
ATOM     17  C   UNL d   1     -50.086  27.731  33.442  0.00  0.00     0.301 C 
ATOM     18  O   UNL d   1     -49.353  27.988  33.624  0.00  0.00    -0.263 OA
ATOM     19  N   UNL d   1     -50.687  28.239  33.306  0.00  0.00    -0.102 N 
ENDBRANCH  13  17
ENDBRANCH   1  11
TORSDOF 2
ENDMDL
