MODEL 1
REMARK VINA RESULT:      -6.4      0.000      0.000
REMARK  5 active torsions:
REMARK  status: ('A' for Active; 'I' for Inactive)
REMARK    1  A    between atoms: S_9  and  C_2 
REMARK    2  A    between atoms: C_19  and  S_9 
REMARK    3  A    between atoms: C_11  and  C_19 
REMARK       I    between atoms: N_16  and  C_11 
REMARK    4  A    between atoms: C_22  and  N_16 
REMARK    5  A    between atoms: C_21  and  C_22 
ROOT
ATOM      1  C   UNL d   1     -49.592  13.067  23.122  0.00  0.00     0.092 A 
ATOM      2  C   UNL d   1     -48.769  12.950  23.166  0.00  0.00     0.120 A 
ATOM      3  N   UNL d   1     -48.263  13.552  22.943  0.00  0.00    -0.238 NA
ATOM      4  C   UNL d   1     -49.905  13.786  22.854  0.00  0.00     0.013 A 
ATOM      5  C   UNL d   1     -49.377  14.389  22.630  0.00  0.00     0.018 A 
ATOM      6  C   UNL d   1     -48.563  14.274  22.674  0.00  0.00     0.082 A 
ATOM      7  C   UNL d   1     -50.108  12.454  23.349  0.00  0.00     0.103 C 
ATOM      8  N   UNL d   1     -50.627  11.853  23.572  0.00  0.00    -0.191 NA
ATOM      9  C   UNL d   1     -50.720  13.901  22.810  0.00  0.00     0.001 A 
ATOM     10  C   UNL d   1     -49.681  15.115  22.360  0.00  0.00     0.002 A 
ATOM     11  C   UNL d   1     -48.049  14.876  22.451  0.00  0.00     0.021 C 
ATOM     12  C   UNL d   1     -51.020  14.619  22.543  0.00  0.00     0.000 A 
ATOM     13  C   UNL d   1     -50.504  15.232  22.315  0.00  0.00     0.000 A 
ENDROOT
BRANCH   2  14
ATOM     14  S   UNL d   1     -48.470  12.225  23.437  0.00  0.00    -0.062 SA
BRANCH  14  15
ATOM     15  C   UNL d   1     -47.687  12.177  23.698  0.00  0.00     0.099 C 
BRANCH  15  16
ATOM     16  C   UNL d   1     -47.266  11.477  23.600  0.00  0.00     0.286 C 
ATOM     17  N   UNL d   1     -46.449  11.504  23.475  0.00  0.00    -0.206 NA
ATOM     18  O   UNL d   1     -47.656  10.747  23.625  0.00  0.00    -0.265 OA
BRANCH  17  19
ATOM     19  C   UNL d   1     -46.016  10.806  23.375  0.00  0.00     0.102 C 
BRANCH  19  20
ATOM     20  C   UNL d   1     -45.195  10.837  23.290  0.00  0.00     0.021 A 
ATOM     21  C   UNL d   1     -44.857  11.399  22.799  0.00  0.00     0.028 A 
ATOM     22  C   UNL d   1     -44.037  11.429  22.714  0.00  0.00     0.119 A 
ATOM     23  O   UNL d   1     -43.550  11.923  22.269  0.00  0.00    -0.300 OA
ATOM     24  C   UNL d   1     -43.564  10.901  23.117  0.00  0.00     0.119 A 
ATOM     25  C   UNL d   1     -42.770  11.694  22.401  0.00  0.00     0.304 A 
ATOM     26  O   UNL d   1     -42.778  11.061  22.927  0.00  0.00    -0.300 OA
ATOM     27  C   UNL d   1     -43.911  10.327  23.619  0.00  0.00     0.026 A 
ATOM     28  C   UNL d   1     -44.729  10.305  23.697  0.00  0.00     0.004 A 
ENDBRANCH  19  20
ENDBRANCH  17  19
ENDBRANCH  15  16
ENDBRANCH  14  15
ENDBRANCH   2  14
TORSDOF 5
ENDMDL
MODEL 2
REMARK VINA RESULT:      -6.4      2.842      4.390
REMARK  5 active torsions:
REMARK  status: ('A' for Active; 'I' for Inactive)
REMARK    1  A    between atoms: S_9  and  C_2 
REMARK    2  A    between atoms: C_19  and  S_9 
REMARK    3  A    between atoms: C_11  and  C_19 
REMARK       I    between atoms: N_16  and  C_11 
REMARK    4  A    between atoms: C_22  and  N_16 
REMARK    5  A    between atoms: C_21  and  C_22 
ROOT
ATOM      1  C   UNL d   1     -46.025  12.158  22.999  0.00  0.00     0.092 A 
ATOM      2  C   UNL d   1     -45.564  12.694  22.561  0.00  0.00     0.120 A 
ATOM      3  N   UNL d   1     -45.910  13.371  22.259  0.00  0.00    -0.238 NA
ATOM      4  C   UNL d   1     -46.829  12.300  23.135  0.00  0.00     0.013 A 
ATOM      5  C   UNL d   1     -47.167  12.994  22.821  0.00  0.00     0.018 A 
ATOM      6  C   UNL d   1     -46.711  13.525  22.387  0.00  0.00     0.082 A 
ATOM      7  C   UNL d   1     -45.673  11.468  23.307  0.00  0.00     0.103 C 
ATOM      8  N   UNL d   1     -45.334  10.782  23.616  0.00  0.00    -0.191 NA
ATOM      9  C   UNL d   1     -47.286  11.769  23.569  0.00  0.00     0.001 A 
ATOM     10  C   UNL d   1     -47.974  13.147  22.951  0.00  0.00     0.002 A 
ATOM     11  C   UNL d   1     -47.053  14.207  22.081  0.00  0.00     0.021 C 
ATOM     12  C   UNL d   1     -48.084  11.921  23.697  0.00  0.00     0.000 A 
ATOM     13  C   UNL d   1     -48.436  12.610  23.390  0.00  0.00     0.000 A 
ENDROOT
BRANCH   2  14
ATOM     14  S   UNL d   1     -44.759  12.538  22.433  0.00  0.00    -0.062 SA
BRANCH  14  15
ATOM     15  C   UNL d   1     -44.364  12.908  21.808  0.00  0.00     0.099 C 
BRANCH  15  16
ATOM     16  C   UNL d   1     -43.563  12.762  21.688  0.00  0.00     0.286 C 
ATOM     17  N   UNL d   1     -43.078  13.362  21.391  0.00  0.00    -0.206 NA
ATOM     18  O   UNL d   1     -43.243  12.019  21.863  0.00  0.00    -0.265 OA
BRANCH  17  19
ATOM     19  C   UNL d   1     -42.271  13.226  21.267  0.00  0.00     0.102 C 
BRANCH  19  20
ATOM     20  C   UNL d   1     -41.800  13.813  20.928  0.00  0.00     0.021 A 
ATOM     21  C   UNL d   1     -41.422  13.672  20.214  0.00  0.00     0.028 A 
ATOM     22  C   UNL d   1     -40.951  14.259  19.876  0.00  0.00     0.119 A 
ATOM     23  O   UNL d   1     -40.513  14.275  19.178  0.00  0.00    -0.300 OA
ATOM     24  C   UNL d   1     -40.862  14.977  20.250  0.00  0.00     0.119 A 
ATOM     25  C   UNL d   1     -40.151  15.013  19.125  0.00  0.00     0.304 A 
ATOM     26  O   UNL d   1     -40.367  15.449  19.789  0.00  0.00    -0.300 OA
ATOM     27  C   UNL d   1     -41.248  15.121  20.980  0.00  0.00     0.026 A 
ATOM     28  C   UNL d   1     -41.715  14.529  21.308  0.00  0.00     0.004 A 
ENDBRANCH  19  20
ENDBRANCH  17  19
ENDBRANCH  15  16
ENDBRANCH  14  15
ENDBRANCH   2  14
TORSDOF 5
ENDMDL
MODEL 3
REMARK VINA RESULT:      -5.4      1.453      2.390
REMARK  5 active torsions:
REMARK  status: ('A' for Active; 'I' for Inactive)
REMARK    1  A    between atoms: S_9  and  C_2 
REMARK    2  A    between atoms: C_19  and  S_9 
REMARK    3  A    between atoms: C_11  and  C_19 
REMARK       I    between atoms: N_16  and  C_11 
REMARK    4  A    between atoms: C_22  and  N_16 
REMARK    5  A    between atoms: C_21  and  C_22 
ROOT
ATOM      1  C   UNL d   1     -49.176  13.596  23.114  0.00  0.00     0.092 A 
ATOM      2  C   UNL d   1     -48.391  13.385  22.936  0.00  0.00     0.120 A 
ATOM      3  N   UNL d   1     -48.171  12.597  22.955  0.00  0.00    -0.238 NA
ATOM      4  C   UNL d   1     -49.737  13.020  23.310  0.00  0.00     0.013 A 
ATOM      5  C   UNL d   1     -49.499  12.223  23.325  0.00  0.00     0.018 A 
ATOM      6  C   UNL d   1     -48.721  12.013  23.149  0.00  0.00     0.082 A 
ATOM      7  C   UNL d   1     -49.401  14.398  23.095  0.00  0.00     0.103 C 
ATOM      8  N   UNL d   1     -49.633  15.190  23.079  0.00  0.00    -0.191 NA
ATOM      9  C   UNL d   1     -50.515  13.230  23.485  0.00  0.00     0.001 A 
ATOM     10  C   UNL d   1     -50.054  11.635  23.520  0.00  0.00     0.002 A 
ATOM     11  C   UNL d   1     -48.494  11.223  23.166  0.00  0.00     0.021 C 
ATOM     12  C   UNL d   1     -51.064  12.649  23.679  0.00  0.00     0.000 A 
ATOM     13  C   UNL d   1     -50.840  11.847  23.698  0.00  0.00     0.000 A 
ENDROOT
BRANCH   2  14
ATOM     14  S   UNL d   1     -47.839  13.973  22.742  0.00  0.00    -0.062 SA
BRANCH  14  15
ATOM     15  C   UNL d   1     -47.097  13.975  23.106  0.00  0.00     0.099 C 
BRANCH  15  16
ATOM     16  C   UNL d   1     -46.418  14.059  22.649  0.00  0.00     0.286 C 
ATOM     17  N   UNL d   1     -45.903  13.418  22.559  0.00  0.00    -0.206 NA
ATOM     18  O   UNL d   1     -46.249  14.781  22.280  0.00  0.00    -0.265 OA
BRANCH  17  19
ATOM     19  C   UNL d   1     -45.217  13.492  22.101  0.00  0.00     0.102 C 
BRANCH  19  20
ATOM     20  C   UNL d   1     -44.625  12.919  22.148  0.00  0.00     0.021 A 
ATOM     21  C   UNL d   1     -44.681  12.318  22.703  0.00  0.00     0.028 A 
ATOM     22  C   UNL d   1     -44.089  11.745  22.749  0.00  0.00     0.119 A 
ATOM     23  O   UNL d   1     -43.998  11.091  23.241  0.00  0.00    -0.300 OA
ATOM     24  C   UNL d   1     -43.450  11.777  22.244  0.00  0.00     0.119 A 
ATOM     25  C   UNL d   1     -43.293  10.716  23.033  0.00  0.00     0.304 A 
ATOM     26  O   UNL d   1     -42.953  11.141  22.416  0.00  0.00    -0.300 OA
ATOM     27  C   UNL d   1     -43.393  12.391  21.677  0.00  0.00     0.026 A 
ATOM     28  C   UNL d   1     -43.989  12.957  21.639  0.00  0.00     0.004 A 
ENDBRANCH  19  20
ENDBRANCH  17  19
ENDBRANCH  15  16
ENDBRANCH  14  15
ENDBRANCH   2  14
TORSDOF 5
ENDMDL
MODEL 4
REMARK VINA RESULT:      -5.3      2.001      2.989
REMARK  5 active torsions:
REMARK  status: ('A' for Active; 'I' for Inactive)
REMARK    1  A    between atoms: S_9  and  C_2 
REMARK    2  A    between atoms: C_19  and  S_9 
REMARK    3  A    between atoms: C_11  and  C_19 
REMARK       I    between atoms: N_16  and  C_11 
REMARK    4  A    between atoms: C_22  and  N_16 
REMARK    5  A    between atoms: C_21  and  C_22 
ROOT
ATOM      1  C   UNL d   1     -47.610  12.822  22.945  0.00  0.00     0.092 A 
ATOM      2  C   UNL d   1     -46.926  13.222  22.693  0.00  0.00     0.120 A 
ATOM      3  N   UNL d   1     -46.964  14.022  22.525  0.00  0.00    -0.238 NA
ATOM      4  C   UNL d   1     -48.330  13.223  23.029  0.00  0.00     0.013 A 
ATOM      5  C   UNL d   1     -48.353  14.037  22.855  0.00  0.00     0.018 A 
ATOM      6  C   UNL d   1     -47.675  14.433  22.604  0.00  0.00     0.082 A 
ATOM      7  C   UNL d   1     -47.572  12.008  23.117  0.00  0.00     0.103 C 
ATOM      8  N   UNL d   1     -47.544  11.202  23.288  0.00  0.00    -0.191 NA
ATOM      9  C   UNL d   1     -49.008  12.827  23.280  0.00  0.00     0.001 A 
ATOM     10  C   UNL d   1     -49.071  14.450  22.935  0.00  0.00     0.002 A 
ATOM     11  C   UNL d   1     -47.707  15.237  22.434  0.00  0.00     0.021 C 
ATOM     12  C   UNL d   1     -49.717  13.235  23.360  0.00  0.00     0.000 A 
ATOM     13  C   UNL d   1     -49.756  14.050  23.188  0.00  0.00     0.000 A 
ENDROOT
BRANCH   2  14
ATOM     14  S   UNL d   1     -46.212  12.808  22.613  0.00  0.00    -0.062 SA
BRANCH  14  15
ATOM     15  C   UNL d   1     -45.548  13.190  22.302  0.00  0.00     0.099 C 
BRANCH  15  16
ATOM     16  C   UNL d   1     -44.834  12.786  22.242  0.00  0.00     0.286 C 
ATOM     17  N   UNL d   1     -44.234  13.083  21.756  0.00  0.00    -0.206 NA
ATOM     18  O   UNL d   1     -44.714  12.084  22.665  0.00  0.00    -0.265 OA
BRANCH  17  19
ATOM     19  C   UNL d   1     -43.512  12.685  21.689  0.00  0.00     0.102 C 
BRANCH  19  20
ATOM     20  C   UNL d   1     -42.868  13.052  21.325  0.00  0.00     0.021 A 
ATOM     21  C   UNL d   1     -42.221  13.280  21.774  0.00  0.00     0.028 A 
ATOM     22  C   UNL d   1     -41.578  13.647  21.410  0.00  0.00     0.119 A 
ATOM     23  O   UNL d   1     -40.867  13.931  21.712  0.00  0.00    -0.300 OA
ATOM     24  C   UNL d   1     -41.587  13.782  20.606  0.00  0.00     0.119 A 
ATOM     25  C   UNL d   1     -40.433  14.244  21.085  0.00  0.00     0.304 A 
ATOM     26  O   UNL d   1     -40.879  14.153  20.399  0.00  0.00    -0.300 OA
ATOM     27  C   UNL d   1     -42.248  13.549  20.148  0.00  0.00     0.026 A 
ATOM     28  C   UNL d   1     -42.884  13.184  20.521  0.00  0.00     0.004 A 
ENDBRANCH  19  20
ENDBRANCH  17  19
ENDBRANCH  15  16
ENDBRANCH  14  15
ENDBRANCH   2  14
TORSDOF 5
ENDMDL
MODEL 5
REMARK VINA RESULT:      -4.8      2.014      6.028
REMARK  5 active torsions:
REMARK  status: ('A' for Active; 'I' for Inactive)
REMARK    1  A    between atoms: S_9  and  C_2 
REMARK    2  A    between atoms: C_19  and  S_9 
REMARK    3  A    between atoms: C_11  and  C_19 
REMARK       I    between atoms: N_16  and  C_11 
REMARK    4  A    between atoms: C_22  and  N_16 
REMARK    5  A    between atoms: C_21  and  C_22 
ROOT
ATOM      1  C   UNL d   1     -44.697  12.249  22.580  0.00  0.00     0.092 A 
ATOM      2  C   UNL d   1     -45.484  12.499  22.681  0.00  0.00     0.120 A 
ATOM      3  N   UNL d   1     -46.021  12.003  23.047  0.00  0.00    -0.238 NA
ATOM      4  C   UNL d   1     -44.450  11.504  22.846  0.00  0.00     0.013 A 
ATOM      5  C   UNL d   1     -45.009  11.010  23.217  0.00  0.00     0.018 A 
ATOM      6  C   UNL d   1     -45.788  11.258  23.316  0.00  0.00     0.082 A 
ATOM      7  C   UNL d   1     -44.148  12.753  22.207  0.00  0.00     0.103 C 
ATOM      8  N   UNL d   1     -43.598  13.246  21.839  0.00  0.00    -0.191 NA
ATOM      9  C   UNL d   1     -43.670  11.256  22.746  0.00  0.00     0.001 A 
ATOM     10  C   UNL d   1     -44.773  10.261  23.488  0.00  0.00     0.002 A 
ATOM     11  C   UNL d   1     -46.334  10.764  23.684  0.00  0.00     0.021 C 
ATOM     12  C   UNL d   1     -43.436  10.515  23.014  0.00  0.00     0.000 A 
ATOM     13  C   UNL d   1     -43.985  10.010  23.387  0.00  0.00     0.000 A 
ENDROOT
BRANCH   2  14
ATOM     14  S   UNL d   1     -45.716  13.248  22.409  0.00  0.00    -0.062 SA
BRANCH  14  15
ATOM     15  C   UNL d   1     -46.076  13.779  22.931  0.00  0.00     0.099 C 
BRANCH  15  16
ATOM     16  C   UNL d   1     -46.584  14.357  22.639  0.00  0.00     0.286 C 
ATOM     17  N   UNL d   1     -47.401  14.231  22.658  0.00  0.00    -0.206 NA
ATOM     18  O   UNL d   1     -46.281  15.062  22.328  0.00  0.00    -0.265 OA
BRANCH  17  19
ATOM     19  C   UNL d   1     -47.921  14.806  22.367  0.00  0.00     0.102 C 
BRANCH  19  20
ATOM     20  C   UNL d   1     -48.724  14.633  22.282  0.00  0.00     0.021 A 
ATOM     21  C   UNL d   1     -48.957  13.996  21.821  0.00  0.00     0.028 A 
ATOM     22  C   UNL d   1     -49.759  13.823  21.736  0.00  0.00     0.119 A 
ATOM     23  O   UNL d   1     -50.150  13.231  21.318  0.00  0.00    -0.300 OA
ATOM     24  C   UNL d   1     -50.318  14.285  22.109  0.00  0.00     0.119 A 
ATOM     25  C   UNL d   1     -50.960  13.332  21.436  0.00  0.00     0.304 A 
ATOM     26  O   UNL d   1     -51.064  13.985  21.926  0.00  0.00    -0.300 OA
ATOM     27  C   UNL d   1     -50.079  14.936  22.579  0.00  0.00     0.026 A 
ATOM     28  C   UNL d   1     -49.277  15.099  22.657  0.00  0.00     0.004 A 
ENDBRANCH  19  20
ENDBRANCH  17  19
ENDBRANCH  15  16
ENDBRANCH  14  15
ENDBRANCH   2  14
TORSDOF 5
ENDMDL
MODEL 6
REMARK VINA RESULT:      -4.3      1.766      5.683
REMARK  5 active torsions:
REMARK  status: ('A' for Active; 'I' for Inactive)
REMARK    1  A    between atoms: S_9  and  C_2 
REMARK    2  A    between atoms: C_19  and  S_9 
REMARK    3  A    between atoms: C_11  and  C_19 
REMARK       I    between atoms: N_16  and  C_11 
REMARK    4  A    between atoms: C_22  and  N_16 
REMARK    5  A    between atoms: C_21  and  C_22 
ROOT
ATOM      1  C   UNL d   1     -44.989  11.477  22.955  0.00  0.00     0.092 A 
ATOM      2  C   UNL d   1     -45.731  11.853  22.971  0.00  0.00     0.120 A 
ATOM      3  N   UNL d   1     -45.826  12.577  22.603  0.00  0.00    -0.238 NA
ATOM      4  C   UNL d   1     -44.344  11.827  22.570  0.00  0.00     0.013 A 
ATOM      5  C   UNL d   1     -44.456  12.564  22.200  0.00  0.00     0.018 A 
ATOM      6  C   UNL d   1     -45.191  12.936  22.216  0.00  0.00     0.082 A 
ATOM      7  C   UNL d   1     -44.892  10.739  23.329  0.00  0.00     0.103 C 
ATOM      8  N   UNL d   1     -44.786  10.009  23.698  0.00  0.00    -0.191 NA
ATOM      9  C   UNL d   1     -43.609  11.455  22.554  0.00  0.00     0.001 A 
ATOM     10  C   UNL d   1     -43.815  12.925  21.811  0.00  0.00     0.002 A 
ATOM     11  C   UNL d   1     -45.292  13.665  21.848  0.00  0.00     0.021 C 
ATOM     12  C   UNL d   1     -42.975  11.811  22.169  0.00  0.00     0.000 A 
ATOM     13  C   UNL d   1     -43.072  12.549  21.794  0.00  0.00     0.000 A 
ENDROOT
BRANCH   2  14
ATOM     14  S   UNL d   1     -46.368  11.490  23.360  0.00  0.00    -0.062 SA
BRANCH  14  15
ATOM     15  C   UNL d   1     -46.964  11.956  23.692  0.00  0.00     0.099 C 
BRANCH  15  16
ATOM     16  C   UNL d   1     -47.754  11.762  23.564  0.00  0.00     0.286 C 
ATOM     17  N   UNL d   1     -48.318  12.363  23.497  0.00  0.00    -0.206 NA
ATOM     18  O   UNL d   1     -47.985  10.969  23.502  0.00  0.00    -0.265 OA
BRANCH  17  19
ATOM     19  C   UNL d   1     -49.114  12.178  23.368  0.00  0.00     0.102 C 
BRANCH  19  20
ATOM     20  C   UNL d   1     -49.617  12.732  23.018  0.00  0.00     0.021 A 
ATOM     21  C   UNL d   1     -49.651  13.496  23.314  0.00  0.00     0.028 A 
ATOM     22  C   UNL d   1     -50.153  14.050  22.964  0.00  0.00     0.119 A 
ATOM     23  O   UNL d   1     -50.301  14.841  23.138  0.00  0.00    -0.300 OA
ATOM     24  C   UNL d   1     -50.613  13.838  22.326  0.00  0.00     0.119 A 
ATOM     25  C   UNL d   1     -50.860  15.117  22.598  0.00  0.00     0.304 A 
ATOM     26  O   UNL d   1     -51.053  14.496  22.094  0.00  0.00    -0.300 OA
ATOM     27  C   UNL d   1     -50.577  13.057  22.023  0.00  0.00     0.026 A 
ATOM     28  C   UNL d   1     -50.074  12.513  22.379  0.00  0.00     0.004 A 
ENDBRANCH  19  20
ENDBRANCH  17  19
ENDBRANCH  15  16
ENDBRANCH  14  15
ENDBRANCH   2  14
TORSDOF 5
ENDMDL
MODEL 7
REMARK VINA RESULT:      -4.2      5.847      9.156
REMARK  5 active torsions:
REMARK  status: ('A' for Active; 'I' for Inactive)
REMARK    1  A    between atoms: S_9  and  C_2 
REMARK    2  A    between atoms: C_19  and  S_9 
REMARK    3  A    between atoms: C_11  and  C_19 
REMARK       I    between atoms: N_16  and  C_11 
REMARK    4  A    between atoms: C_22  and  N_16 
REMARK    5  A    between atoms: C_21  and  C_22 
ROOT
ATOM      1  C   UNL d   1     -39.074  14.088  18.096  0.00  0.00     0.092 A 
ATOM      2  C   UNL d   1     -39.765  14.448  18.390  0.00  0.00     0.120 A 
ATOM      3  N   UNL d   1     -40.221  14.910  17.894  0.00  0.00    -0.238 NA
ATOM      4  C   UNL d   1     -38.843  14.191  17.308  0.00  0.00     0.013 A 
ATOM      5  C   UNL d   1     -39.318  14.665  16.814  0.00  0.00     0.018 A 
ATOM      6  C   UNL d   1     -40.002  15.022  17.105  0.00  0.00     0.082 A 
ATOM      7  C   UNL d   1     -38.609  13.616  18.601  0.00  0.00     0.103 C 
ATOM      8  N   UNL d   1     -38.141  13.147  19.094  0.00  0.00    -0.191 NA
ATOM      9  C   UNL d   1     -38.160  13.835  17.017  0.00  0.00     0.001 A 
ATOM     10  C   UNL d   1     -39.096  14.777  16.021  0.00  0.00     0.002 A 
ATOM     11  C   UNL d   1     -40.465  15.488  16.611  0.00  0.00     0.021 C 
ATOM     12  C   UNL d   1     -37.940  13.945  16.232  0.00  0.00     0.000 A 
ATOM     13  C   UNL d   1     -38.405  14.416  15.727  0.00  0.00     0.000 A 
ENDROOT
BRANCH   2  14
ATOM     14  S   UNL d   1     -39.983  14.335  19.182  0.00  0.00    -0.062 SA
BRANCH  14  15
ATOM     15  C   UNL d   1     -40.765  14.470  19.414  0.00  0.00     0.099 C 
BRANCH  15  16
ATOM     16  C   UNL d   1     -40.976  14.389  20.206  0.00  0.00     0.286 C 
ATOM     17  N   UNL d   1     -41.620  13.912  20.411  0.00  0.00    -0.206 NA
ATOM     18  O   UNL d   1     -40.547  14.781  20.795  0.00  0.00    -0.265 OA
BRANCH  17  19
ATOM     19  C   UNL d   1     -41.841  13.823  21.203  0.00  0.00     0.102 C 
BRANCH  19  20
ATOM     20  C   UNL d   1     -42.526  13.406  21.398  0.00  0.00     0.021 A 
ATOM     21  C   UNL d   1     -43.231  13.809  21.512  0.00  0.00     0.028 A 
ATOM     22  C   UNL d   1     -43.915  13.391  21.706  0.00  0.00     0.119 A 
ATOM     23  O   UNL d   1     -44.687  13.641  21.850  0.00  0.00    -0.300 OA
ATOM     24  C   UNL d   1     -43.890  12.580  21.786  0.00  0.00     0.119 A 
ATOM     25  C   UNL d   1     -45.140  12.974  22.020  0.00  0.00     0.304 A 
ATOM     26  O   UNL d   1     -44.647  12.316  21.981  0.00  0.00    -0.300 OA
ATOM     27  C   UNL d   1     -43.169  12.169  21.670  0.00  0.00     0.026 A 
ATOM     28  C   UNL d   1     -42.493  12.595  21.476  0.00  0.00     0.004 A 
ENDBRANCH  19  20
ENDBRANCH  17  19
ENDBRANCH  15  16
ENDBRANCH  14  15
ENDBRANCH   2  14
TORSDOF 5
ENDMDL
MODEL 8
REMARK VINA RESULT:      -3.4      3.864      7.228
REMARK  5 active torsions:
REMARK  status: ('A' for Active; 'I' for Inactive)
REMARK    1  A    between atoms: S_9  and  C_2 
REMARK    2  A    between atoms: C_19  and  S_9 
REMARK    3  A    between atoms: C_11  and  C_19 
REMARK       I    between atoms: N_16  and  C_11 
REMARK    4  A    between atoms: C_22  and  N_16 
REMARK    5  A    between atoms: C_21  and  C_22 
ROOT
ATOM      1  C   UNL d   1     -40.923  14.191  21.476  0.00  0.00     0.092 A 
ATOM      2  C   UNL d   1     -41.656  14.131  21.087  0.00  0.00     0.120 A 
ATOM      3  N   UNL d   1     -41.832  14.643  20.475  0.00  0.00    -0.238 NA
ATOM      4  C   UNL d   1     -40.369  14.763  21.251  0.00  0.00     0.013 A 
ATOM      5  C   UNL d   1     -40.562  15.278  20.626  0.00  0.00     0.018 A 
ATOM      6  C   UNL d   1     -41.288  15.218  20.241  0.00  0.00     0.082 A 
ATOM      7  C   UNL d   1     -40.744  13.669  22.101  0.00  0.00     0.103 C 
ATOM      8  N   UNL d   1     -40.557  13.157  22.720  0.00  0.00    -0.191 NA
ATOM      9  C   UNL d   1     -39.643  14.823  21.637  0.00  0.00     0.001 A 
ATOM     10  C   UNL d   1     -40.013  15.857  20.391  0.00  0.00     0.002 A 
ATOM     11  C   UNL d   1     -41.470  15.731  19.624  0.00  0.00     0.021 C 
ATOM     12  C   UNL d   1     -39.099  15.396  21.405  0.00  0.00     0.000 A 
ATOM     13  C   UNL d   1     -39.279  15.917  20.781  0.00  0.00     0.000 A 
ENDROOT
BRANCH   2  14
ATOM     14  S   UNL d   1     -42.202  13.552  21.324  0.00  0.00    -0.062 SA
BRANCH  14  15
ATOM     15  C   UNL d   1     -43.011  13.683  21.215  0.00  0.00     0.099 C 
BRANCH  15  16
ATOM     16  C   UNL d   1     -43.555  13.131  21.491  0.00  0.00     0.286 C 
ATOM     17  N   UNL d   1     -44.315  13.377  21.706  0.00  0.00    -0.206 NA
ATOM     18  O   UNL d   1     -43.345  12.333  21.556  0.00  0.00    -0.265 OA
BRANCH  17  19
ATOM     19  C   UNL d   1     -44.870  12.831  21.985  0.00  0.00     0.102 C 
BRANCH  19  20
ATOM     20  C   UNL d   1     -45.619  13.085  22.222  0.00  0.00     0.021 A 
ATOM     21  C   UNL d   1     -45.768  13.887  22.311  0.00  0.00     0.028 A 
ATOM     22  C   UNL d   1     -46.516  14.140  22.548  0.00  0.00     0.119 A 
ATOM     23  O   UNL d   1     -46.822  14.894  22.681  0.00  0.00    -0.300 OA
ATOM     24  C   UNL d   1     -47.106  13.596  22.693  0.00  0.00     0.119 A 
ATOM     25  C   UNL d   1     -47.609  14.809  22.911  0.00  0.00     0.304 A 
ATOM     26  O   UNL d   1     -47.786  14.005  22.919  0.00  0.00    -0.300 OA
ATOM     27  C   UNL d   1     -46.952  12.777  22.602  0.00  0.00     0.026 A 
ATOM     28  C   UNL d   1     -46.203  12.535  22.366  0.00  0.00     0.004 A 
ENDBRANCH  19  20
ENDBRANCH  17  19
ENDBRANCH  15  16
ENDBRANCH  14  15
ENDBRANCH   2  14
TORSDOF 5
ENDMDL
