MODEL 1
REMARK VINA RESULT:      52.9      0.000      0.000
REMARK  3 active torsions:
REMARK  status: ('A' for Active; 'I' for Inactive)
REMARK    1  A    between atoms: C_12  and  N_3 
REMARK    2  A    between atoms: C_11  and  C_6 
REMARK    3  A    between atoms: C_22  and  C_12 
ROOT
ATOM      1  C   UNL d   1      46.346 -18.983  42.279  0.00  0.00     0.130 A 
ATOM      2  C   UNL d   1      46.217 -18.194  42.073  0.00  0.00     0.157 A 
ATOM      3  N   UNL d   1      46.197 -18.643  43.664  0.00  0.00    -0.256 N 
ATOM      4  C   UNL d   1      46.335 -19.201  43.074  0.00  0.00     0.272 A 
ATOM      5  N   UNL d   1      46.078 -17.625  42.657  0.00  0.00    -0.208 NA
ATOM      6  C   UNL d   1      46.067 -17.843  43.451  0.00  0.00     0.175 A 
ATOM      7  C   UNL d   1      46.483 -19.544  41.698  0.00  0.00     0.204 A 
ATOM      8  N   UNL d   1      46.226 -17.964  41.276  0.00  0.00    -0.289 N 
ATOM      9  C   UNL d   1      46.494 -19.321  40.903  0.00  0.00     0.055 A 
ATOM     10  C   UNL d   1      46.366 -18.535  40.689  0.00  0.00     0.069 A 
ATOM     11  O   UNL d   1      46.463 -19.987  43.288  0.00  0.00    -0.266 OA
ATOM     12  O   UNL d   1      46.611 -20.330  41.909  0.00  0.00    -0.286 OA
ATOM     13  C   UNL d   1      46.099 -17.178  41.062  0.00  0.00     0.101 C 
ATOM     14  C   UNL d   1      46.632 -19.889  40.324  0.00  0.00     0.005 A 
ATOM     15  C   UNL d   1      46.377 -18.316  39.895  0.00  0.00     0.018 A 
ATOM     16  C   UNL d   1      46.643 -19.671  39.530  0.00  0.00     0.000 A 
ATOM     17  C   UNL d   1      46.515 -18.885  39.315  0.00  0.00     0.002 A 
ENDROOT
BRANCH   6  18
ATOM     18  C   UNL d   1      45.928 -17.276  44.043  0.00  0.00     0.135 A 
ATOM     19  O   UNL d   1      46.567 -16.878  44.380  0.00  0.00    -0.302 OA
ATOM     20  C   UNL d   1      46.267 -16.355  44.945  0.00  0.00     0.123 A 
ATOM     21  C   UNL d   1      45.443 -16.432  44.955  0.00  0.00     0.029 A 
ATOM     22  C   UNL d   1      45.237 -17.001  44.398  0.00  0.00     0.030 A 
ENDBRANCH   6  18
BRANCH   3  23
ATOM     23  C   UNL d   1      46.187 -18.864  44.463  0.00  0.00     0.085 C 
BRANCH  23  24
ATOM     24  C   UNL d   1      46.023 -19.654  44.673  0.00  0.00     0.018 C 
ATOM     25  C   UNL d   1      46.645 -20.147  44.952  0.00  0.00     0.002 C 
ATOM     26  C   UNL d   1      45.249 -19.955  44.609  0.00  0.00     0.002 C 
ENDBRANCH  23  24
ENDBRANCH   3  23
TORSDOF 3
ENDMDL
MODEL 2
REMARK VINA RESULT:      53.3      1.580      3.733
REMARK  3 active torsions:
REMARK  status: ('A' for Active; 'I' for Inactive)
REMARK    1  A    between atoms: C_12  and  N_3 
REMARK    2  A    between atoms: C_11  and  C_6 
REMARK    3  A    between atoms: C_22  and  C_12 
ROOT
ATOM      1  C   UNL d   1      46.128 -16.851  42.985  0.00  0.00     0.130 A 
ATOM      2  C   UNL d   1      45.853 -16.924  43.760  0.00  0.00     0.157 A 
ATOM      3  N   UNL d   1      46.343 -18.267  42.930  0.00  0.00    -0.256 N 
ATOM      4  C   UNL d   1      46.371 -17.524  42.576  0.00  0.00     0.272 A 
ATOM      5  N   UNL d   1      45.821 -17.665  44.125  0.00  0.00    -0.208 NA
ATOM      6  C   UNL d   1      46.064 -18.337  43.717  0.00  0.00     0.175 A 
ATOM      7  C   UNL d   1      46.158 -16.116  42.626  0.00  0.00     0.204 A 
ATOM      8  N   UNL d   1      45.606 -16.253  44.180  0.00  0.00    -0.289 N 
ATOM      9  C   UNL d   1      45.914 -15.443  43.039  0.00  0.00     0.055 A 
ATOM     10  C   UNL d   1      45.638 -15.508  43.814  0.00  0.00     0.069 A 
ATOM     11  O   UNL d   1      46.647 -17.459  41.801  0.00  0.00    -0.266 OA
ATOM     12  O   UNL d   1      46.433 -16.047  41.852  0.00  0.00    -0.286 OA
ATOM     13  C   UNL d   1      45.330 -16.318  44.955  0.00  0.00     0.101 C 
ATOM     14  C   UNL d   1      45.946 -14.707  42.673  0.00  0.00     0.005 A 
ATOM     15  C   UNL d   1      45.395 -14.836  44.223  0.00  0.00     0.018 A 
ATOM     16  C   UNL d   1      45.703 -14.035  43.081  0.00  0.00     0.000 A 
ATOM     17  C   UNL d   1      45.428 -14.099  43.856  0.00  0.00     0.002 A 
ENDROOT
BRANCH   6  18
ATOM     18  C   UNL d   1      46.035 -19.086  44.078  0.00  0.00     0.135 A 
ATOM     19  O   UNL d   1      46.574 -19.269  44.675  0.00  0.00    -0.302 OA
ATOM     20  C   UNL d   1      46.416 -20.039  44.928  0.00  0.00     0.123 A 
ATOM     21  C   UNL d   1      45.779 -20.330  44.487  0.00  0.00     0.029 A 
ATOM     22  C   UNL d   1      45.546 -19.740  43.964  0.00  0.00     0.030 A 
ENDBRANCH   6  18
BRANCH   3  23
ATOM     23  C   UNL d   1      46.589 -18.943  42.517  0.00  0.00     0.085 C 
BRANCH  23  24
ATOM     24  C   UNL d   1      46.271 -19.108  41.765  0.00  0.00     0.018 C 
ATOM     25  C   UNL d   1      46.646 -18.799  41.078  0.00  0.00     0.002 C 
ATOM     26  C   UNL d   1      45.586 -19.577  41.690  0.00  0.00     0.002 C 
ENDBRANCH  23  24
ENDBRANCH   3  23
TORSDOF 3
ENDMDL
