MODEL 1
REMARK VINA RESULT:      -9.7      0.000      0.000
REMARK  3 active torsions:
REMARK  status: ('A' for Active; 'I' for Inactive)
REMARK    1  A    between atoms: C_6  and  C_1 
REMARK    2  A    between atoms: C_4  and  C_8 
REMARK       I    between atoms: N_11  and  C_6 
REMARK       I    between atoms: C_8  and  N_12 
REMARK    3  A    between atoms: N_12  and  N_11 
ROOT
ATOM      1  C   UNL d   1      51.329  34.153  52.414  0.00  0.00     0.302 C 
ATOM      2  N   UNL d   1      50.638  34.274  52.847  0.00  0.00    -0.102 NA
ATOM      3  O   UNL d   1      51.391  34.428  51.637  0.00  0.00    -0.263 OA
ENDROOT
BRANCH   1   4
ATOM      4  C   UNL d   1      51.971  33.752  52.751  0.00  0.00     0.123 A 
ATOM      5  C   UNL d   1      52.580  34.171  53.095  0.00  0.00     0.305 A 
ATOM      6  O   UNL d   1      53.221  33.758  53.431  0.00  0.00    -0.273 OA
ATOM      7  O   UNL d   1      52.563  34.992  53.110  0.00  0.00    -0.259 OA
ATOM      8  C   UNL d   1      53.238  32.937  53.416  0.00  0.00     0.103 A 
ATOM      9  C   UNL d   1      52.618  32.515  53.066  0.00  0.00     0.024 A 
ATOM     10  C   UNL d   1      53.873  32.535  53.749  0.00  0.00     0.025 A 
ATOM     11  C   UNL d   1      51.982  32.926  52.733  0.00  0.00     0.012 A 
ATOM     12  C   UNL d   1      52.636  31.694  53.051  0.00  0.00     0.009 A 
ATOM     13  C   UNL d   1      53.266  31.283  53.382  0.00  0.00     0.035 A 
ATOM     14  C   UNL d   1      53.890  31.707  53.734  0.00  0.00     0.009 A 
ATOM     15 BR   UNL d   1      53.283  30.462  53.367  0.00  0.00    -0.049 Br
ENDBRANCH   1   4
BRANCH   2  16
ATOM     16  N   UNL d   1      50.008  34.675  52.496  0.00  0.00    -0.102 NA
ATOM     17  C   UNL d   1      49.339  34.844  52.946  0.00  0.00     0.300 C 
ATOM     18  O   UNL d   1      49.297  34.616  53.739  0.00  0.00    -0.264 OA
BRANCH  17  19
ATOM     19  C   UNL d   1      48.703  35.245  52.605  0.00  0.00     0.098 A 
ATOM     20  C   UNL d   1      48.401  35.919  52.970  0.00  0.00     0.203 A 
ATOM     21  C   UNL d   1      47.771  36.320  52.636  0.00  0.00     0.084 A 
ATOM     22  O   UNL d   1      48.733  36.192  53.673  0.00  0.00    -0.286 OA
ATOM     23  C   UNL d   1      47.436  36.050  51.933  0.00  0.00     0.199 A 
ATOM     24  C   UNL d   1      47.736  35.375  51.564  0.00  0.00     0.042 A 
ATOM     25  O   UNL d   1      46.802  36.453  51.595  0.00  0.00    -0.286 OA
ATOM     26  C   UNL d   1      48.375  34.971  51.906  0.00  0.00     0.011 A 
ENDBRANCH  17  19
ENDBRANCH   2  16
TORSDOF 3
ENDMDL
MODEL 2
REMARK VINA RESULT:      -9.3      2.200      5.535
REMARK  3 active torsions:
REMARK  status: ('A' for Active; 'I' for Inactive)
REMARK    1  A    between atoms: C_6  and  C_1 
REMARK    2  A    between atoms: C_4  and  C_8 
REMARK       I    between atoms: N_11  and  C_6 
REMARK       I    between atoms: C_8  and  N_12 
REMARK    3  A    between atoms: N_12  and  N_11 
ROOT
ATOM      1  C   UNL d   1      50.516  34.157  53.029  0.00  0.00     0.302 C 
ATOM      2  N   UNL d   1      51.221  34.566  53.153  0.00  0.00    -0.102 NA
ATOM      3  O   UNL d   1      50.446  33.364  53.252  0.00  0.00    -0.263 OA
ENDROOT
BRANCH   1   4
ATOM      4  C   UNL d   1      49.867  34.535  52.679  0.00  0.00     0.123 A 
ATOM      5  C   UNL d   1      49.718  34.441  51.884  0.00  0.00     0.305 A 
ATOM      6  O   UNL d   1      49.063  34.826  51.542  0.00  0.00    -0.273 OA
ATOM      7  O   UNL d   1      50.209  33.972  51.422  0.00  0.00    -0.259 OA
ATOM      8  C   UNL d   1      48.571  35.296  52.004  0.00  0.00     0.103 A 
ATOM      9  C   UNL d   1      48.726  35.389  52.812  0.00  0.00     0.024 A 
ATOM     10  C   UNL d   1      47.926  35.673  51.662  0.00  0.00     0.025 A 
ATOM     11  C   UNL d   1      49.377  35.006  53.149  0.00  0.00     0.012 A 
ATOM     12  C   UNL d   1      48.234  35.858  53.273  0.00  0.00     0.009 A 
ATOM     13  C   UNL d   1      47.587  36.239  52.940  0.00  0.00     0.035 A 
ATOM     14  C   UNL d   1      47.432  36.146  52.128  0.00  0.00     0.009 A 
ATOM     15 BR   UNL d   1      47.096  36.709  53.401  0.00  0.00    -0.049 Br
ENDBRANCH   1   4
BRANCH   2  16
ATOM     16  N   UNL d   1      51.858  34.175  53.502  0.00  0.00    -0.102 NA
ATOM     17  C   UNL d   1      52.553  34.591  53.652  0.00  0.00     0.300 C 
ATOM     18  O   UNL d   1      52.614  35.391  53.455  0.00  0.00    -0.264 OA
BRANCH  17  19
ATOM     19  C   UNL d   1      53.195  34.209  54.001  0.00  0.00     0.098 A 
ATOM     20  C   UNL d   1      53.451  34.439  54.750  0.00  0.00     0.203 A 
ATOM     21  C   UNL d   1      54.086  34.064  55.101  0.00  0.00     0.084 A 
ATOM     22  O   UNL d   1      53.064  35.049  55.148  0.00  0.00    -0.286 OA
ATOM     23  C   UNL d   1      54.475  33.454  54.706  0.00  0.00     0.199 A 
ATOM     24  C   UNL d   1      54.222  33.221  53.955  0.00  0.00     0.042 A 
ATOM     25  O   UNL d   1      55.116  33.074  55.058  0.00  0.00    -0.286 OA
ATOM     26  C   UNL d   1      53.577  33.603  53.602  0.00  0.00     0.011 A 
ENDBRANCH  17  19
ENDBRANCH   2  16
TORSDOF 3
ENDMDL
MODEL 3
REMARK VINA RESULT:      -8.2      2.037      5.510
REMARK  3 active torsions:
REMARK  status: ('A' for Active; 'I' for Inactive)
REMARK    1  A    between atoms: C_6  and  C_1 
REMARK    2  A    between atoms: C_4  and  C_8 
REMARK       I    between atoms: N_11  and  C_6 
REMARK       I    between atoms: C_8  and  N_12 
REMARK    3  A    between atoms: N_12  and  N_11 
ROOT
ATOM      1  C   UNL d   1      50.078  34.463  52.025  0.00  0.00     0.302 C 
ATOM      2  N   UNL d   1      50.363  34.116  52.716  0.00  0.00    -0.102 NA
ATOM      3  O   UNL d   1      50.538  34.468  51.337  0.00  0.00    -0.263 OA
ENDROOT
BRANCH   1   4
ATOM      4  C   UNL d   1      49.327  34.813  52.008  0.00  0.00     0.123 A 
ATOM      5  C   UNL d   1      48.866  34.762  51.338  0.00  0.00     0.305 A 
ATOM      6  O   UNL d   1      48.112  35.117  51.333  0.00  0.00    -0.273 OA
ATOM      7  O   UNL d   1      49.142  34.365  50.673  0.00  0.00    -0.259 OA
ATOM      8  C   UNL d   1      47.837  35.514  51.997  0.00  0.00     0.103 A 
ATOM      9  C   UNL d   1      48.307  35.563  52.676  0.00  0.00     0.024 A 
ATOM     10  C   UNL d   1      47.092  35.862  51.986  0.00  0.00     0.025 A 
ATOM     11  C   UNL d   1      49.055  35.210  52.680  0.00  0.00     0.012 A 
ATOM     12  C   UNL d   1      48.031  35.960  53.340  0.00  0.00     0.009 A 
ATOM     13  C   UNL d   1      47.288  36.311  53.339  0.00  0.00     0.035 A 
ATOM     14  C   UNL d   1      46.815  36.262  52.656  0.00  0.00     0.009 A 
ATOM     15 BR   UNL d   1      47.013  36.708  54.003  0.00  0.00    -0.049 Br
ENDBRANCH   1   4
BRANCH   2  16
ATOM     16  N   UNL d   1      51.113  33.773  52.715  0.00  0.00    -0.102 NA
ATOM     17  C   UNL d   1      51.383  33.395  53.396  0.00  0.00     0.300 C 
ATOM     18  O   UNL d   1      50.910  33.359  54.072  0.00  0.00    -0.264 OA
BRANCH  17  19
ATOM     19  C   UNL d   1      52.132  33.048  53.405  0.00  0.00     0.098 A 
ATOM     20  C   UNL d   1      52.758  33.438  53.773  0.00  0.00     0.203 A 
ATOM     21  C   UNL d   1      53.502  33.099  53.785  0.00  0.00     0.084 A 
ATOM     22  O   UNL d   1      52.636  34.170  54.129  0.00  0.00    -0.286 OA
ATOM     23  C   UNL d   1      53.628  32.366  53.430  0.00  0.00     0.199 A 
ATOM     24  C   UNL d   1      53.003  31.973  53.060  0.00  0.00     0.042 A 
ATOM     25  O   UNL d   1      54.377  32.023  53.441  0.00  0.00    -0.286 OA
ATOM     26  C   UNL d   1      52.249  32.320  53.050  0.00  0.00     0.011 A 
ENDBRANCH  17  19
ENDBRANCH   2  16
TORSDOF 3
ENDMDL
MODEL 4
REMARK VINA RESULT:      -7.9      1.552      2.072
REMARK  3 active torsions:
REMARK  status: ('A' for Active; 'I' for Inactive)
REMARK    1  A    between atoms: C_6  and  C_1 
REMARK    2  A    between atoms: C_4  and  C_8 
REMARK       I    between atoms: N_11  and  C_6 
REMARK       I    between atoms: C_8  and  N_12 
REMARK    3  A    between atoms: N_12  and  N_11 
ROOT
ATOM      1  C   UNL d   1      49.797  34.535  52.630  0.00  0.00     0.302 C 
ATOM      2  N   UNL d   1      49.497  35.210  52.994  0.00  0.00    -0.102 NA
ATOM      3  O   UNL d   1      49.294  34.014  52.231  0.00  0.00    -0.263 OA
ENDROOT
BRANCH   1   4
ATOM      4  C   UNL d   1      50.609  34.367  52.659  0.00  0.00     0.123 A 
ATOM      5  C   UNL d   1      51.032  34.271  51.969  0.00  0.00     0.305 A 
ATOM      6  O   UNL d   1      51.847  34.103  52.009  0.00  0.00    -0.273 OA
ATOM      7  O   UNL d   1      50.659  34.339  51.240  0.00  0.00    -0.259 OA
ATOM      8  C   UNL d   1      52.220  34.035  52.738  0.00  0.00     0.103 A 
ATOM      9  C   UNL d   1      51.787  34.133  53.437  0.00  0.00     0.024 A 
ATOM     10  C   UNL d   1      53.024  33.869  52.772  0.00  0.00     0.025 A 
ATOM     11  C   UNL d   1      50.978  34.300  53.394  0.00  0.00     0.012 A 
ATOM     12  C   UNL d   1      52.160  34.065  54.165  0.00  0.00     0.009 A 
ATOM     13  C   UNL d   1      52.964  33.899  54.209  0.00  0.00     0.035 A 
ATOM     14  C   UNL d   1      53.399  33.801  53.507  0.00  0.00     0.009 A 
ATOM     15 BR   UNL d   1      53.337  33.831  54.938  0.00  0.00    -0.049 Br
ENDBRANCH   1   4
BRANCH   2  16
ATOM     16  N   UNL d   1      48.687  35.362  52.956  0.00  0.00    -0.102 NA
ATOM     17  C   UNL d   1      48.385  36.029  53.334  0.00  0.00     0.300 C 
ATOM     18  O   UNL d   1      48.885  36.541  53.747  0.00  0.00    -0.264 OA
BRANCH  17  19
ATOM     19  C   UNL d   1      47.576  36.190  53.302  0.00  0.00     0.098 A 
ATOM     20  C   UNL d   1      47.118  36.124  53.985  0.00  0.00     0.203 A 
ATOM     21  C   UNL d   1      46.317  36.282  53.958  0.00  0.00     0.084 A 
ATOM     22  O   UNL d   1      47.468  35.899  54.696  0.00  0.00    -0.286 OA
ATOM     23  C   UNL d   1      45.963  36.508  53.249  0.00  0.00     0.199 A 
ATOM     24  C   UNL d   1      46.418  36.574  52.563  0.00  0.00     0.042 A 
ATOM     25  O   UNL d   1      45.155  36.667  53.221  0.00  0.00    -0.286 OA
ATOM     26  C   UNL d   1      47.231  36.413  52.593  0.00  0.00     0.011 A 
ENDBRANCH  17  19
ENDBRANCH   2  16
TORSDOF 3
ENDMDL
