MODEL 1
REMARK VINA RESULT:      15.1      0.000      0.000
REMARK  5 active torsions:
REMARK  status: ('A' for Active; 'I' for Inactive)
REMARK    1  A    between atoms: N_2  and  S_1 
REMARK    2  A    between atoms: C_7  and  S_1 
REMARK    3  A    between atoms: C_3  and  N_2 
REMARK    4  A    between atoms: C_14  and  C_4 
REMARK    5  A    between atoms: O_19  and  C_16 
ROOT
ATOM      1  N   UNL d   1      46.406 -17.472  44.203  0.00  0.00    -0.158 NA
ENDROOT
BRANCH   1   2
ATOM      2  S   UNL d   1      45.830 -16.766  44.436  0.00  0.00     0.285 S 
ATOM      3  O   UNL d   1      45.054 -17.200  44.714  0.00  0.00    -0.198 OA
ATOM      4  O   UNL d   1      46.625 -16.340  44.150  0.00  0.00    -0.198 OA
BRANCH   2   5
ATOM      5  C   UNL d   1      45.678 -16.053  44.511  0.00  0.00     0.105 A 
ATOM      6  C   UNL d   1      44.997 -15.845  44.709  0.00  0.00     0.015 A 
ATOM      7  C   UNL d   1      44.844 -15.126  44.784  0.00  0.00     0.025 A 
ATOM      8  C   UNL d   1      45.366 -14.609  44.663  0.00  0.00     0.094 A 
ATOM      9  C   UNL d   1      46.047 -14.818  44.465  0.00  0.00     0.025 A 
ATOM     10  C   UNL d   1      46.207 -15.549  44.387  0.00  0.00     0.015 A 
BRANCH   8  11
ATOM     11  O   UNL d   1      45.201 -13.899  44.741  0.00  0.00    -0.328 OA
ATOM     12  C   UNL d   1      45.604 -13.338  44.508  0.00  0.00     0.181 C 
ENDBRANCH   8  11
ENDBRANCH   2   5
ENDBRANCH   1   2
BRANCH   1  13
ATOM     13  C   UNL d   1      46.467 -18.173  43.750  0.00  0.00     0.094 A 
ATOM     14  C   UNL d   1      46.428 -18.130  42.930  0.00  0.00     0.023 A 
ATOM     15  C   UNL d   1      46.489 -18.830  42.478  0.00  0.00     0.041 A 
ATOM     16  C   UNL d   1      46.587 -19.559  42.855  0.00  0.00     0.196 A 
ATOM     17  C   UNL d   1      46.625 -19.591  43.682  0.00  0.00     0.044 A 
ATOM     18  O   UNL d   1      46.647 -20.248  42.410  0.00  0.00    -0.287 OA
ATOM     19  C   UNL d   1      46.565 -18.901  44.128  0.00  0.00     0.022 A 
ATOM     20  C   UNL d   1      46.603 -18.935  44.955  0.00  0.00     0.002 C 
BRANCH  15  21
ATOM     21  C   UNL d   1      46.451 -18.798  41.651  0.00  0.00     0.003 C 
ATOM     22  C   UNL d   1      46.630 -19.469  41.196  0.00  0.00     0.000 C 
ATOM     23  C   UNL d   1      46.230 -18.081  41.270  0.00  0.00     0.000 C 
ENDBRANCH  15  21
ENDBRANCH   1  13
TORSDOF 5
ENDMDL
MODEL 2
REMARK VINA RESULT:      16.8      0.796      1.707
REMARK  5 active torsions:
REMARK  status: ('A' for Active; 'I' for Inactive)
REMARK    1  A    between atoms: N_2  and  S_1 
REMARK    2  A    between atoms: C_7  and  S_1 
REMARK    3  A    between atoms: C_3  and  N_2 
REMARK    4  A    between atoms: C_14  and  C_4 
REMARK    5  A    between atoms: O_19  and  C_16 
ROOT
ATOM      1  N   UNL d   1      45.720 -17.096  43.623  0.00  0.00    -0.158 NA
ENDROOT
BRANCH   1   2
ATOM      2  S   UNL d   1      45.886 -16.355  44.178  0.00  0.00     0.285 S 
ATOM      3  O   UNL d   1      46.495 -16.683  44.803  0.00  0.00    -0.198 OA
ATOM      4  O   UNL d   1      45.268 -16.038  43.537  0.00  0.00    -0.198 OA
BRANCH   2   5
ATOM      5  C   UNL d   1      45.784 -15.656  44.371  0.00  0.00     0.105 A 
ATOM      6  C   UNL d   1      45.098 -15.380  44.391  0.00  0.00     0.015 A 
ATOM      7  C   UNL d   1      44.995 -14.675  44.585  0.00  0.00     0.025 A 
ATOM      8  C   UNL d   1      45.572 -14.239  44.762  0.00  0.00     0.094 A 
ATOM      9  C   UNL d   1      46.258 -14.515  44.743  0.00  0.00     0.025 A 
ATOM     10  C   UNL d   1      46.367 -15.233  44.545  0.00  0.00     0.015 A 
BRANCH   8  11
ATOM     11  O   UNL d   1      45.457 -13.540  44.954  0.00  0.00    -0.328 OA
ATOM     12  C   UNL d   1      45.935 -12.995  44.892  0.00  0.00     0.181 C 
ENDBRANCH   8  11
ENDBRANCH   2   5
ENDBRANCH   1   2
BRANCH   1  13
ATOM     13  C   UNL d   1      45.954 -17.883  43.459  0.00  0.00     0.094 A 
ATOM     14  C   UNL d   1      45.822 -18.470  44.019  0.00  0.00     0.023 A 
ATOM     15  C   UNL d   1      46.056 -19.256  43.854  0.00  0.00     0.041 A 
ATOM     16  C   UNL d   1      46.416 -19.438  43.133  0.00  0.00     0.196 A 
ATOM     17  C   UNL d   1      46.544 -18.838  42.575  0.00  0.00     0.044 A 
ATOM     18  O   UNL d   1      46.646 -20.211  42.971  0.00  0.00    -0.287 OA
ATOM     19  C   UNL d   1      46.314 -18.064  42.737  0.00  0.00     0.022 A 
ATOM     20  C   UNL d   1      46.442 -17.466  42.179  0.00  0.00     0.002 C 
BRANCH  15  21
ATOM     21  C   UNL d   1      45.928 -19.855  44.412  0.00  0.00     0.003 C 
ATOM     22  C   UNL d   1      45.166 -20.165  44.526  0.00  0.00     0.000 C 
ATOM     23  C   UNL d   1      46.572 -20.150  44.865  0.00  0.00     0.000 C 
ENDBRANCH  15  21
ENDBRANCH   1  13
TORSDOF 5
ENDMDL
