MODEL 1
REMARK VINA RESULT:     114.8      0.000      0.000
REMARK  6 active torsions:
REMARK  status: ('A' for Active; 'I' for Inactive)
REMARK    1  A    between atoms: C_5  and  N_1 
REMARK    2  A    between atoms: N_2  and  C_5 
REMARK    3  A    between atoms: C_12  and  C_9 
REMARK    4  A    between atoms: C_14  and  C_10 
REMARK    5  A    between atoms: O_29  and  C_20 
REMARK    6  A    between atoms: O_28  and  C_21 
ROOT
ATOM      1  N   UNL d   1     -57.672 -99.250 -43.574  0.00  0.00    -0.211 N 
ATOM      2  N   UNL d   1     -57.783 -99.280 -42.768  0.00  0.00    -0.164 NA
ATOM      3  C   UNL d   1     -58.596 -99.219 -42.629  0.00  0.00     0.103 A 
ATOM      4  C   UNL d   1     -58.401 -99.172 -43.930  0.00  0.00     0.086 A 
ATOM      5  C   UNL d   1     -58.962 -99.155 -43.328  0.00  0.00     0.040 A 
ENDROOT
BRANCH   1   6
ATOM      6  C   UNL d   1     -56.990 -99.283 -44.041  0.00  0.00     0.186 C 
BRANCH   6   7
ATOM      7  N   UNL d   1     -56.357 -99.747 -43.796  0.00  0.00    -0.254 N 
ATOM      8  C   UNL d   1     -56.073 -99.887 -43.030  0.00  0.00     0.305 A 
ATOM      9  C   UNL d   1     -55.431-100.384 -43.032  0.00  0.00     0.253 A 
ATOM     10  O   UNL d   1     -56.713 -99.387 -42.974  0.00  0.00    -0.263 OA
ATOM     11  O   UNL d   1     -55.002-100.648 -42.381  0.00  0.00    -0.281 OA
ATOM     12  C   UNL d   1     -55.292-100.575 -43.831  0.00  0.00     0.060 A 
ATOM     13  C   UNL d   1     -55.857-100.187 -44.297  0.00  0.00     0.072 A 
ATOM     14  C   UNL d   1     -54.713-101.061 -44.190  0.00  0.00     0.005 A 
ATOM     15  C   UNL d   1     -55.851-100.279 -45.130  0.00  0.00     0.018 A 
ATOM     16  C   UNL d   1     -55.278-100.757 -45.474  0.00  0.00     0.002 A 
ATOM     17  C   UNL d   1     -54.713-101.146 -45.007  0.00  0.00     0.000 A 
ENDBRANCH   6   7
ENDBRANCH   1   6
BRANCH   4  18
ATOM     18  C   UNL d   1     -58.584 -99.118 -44.725  0.00  0.00     0.018 A 
ATOM     19  C   UNL d   1     -58.048 -98.811 -45.273  0.00  0.00     0.004 A 
ATOM     20  C   UNL d   1     -58.241 -98.759 -46.085  0.00  0.00     0.024 A 
ATOM     21  C   UNL d   1     -58.973 -99.015 -46.346  0.00  0.00     0.094 A 
ATOM     22  C   UNL d   1     -59.518 -99.325 -45.800  0.00  0.00     0.024 A 
ATOM     23  C   UNL d   1     -59.329 -99.378 -44.998  0.00  0.00     0.004 A 
BRANCH  21  24
ATOM     24  O   UNL d   1     -59.170 -98.966 -47.148  0.00  0.00    -0.328 OA
ATOM     25  C   UNL d   1     -59.961 -98.850 -47.374  0.00  0.00     0.181 C 
ENDBRANCH  21  24
ENDBRANCH   4  18
BRANCH   3  26
ATOM     26  C   UNL d   1     -58.948 -99.227 -41.880  0.00  0.00     0.019 A 
ATOM     27  C   UNL d   1     -58.639 -99.732 -41.296  0.00  0.00     0.004 A 
ATOM     28  C   UNL d   1     -58.973 -99.752 -40.553  0.00  0.00     0.024 A 
ATOM     29  C   UNL d   1     -59.607 -99.269 -40.410  0.00  0.00     0.094 A 
ATOM     30  C   UNL d   1     -59.911 -98.777 -40.973  0.00  0.00     0.024 A 
ATOM     31  C   UNL d   1     -59.576 -98.757 -41.716  0.00  0.00     0.004 A 
BRANCH  29  32
ATOM     32  O   UNL d   1     -59.939 -99.290 -39.669  0.00  0.00    -0.328 OA
ATOM     33  C   UNL d   1     -59.479 -99.114 -38.998  0.00  0.00     0.181 C 
ENDBRANCH  29  32
ENDBRANCH   3  26
TORSDOF 6
ENDMDL
