MODEL 1
REMARK VINA RESULT:       2.6      0.000      0.000
REMARK  5 active torsions:
REMARK  status: ('A' for Active; 'I' for Inactive)
REMARK    1  A    between atoms: C_11  and  C_4 
REMARK    2  A    between atoms: N_10  and  C_5 
REMARK    3  A    between atoms: C_12  and  C_8 
REMARK    4  A    between atoms: C_16  and  N_10 
REMARK    5  A    between atoms: C_17  and  C_16 
ROOT
ATOM      1  C   UNL d   1      32.596  21.095 -21.762  0.00  0.00     0.167 A 
ATOM      2  N   UNL d   1      32.631  21.345 -20.971  0.00  0.00    -0.195 N 
ATOM      3  N   UNL d   1      32.577  21.646 -22.355  0.00  0.00    -0.231 NA
ATOM      4  C   UNL d   1      32.580  20.311 -21.932  0.00  0.00     0.057 A 
ATOM      5  C   UNL d   1      32.646  22.135 -20.812  0.00  0.00     0.167 A 
ATOM      6  N   UNL d   1      32.634  20.017 -20.556  0.00  0.00    -0.161 NA
ATOM      7  C   UNL d   1      32.627  22.692 -21.403  0.00  0.00     0.054 A 
ATOM      8  C   UNL d   1      32.592  22.443 -22.189  0.00  0.00     0.063 A 
ATOM      9  C   UNL d   1      32.600  19.772 -21.329  0.00  0.00     0.124 A 
ENDROOT
BRANCH   5  10
ATOM     10  N   UNL d   1      32.682  22.391 -20.006  0.00  0.00    -0.224 NA
BRANCH  10  11
ATOM     11  C   UNL d   1      33.175  22.806 -19.465  0.00  0.00     0.120 C 
BRANCH  11  12
ATOM     12  C   UNL d   1      32.970  22.862 -18.654  0.00  0.00     0.101 A 
ATOM     13  N   UNL d   1      33.227  22.264 -18.107  0.00  0.00    -0.242 NA
ATOM     14  C   UNL d   1      33.017  22.326 -17.291  0.00  0.00     0.099 A 
ATOM     15  C   UNL d   1      32.554  22.980 -17.018  0.00  0.00     0.021 A 
ATOM     16  C   UNL d   1      32.300  23.577 -17.574  0.00  0.00     0.003 A 
ATOM     17  C   UNL d   1      32.509  23.513 -18.382  0.00  0.00     0.021 A 
ENDBRANCH  11  12
ENDBRANCH  10  11
ENDBRANCH   5  10
BRANCH   8  18
ATOM     18  C   UNL d   1      32.572  23.015 -22.816  0.00  0.00     0.036 C 
ATOM     19  C   UNL d   1      32.549  23.580 -23.439  0.00  0.00     0.006 C 
ATOM     20  C   UNL d   1      33.084  23.691 -22.788  0.00  0.00     0.006 C 
ATOM     21  C   UNL d   1      32.036  22.903 -23.467  0.00  0.00     0.006 C 
ENDBRANCH   8  18
BRANCH   4  22
ATOM     22  C   UNL d   1      32.546  20.066 -22.705  0.00  0.00     0.005 A 
ATOM     23  C   UNL d   1      33.230  19.879 -23.110  0.00  0.00     0.001 A 
ATOM     24  C   UNL d   1      33.196  19.638 -23.871  0.00  0.00     0.011 A 
ATOM     25  C   UNL d   1      32.476  19.573 -24.260  0.00  0.00     0.058 A 
ATOM     26  C   UNL d   1      31.800  19.754 -23.869  0.00  0.00     0.011 A 
ATOM     27 CL   UNL d   1      32.440  19.319 -25.062  0.00  0.00    -0.082 Cl
ATOM     28  C   UNL d   1      31.835  20.002 -23.087  0.00  0.00     0.001 A 
ENDBRANCH   4  22
TORSDOF 5
ENDMDL
MODEL 2
REMARK VINA RESULT:       2.8      1.139      1.509
REMARK  5 active torsions:
REMARK  status: ('A' for Active; 'I' for Inactive)
REMARK    1  A    between atoms: C_11  and  C_4 
REMARK    2  A    between atoms: N_10  and  C_5 
REMARK    3  A    between atoms: C_12  and  C_8 
REMARK    4  A    between atoms: C_16  and  N_10 
REMARK    5  A    between atoms: C_17  and  C_16 
ROOT
ATOM      1  C   UNL d   1      32.700  20.767 -22.501  0.00  0.00     0.167 A 
ATOM      2  N   UNL d   1      32.814  21.327 -21.899  0.00  0.00    -0.195 N 
ATOM      3  N   UNL d   1      32.695  21.008 -23.274  0.00  0.00    -0.231 NA
ATOM      4  C   UNL d   1      32.596  19.994 -22.313  0.00  0.00     0.057 A 
ATOM      5  C   UNL d   1      32.917  22.101 -22.099  0.00  0.00     0.167 A 
ATOM      6  N   UNL d   1      32.715  20.316 -20.947  0.00  0.00    -0.161 NA
ATOM      7  C   UNL d   1      32.913  22.347 -22.873  0.00  0.00     0.054 A 
ATOM      8  C   UNL d   1      32.800  21.791 -23.472  0.00  0.00     0.063 A 
ATOM      9  C   UNL d   1      32.604  19.768 -21.536  0.00  0.00     0.124 A 
ENDROOT
BRANCH   5  10
ATOM     10  N   UNL d   1      33.033  22.671 -21.485  0.00  0.00    -0.224 NA
BRANCH  10  11
ATOM     11  C   UNL d   1      32.721  23.393 -21.185  0.00  0.00     0.120 C 
BRANCH  11  12
ATOM     12  C   UNL d   1      32.564  23.485 -20.367  0.00  0.00     0.101 A 
ATOM     13  N   UNL d   1      33.205  23.496 -19.808  0.00  0.00    -0.242 NA
ATOM     14  C   UNL d   1      33.040  23.589 -18.985  0.00  0.00     0.099 A 
ATOM     15  C   UNL d   1      32.241  23.671 -18.716  0.00  0.00     0.021 A 
ATOM     16  C   UNL d   1      31.603  23.658 -19.283  0.00  0.00     0.003 A 
ATOM     17  C   UNL d   1      31.768  23.566 -20.099  0.00  0.00     0.021 A 
ENDBRANCH  11  12
ENDBRANCH  10  11
ENDBRANCH   5  10
BRANCH   8  18
ATOM     18  C   UNL d   1      32.793  22.036 -24.284  0.00  0.00     0.036 C 
ATOM     19  C   UNL d   1      32.789  22.276 -25.091  0.00  0.00     0.006 C 
ATOM     20  C   UNL d   1      32.343  22.716 -24.517  0.00  0.00     0.006 C 
ATOM     21  C   UNL d   1      33.241  21.595 -24.858  0.00  0.00     0.006 C 
ENDBRANCH   8  18
BRANCH   4  22
ATOM     22  C   UNL d   1      32.485  19.446 -22.902  0.00  0.00     0.005 A 
ATOM     23  C   UNL d   1      33.124  19.145 -23.312  0.00  0.00     0.001 A 
ATOM     24  C   UNL d   1      33.014  18.606 -23.892  0.00  0.00     0.011 A 
ATOM     25  C   UNL d   1      32.260  18.345 -24.087  0.00  0.00     0.058 A 
ATOM     26  C   UNL d   1      31.628  18.637 -23.688  0.00  0.00     0.011 A 
ATOM     27 CL   UNL d   1      32.145  17.777 -24.698  0.00  0.00    -0.082 Cl
ATOM     28  C   UNL d   1      31.741  19.190 -23.093  0.00  0.00     0.001 A 
ENDBRANCH   4  22
TORSDOF 5
ENDMDL
