MODEL 1
REMARK VINA RESULT:      19.3      0.000      0.000
REMARK  3 active torsions:
REMARK  status: ('A' for Active; 'I' for Inactive)
REMARK    1  A    between atoms: C_6  and  N_1 
REMARK    2  A    between atoms: C_2  and  C_8 
REMARK    3  A    between atoms: N_3  and  C_2 
REMARK       I    between atoms: C_5  and  N_4 
ROOT
ATOM      1  C   UNL d   1      46.298 -18.140  44.287  0.00  0.00     0.120 C 
ATOM      2  S   UNL d   1      46.484 -18.589  44.955  0.00  0.00    -0.059 SA
ENDROOT
BRANCH   1   3
ATOM      3  C   UNL d   1      46.375 -18.467  43.536  0.00  0.00     0.027 A 
ATOM      4  C   UNL d   1      46.448 -19.284  43.446  0.00  0.00     0.004 A 
ATOM      5  C   UNL d   1      46.525 -19.611  42.690  0.00  0.00     0.024 A 
ATOM      6  C   UNL d   1      46.529 -19.120  42.028  0.00  0.00     0.127 A 
ATOM      7  C   UNL d   1      46.457 -18.303  42.118  0.00  0.00     0.024 A 
ATOM      8  C   UNL d   1      46.380 -17.977  42.870  0.00  0.00     0.004 A 
BRANCH   6   9
ATOM      9  N   UNL d   1      46.607 -19.448  41.276  0.00  0.00    -0.114 N 
ATOM     10  O   UNL d   1      46.646 -18.913  40.646  0.00  0.00    -0.532 OA
ATOM     11  O   UNL d   1      46.645 -20.262  41.128  0.00  0.00    -0.532 OA
ENDBRANCH   6   9
ENDBRANCH   1   3
BRANCH   1  12
ATOM     12  N   UNL d   1      46.035 -17.364  44.373  0.00  0.00    -0.293 N 
ATOM     13  C   UNL d   1      46.533 -16.730  44.174  0.00  0.00     0.100 A 
ATOM     14  C   UNL d   1      46.270 -15.955  44.259  0.00  0.00     0.102 A 
ATOM     15  N   UNL d   1      45.510 -15.806  44.544  0.00  0.00    -0.269 N 
ATOM     16  C   UNL d   1      45.012 -16.439  44.744  0.00  0.00     0.102 A 
ATOM     17  C   UNL d   1      45.246 -15.030  44.630  0.00  0.00     0.265 C 
ATOM     18  C   UNL d   1      45.276 -17.215  44.658  0.00  0.00     0.100 A 
ATOM     19  O   UNL d   1      44.486 -14.881  44.915  0.00  0.00    -0.267 OA
ATOM     20  C   UNL d   1      45.740 -14.399  44.432  0.00  0.00     0.066 C 
ENDBRANCH   1  12
TORSDOF 3
ENDMDL
MODEL 2
REMARK VINA RESULT:      20.4      0.545      1.141
REMARK  3 active torsions:
REMARK  status: ('A' for Active; 'I' for Inactive)
REMARK    1  A    between atoms: C_6  and  N_1 
REMARK    2  A    between atoms: C_2  and  C_8 
REMARK    3  A    between atoms: N_3  and  C_2 
REMARK       I    between atoms: C_5  and  N_4 
ROOT
ATOM      1  C   UNL d   1      46.000 -18.044  44.264  0.00  0.00     0.120 C 
ATOM      2  S   UNL d   1      45.944 -18.509  44.944  0.00  0.00    -0.059 SA
ENDROOT
BRANCH   1   3
ATOM      3  C   UNL d   1      46.142 -18.396  43.534  0.00  0.00     0.027 A 
ATOM      4  C   UNL d   1      46.341 -17.931  42.883  0.00  0.00     0.004 A 
ATOM      5  C   UNL d   1      46.483 -18.287  42.149  0.00  0.00     0.024 A 
ATOM      6  C   UNL d   1      46.425 -19.105  42.071  0.00  0.00     0.127 A 
ATOM      7  C   UNL d   1      46.225 -19.570  42.722  0.00  0.00     0.024 A 
ATOM      8  C   UNL d   1      46.084 -19.217  43.453  0.00  0.00     0.004 A 
BRANCH   6   9
ATOM      9  N   UNL d   1      46.567 -19.458  41.340  0.00  0.00    -0.114 N 
ATOM     10  O   UNL d   1      46.639 -20.282  41.339  0.00  0.00    -0.532 OA
ATOM     11  O   UNL d   1      46.639 -19.038  40.629  0.00  0.00    -0.532 OA
ENDBRANCH   6   9
ENDBRANCH   1   3
BRANCH   1  12
ATOM     12  N   UNL d   1      45.915 -17.226  44.316  0.00  0.00    -0.293 N 
ATOM     13  C   UNL d   1      45.298 -16.898  44.765  0.00  0.00     0.100 A 
ATOM     14  C   UNL d   1      45.213 -16.081  44.816  0.00  0.00     0.102 A 
ATOM     15  N   UNL d   1      45.741 -15.585  44.421  0.00  0.00    -0.269 N 
ATOM     16  C   UNL d   1      46.357 -15.912  43.971  0.00  0.00     0.102 A 
ATOM     17  C   UNL d   1      45.656 -14.767  44.472  0.00  0.00     0.265 C 
ATOM     18  C   UNL d   1      46.442 -16.730  43.920  0.00  0.00     0.100 A 
ATOM     19  O   UNL d   1      46.183 -14.271  44.077  0.00  0.00    -0.267 OA
ATOM     20  C   UNL d   1      45.043 -14.440  44.919  0.00  0.00     0.066 C 
ENDBRANCH   1  12
TORSDOF 3
ENDMDL
MODEL 3
REMARK VINA RESULT:      20.9      0.726      4.246
REMARK  3 active torsions:
REMARK  status: ('A' for Active; 'I' for Inactive)
REMARK    1  A    between atoms: C_6  and  N_1 
REMARK    2  A    between atoms: C_2  and  C_8 
REMARK    3  A    between atoms: N_3  and  C_2 
REMARK       I    between atoms: C_5  and  N_4 
ROOT
ATOM      1  C   UNL d   1      46.225 -17.815  44.270  0.00  0.00     0.120 C 
ATOM      2  S   UNL d   1      46.389 -18.246  44.955  0.00  0.00    -0.059 SA
ENDROOT
BRANCH   1   3
ATOM      3  C   UNL d   1      45.974 -17.033  44.325  0.00  0.00     0.027 A 
ATOM      4  C   UNL d   1      46.325 -16.452  43.857  0.00  0.00     0.004 A 
ATOM      5  C   UNL d   1      46.071 -15.666  43.914  0.00  0.00     0.024 A 
ATOM      6  C   UNL d   1      45.468 -15.466  44.438  0.00  0.00     0.127 A 
ATOM      7  C   UNL d   1      45.116 -16.047  44.906  0.00  0.00     0.024 A 
ATOM      8  C   UNL d   1      45.368 -16.829  44.850  0.00  0.00     0.004 A 
BRANCH   6   9
ATOM      9  N   UNL d   1      45.217 -14.683  44.493  0.00  0.00    -0.114 N 
ATOM     10  O   UNL d   1      44.514 -14.553  44.910  0.00  0.00    -0.532 OA
ATOM     11  O   UNL d   1      45.623 -14.042  44.161  0.00  0.00    -0.532 OA
ENDBRANCH   6   9
ENDBRANCH   1   3
BRANCH   1  12
ATOM     12  N   UNL d   1      46.313 -18.166  43.531  0.00  0.00    -0.293 N 
ATOM     13  C   UNL d   1      46.337 -18.993  43.461  0.00  0.00     0.100 A 
ATOM     14  C   UNL d   1      46.425 -19.344  42.722  0.00  0.00     0.102 A 
ATOM     15  N   UNL d   1      46.490 -18.875  42.047  0.00  0.00    -0.269 N 
ATOM     16  C   UNL d   1      46.466 -18.048  42.115  0.00  0.00     0.102 A 
ATOM     17  C   UNL d   1      46.578 -19.226  41.307  0.00  0.00     0.265 C 
ATOM     18  C   UNL d   1      46.378 -17.697  42.855  0.00  0.00     0.100 A 
ATOM     19  O   UNL d   1      46.642 -18.757  40.632  0.00  0.00    -0.267 OA
ATOM     20  C   UNL d   1      46.601 -20.048  41.237  0.00  0.00     0.066 C 
ENDBRANCH   1  12
TORSDOF 3
ENDMDL
