MODEL 1
REMARK VINA RESULT:       9.7      0.000      0.000
REMARK  4 active torsions:
REMARK  status: ('A' for Active; 'I' for Inactive)
REMARK    1  A    between atoms: C_18  and  C_5 
REMARK    2  A    between atoms: C_7  and  C_8 
REMARK       I    between atoms: C_8  and  N_17 
REMARK    3  A    between atoms: N_17  and  C_19 
REMARK    4  A    between atoms: C_19  and  C_18 
ROOT
ATOM      1  C   UNL d   1      46.435 -18.463  43.415  0.00  0.00     0.148 A 
ATOM      2  N   UNL d   1      46.368 -18.896  44.114  0.00  0.00    -0.288 N 
ATOM      3  N   UNL d   1      46.350 -17.671  43.597  0.00  0.00    -0.227 NA
ATOM      4  C   UNL d   1      46.239 -18.355  44.730  0.00  0.00     0.101 A 
ATOM      5  C   UNL d   1      46.229 -17.599  44.404  0.00  0.00     0.102 A 
ATOM      6  C   UNL d   1      46.567 -18.863  42.705  0.00  0.00     0.035 A 
ATOM      7  C   UNL d   1      46.430 -19.717  44.108  0.00  0.00     0.082 A 
ATOM      8  C   UNL d   1      46.561 -20.108  43.400  0.00  0.00     0.019 A 
ATOM      9  C   UNL d   1      46.630 -19.681  42.690  0.00  0.00     0.004 A 
ATOM     10  C   UNL d   1      46.637 -18.435  41.991  0.00  0.00     0.003 C 
ENDROOT
BRANCH   5  11
ATOM     11  C   UNL d   1      46.117 -16.887  44.816  0.00  0.00     0.042 C 
BRANCH  11  12
ATOM     12  C   UNL d   1      45.740 -16.249  44.444  0.00  0.00     0.104 C 
BRANCH  12  13
ATOM     13  N   UNL d   1      44.980 -16.037  44.665  0.00  0.00    -0.205 NA
ATOM     14  C   UNL d   1      44.776 -15.238  44.736  0.00  0.00     0.302 C 
ATOM     15  O   UNL d   1      44.020 -15.033  44.955  0.00  0.00    -0.263 OA
BRANCH  14  16
ATOM     16  C   UNL d   1      45.345 -14.657  44.584  0.00  0.00     0.158 A 
ATOM     17  O   UNL d   1      45.235 -14.128  43.969  0.00  0.00    -0.300 OA
ATOM     18  C   UNL d   1      45.885 -13.618  43.950  0.00  0.00     0.123 A 
ATOM     19  C   UNL d   1      46.393 -13.831  44.549  0.00  0.00     0.029 A 
ATOM     20  C   UNL d   1      46.059 -14.482  44.949  0.00  0.00     0.032 A 
ENDBRANCH  14  16
ENDBRANCH  12  13
ENDBRANCH  11  12
ENDBRANCH   5  11
TORSDOF 4
ENDMDL
