MODEL 1
REMARK VINA RESULT:      -3.7      0.000      0.000
REMARK  4 active torsions:
REMARK  status: ('A' for Active; 'I' for Inactive)
REMARK    1  A    between atoms: S_13  and  C_7 
REMARK       I    between atoms: N_10  and  C_12 
REMARK    2  A    between atoms: C_25  and  C_11 
REMARK    3  A    between atoms: C_12  and  C_16 
REMARK    4  A    between atoms: C_16  and  S_13 
ROOT
ATOM      1  N   UNL d   1      58.872  -2.962  28.934  0.00  0.00    -0.224 N 
ATOM      2  N   UNL d   1      60.266  -2.612  28.899  0.00  0.00    -0.241 N 
ATOM      3  C   UNL d   1      59.665  -3.160  28.762  0.00  0.00     0.343 A 
ATOM      4  C   UNL d   1      60.075  -1.866  29.206  0.00  0.00     0.160 A 
ATOM      5  C   UNL d   1      58.688  -2.218  29.240  0.00  0.00     0.273 A 
ATOM      6  C   UNL d   1      59.290  -1.670  29.376  0.00  0.00     0.115 A 
ATOM      7  C   UNL d   1      59.105  -0.926  29.682  0.00  0.00     0.120 A 
ATOM      8  N   UNL d   1      60.678  -1.311  29.345  0.00  0.00    -0.209 NA
ATOM      9  N   UNL d   1      59.703  -0.377  29.820  0.00  0.00    -0.220 NA
ATOM     10  C   UNL d   1      60.495  -0.567  29.651  0.00  0.00     0.165 A 
ATOM     11  O   UNL d   1      59.847  -3.907  28.455  0.00  0.00    -0.245 OA
ATOM     12  O   UNL d   1      57.902  -2.026  29.409  0.00  0.00    -0.266 OA
ATOM     13  C   UNL d   1      58.278  -3.512  28.796  0.00  0.00     0.107 C 
ATOM     14  C   UNL d   1      61.051  -2.808  28.729  0.00  0.00     0.105 C 
ENDROOT
BRANCH   7  15
ATOM     15  S   UNL d   1      58.320  -0.734  29.851  0.00  0.00    -0.062 SA
BRANCH  15  16
ATOM     16  C   UNL d   1      58.103  -0.509  30.617  0.00  0.00     0.098 C 
BRANCH  16  17
ATOM     17  C   UNL d   1      57.523   0.065  30.733  0.00  0.00     0.271 C 
ATOM     18  N   UNL d   1      57.042   0.041  31.398  0.00  0.00    -0.272 N 
ATOM     19  C   UNL d   1      57.144  -0.553  31.940  0.00  0.00     0.083 A 
ATOM     20  C   UNL d   1      56.462   0.612  31.516  0.00  0.00     0.083 A 
ATOM     21  C   UNL d   1      56.659  -0.583  32.618  0.00  0.00     0.019 A 
ATOM     22  C   UNL d   1      56.074  -0.007  32.736  0.00  0.00     0.003 A 
ATOM     23  C   UNL d   1      55.980   0.594  32.176  0.00  0.00     0.019 A 
ATOM     24  C   UNL d   1      55.598  -0.036  33.402  0.00  0.00     0.000 C 
ATOM     25  O   UNL d   1      57.422   0.675  30.171  0.00  0.00    -0.266 OA
ENDBRANCH  16  17
ENDBRANCH  15  16
ENDBRANCH   7  15
BRANCH  10  26
ATOM     26  C   UNL d   1      61.094  -0.013  29.790  0.00  0.00     0.039 C 
ATOM     27  C   UNL d   1      61.133   0.678  29.341  0.00  0.00     0.003 C 
ENDBRANCH  10  26
TORSDOF 4
ENDMDL
