MODEL 1
REMARK VINA RESULT:      57.3      0.000      0.000
REMARK  4 active torsions:
REMARK  status: ('A' for Active; 'I' for Inactive)
REMARK    1  A    between atoms: N_5  and  C_1 
REMARK    2  A    between atoms: C_9  and  C_4 
REMARK    3  A    between atoms: C_8  and  N_5 
REMARK    4  A    between atoms: O_12  and  C_9 
ROOT
ATOM      1  N   UNL d   1      59.589  49.560  50.490  0.00  0.00    -0.222 NA
ENDROOT
BRANCH   1   2
ATOM      2  C   UNL d   1      60.333  49.264  50.728  0.00  0.00     0.186 A 
ATOM      3  O   UNL d   1      60.976  49.705  50.981  0.00  0.00    -0.255 OA
ATOM      4  C   UNL d   1      61.599  49.225  51.164  0.00  0.00     0.301 A 
ATOM      5  O   UNL d   1      62.354  49.474  51.443  0.00  0.00    -0.259 OA
ATOM      6  C   UNL d   1      61.356  48.448  51.026  0.00  0.00     0.067 A 
ATOM      7  C   UNL d   1      60.573  48.473  50.756  0.00  0.00     0.046 A 
ATOM      8  C   UNL d   1      61.738  47.722  51.108  0.00  0.00     0.005 A 
ATOM      9  C   UNL d   1      60.179  47.771  50.571  0.00  0.00     0.004 A 
ATOM     10  C   UNL d   1      60.564  47.046  50.654  0.00  0.00     0.000 A 
ATOM     11  C   UNL d   1      61.347  47.022  50.924  0.00  0.00     0.000 A 
ENDBRANCH   1   2
BRANCH   1  12
ATOM     12  C   UNL d   1      58.929  49.610  51.026  0.00  0.00     0.089 A 
ATOM     13  C   UNL d   1      58.195  49.642  50.762  0.00  0.00     0.081 A 
ATOM     14  C   UNL d   1      57.564  49.690  51.289  0.00  0.00     0.007 A 
ATOM     15  C   UNL d   1      57.724  49.704  52.109  0.00  0.00     0.000 A 
ATOM     16  C   UNL d   1      58.502  49.669  52.370  0.00  0.00     0.002 A 
ATOM     17  C   UNL d   1      59.116  49.622  51.835  0.00  0.00     0.019 A 
BRANCH  13  18
ATOM     18  C   UNL d   1      58.083  49.626  49.944  0.00  0.00     0.297 C 
ATOM     19  O   UNL d   1      58.723  49.708  49.440  0.00  0.00    -0.259 OA
BRANCH  18  20
ATOM     20  O   UNL d   1      57.322  49.526  49.642  0.00  0.00    -0.296 OA
ATOM     21  C   UNL d   1      57.232  49.357  48.830  0.00  0.00     0.185 C 
ENDBRANCH  18  20
ENDBRANCH  13  18
ENDBRANCH   1  12
TORSDOF 4
ENDMDL
MODEL 2
REMARK VINA RESULT:      59.6      1.802      2.735
REMARK  4 active torsions:
REMARK  status: ('A' for Active; 'I' for Inactive)
REMARK    1  A    between atoms: N_5  and  C_1 
REMARK    2  A    between atoms: C_9  and  C_4 
REMARK    3  A    between atoms: C_8  and  N_5 
REMARK    4  A    between atoms: O_12  and  C_9 
ROOT
ATOM      1  N   UNL d   1      61.157  48.062  50.455  0.00  0.00    -0.222 NA
ENDROOT
BRANCH   1   2
ATOM      2  C   UNL d   1      61.117  47.229  50.490  0.00  0.00     0.186 A 
ATOM      3  O   UNL d   1      60.698  46.782  51.034  0.00  0.00    -0.255 OA
ATOM      4  C   UNL d   1      60.793  45.993  50.891  0.00  0.00     0.301 A 
ATOM      5  O   UNL d   1      60.450  45.362  51.332  0.00  0.00    -0.259 OA
ATOM      6  C   UNL d   1      61.288  45.922  50.234  0.00  0.00     0.067 A 
ATOM      7  C   UNL d   1      61.488  46.687  49.986  0.00  0.00     0.046 A 
ATOM      8  C   UNL d   1      61.585  45.270  49.827  0.00  0.00     0.005 A 
ATOM      9  C   UNL d   1      61.983  46.792  49.333  0.00  0.00     0.004 A 
ATOM     10  C   UNL d   1      62.278  46.137  48.928  0.00  0.00     0.000 A 
ATOM     11  C   UNL d   1      62.078  45.372  49.177  0.00  0.00     0.000 A 
ENDBRANCH   1   2
BRANCH   1  12
ATOM     12  C   UNL d   1      61.057  48.550  51.147  0.00  0.00     0.089 A 
ATOM     13  C   UNL d   1      60.704  49.245  51.104  0.00  0.00     0.081 A 
ATOM     14  C   UNL d   1      60.612  49.708  51.778  0.00  0.00     0.007 A 
ATOM     15  C   UNL d   1      60.904  49.422  52.507  0.00  0.00     0.000 A 
ATOM     16  C   UNL d   1      61.274  48.689  52.534  0.00  0.00     0.002 A 
ATOM     17  C   UNL d   1      61.356  48.241  51.857  0.00  0.00     0.019 A 
BRANCH  13  18
ATOM     18  C   UNL d   1      60.430  49.488  50.363  0.00  0.00     0.297 C 
ATOM     19  O   UNL d   1      60.953  49.567  49.738  0.00  0.00    -0.259 OA
BRANCH  18  20
ATOM     20  O   UNL d   1      59.628  49.651  50.262  0.00  0.00    -0.296 OA
ATOM     21  C   UNL d   1      59.324  49.704  49.486  0.00  0.00     0.185 C 
ENDBRANCH  18  20
ENDBRANCH  13  18
ENDBRANCH   1  12
TORSDOF 4
ENDMDL
