MODEL 1
REMARK VINA RESULT:      74.2      0.000      0.000
REMARK  4 active torsions:
REMARK  status: ('A' for Active; 'I' for Inactive)
REMARK    1  A    between atoms: N_9  and  C_3 
REMARK    2  A    between atoms: C_12  and  C_5 
REMARK    3  A    between atoms: C_15  and  N_11 
REMARK    4  A    between atoms: C_19  and  C_15 
ROOT
ATOM      1  N   UNL d   1      13.811  13.816  -3.431  0.00  0.00    -0.196 N 
ATOM      2  C   UNL d   1      13.794  13.113  -2.999  0.00  0.00     0.167 A 
ATOM      3  C   UNL d   1      13.484  13.845  -4.185  0.00  0.00     0.152 A 
ATOM      4  N   UNL d   1      14.185  14.382  -2.973  0.00  0.00    -0.163 NA
ATOM      5  C   UNL d   1      14.156  13.246  -2.275  0.00  0.00     0.055 A 
ATOM      6  C   UNL d   1      14.399  14.029  -2.256  0.00  0.00     0.104 A 
ATOM      7  N   UNL d   1      13.448  12.440  -3.322  0.00  0.00    -0.227 NA
ATOM      8  C   UNL d   1      13.135  13.168  -4.514  0.00  0.00     0.057 A 
ATOM      9  C   UNL d   1      13.117  12.465  -4.082  0.00  0.00     0.086 A 
ATOM     10  C   UNL d   1      14.789  14.399  -1.630  0.00  0.00     0.023 C 
ATOM     11  C   UNL d   1      12.769  11.780  -4.401  0.00  0.00     0.021 C 
ENDROOT
BRANCH   3  12
ATOM     12  N   UNL d   1      13.502  14.548  -4.617  0.00  0.00    -0.286 N 
ATOM     13  C   UNL d   1      14.075  14.668  -5.184  0.00  0.00     0.101 A 
ATOM     14  C   UNL d   1      14.090  15.376  -5.616  0.00  0.00     0.100 A 
ATOM     15  N   UNL d   1      13.541  15.944  -5.478  0.00  0.00    -0.300 N 
ATOM     16  C   UNL d   1      12.957  15.823  -4.902  0.00  0.00     0.100 A 
ATOM     17  C   UNL d   1      12.939  15.132  -4.477  0.00  0.00     0.101 A 
BRANCH  15  18
ATOM     18  C   UNL d   1      13.575  16.646  -5.923  0.00  0.00     0.080 C 
BRANCH  18  19
ATOM     19  C   UNL d   1      14.034  17.278  -5.655  0.00  0.00     0.018 A 
ATOM     20  C   UNL d   1      14.633  17.148  -5.099  0.00  0.00     0.002 A 
ATOM     21  C   UNL d   1      15.088  17.790  -4.837  0.00  0.00     0.000 A 
ATOM     22  C   UNL d   1      14.940  18.535  -5.127  0.00  0.00     0.000 A 
ATOM     23  C   UNL d   1      14.352  18.656  -5.671  0.00  0.00     0.000 A 
ATOM     24  C   UNL d   1      13.893  18.025  -5.940  0.00  0.00     0.002 A 
ENDBRANCH  18  19
ENDBRANCH  15  18
ENDBRANCH   3  12
BRANCH   5  25
ATOM     25  C   UNL d   1      14.300  12.757  -1.625  0.00  0.00     0.004 A 
ATOM     26  C   UNL d   1      14.985  12.300  -1.593  0.00  0.00     0.000 A 
ATOM     27  C   UNL d   1      15.129  11.813  -0.946  0.00  0.00     0.000 A 
ATOM     28  C   UNL d   1      14.581  11.780  -0.321  0.00  0.00     0.000 A 
ATOM     29  C   UNL d   1      13.895  12.237  -0.354  0.00  0.00     0.000 A 
ATOM     30  C   UNL d   1      13.752  12.726  -1.004  0.00  0.00     0.000 A 
ENDBRANCH   5  25
TORSDOF 4
ENDMDL
