MODEL 1
REMARK VINA RESULT:      -4.8      0.000      0.000
REMARK  1 active torsions:
REMARK  status: ('A' for Active; 'I' for Inactive)
REMARK    1  A    between atoms: C_10  and  N_3 
ROOT
ATOM      1  C   UNL d   1      58.284  -0.219  30.169  0.00  0.00     0.166 A 
ATOM      2  C   UNL d   1      58.078  -1.012  30.222  0.00  0.00     0.117 A 
ATOM      3  N   UNL d   1      58.842  -0.165  29.559  0.00  0.00    -0.289 N 
ATOM      4  N   UNL d   1      57.948   0.351  30.672  0.00  0.00    -0.225 NA
ATOM      5  N   UNL d   1      57.521  -1.221  30.798  0.00  0.00    -0.241 NA
ATOM      6  C   UNL d   1      58.490  -1.434  29.669  0.00  0.00     0.037 A 
ATOM      7  C   UNL d   1      58.967  -0.906  29.255  0.00  0.00     0.067 A 
ATOM      8  C   UNL d   1      57.405   0.129  31.227  0.00  0.00     0.101 A 
ATOM      9  C   UNL d   1      57.193  -0.670  31.285  0.00  0.00     0.099 A 
ATOM     10  C   UNL d   1      58.505  -2.235  29.474  0.00  0.00     0.003 A 
ATOM     11  C   UNL d   1      59.457  -1.179  28.647  0.00  0.00     0.018 A 
ATOM     12  C   UNL d   1      56.646  -0.901  31.845  0.00  0.00     0.021 A 
ATOM     13  C   UNL d   1      57.075   0.673  31.717  0.00  0.00     0.021 A 
ATOM     14  C   UNL d   1      58.992  -2.513  28.869  0.00  0.00     0.000 A 
ATOM     15  C   UNL d   1      59.468  -1.984  28.455  0.00  0.00     0.002 A 
ATOM     16  C   UNL d   1      56.292  -0.350  32.362  0.00  0.00     0.002 A 
ATOM     17  C   UNL d   1      56.511   0.426  32.291  0.00  0.00     0.002 A 
ENDROOT
BRANCH   3  18
ATOM     18  C   UNL d   1      59.200   0.516  29.312  0.00  0.00     0.082 C 
ATOM     19  C   UNL d   1      59.980   0.682  29.586  0.00  0.00     0.021 C 
ENDBRANCH   3  18
TORSDOF 1
ENDMDL
MODEL 2
REMARK VINA RESULT:      -4.4      0.528      1.799
REMARK  1 active torsions:
REMARK  status: ('A' for Active; 'I' for Inactive)
REMARK    1  A    between atoms: C_10  and  N_3 
ROOT
ATOM      1  C   UNL d   1      58.075  -0.939  30.211  0.00  0.00     0.166 A 
ATOM      2  C   UNL d   1      58.319  -0.158  30.280  0.00  0.00     0.117 A 
ATOM      3  N   UNL d   1      58.498  -1.259  29.573  0.00  0.00    -0.289 N 
ATOM      4  N   UNL d   1      57.508  -1.264  30.724  0.00  0.00    -0.225 NA
ATOM      5  N   UNL d   1      57.976   0.293  30.883  0.00  0.00    -0.241 NA
ATOM      6  C   UNL d   1      58.870   0.002  29.710  0.00  0.00     0.037 A 
ATOM      7  C   UNL d   1      58.982  -0.684  29.269  0.00  0.00     0.067 A 
ATOM      8  C   UNL d   1      57.184  -0.808  31.307  0.00  0.00     0.101 A 
ATOM      9  C   UNL d   1      57.427  -0.019  31.382  0.00  0.00     0.099 A 
ATOM     10  C   UNL d   1      59.296   0.682  29.522  0.00  0.00     0.003 A 
ATOM     11  C   UNL d   1      59.520  -0.689  28.641  0.00  0.00     0.018 A 
ATOM     12  C   UNL d   1      57.104   0.446  31.969  0.00  0.00     0.021 A 
ATOM     13  C   UNL d   1      56.635  -1.113  31.808  0.00  0.00     0.021 A 
ATOM     14  C   UNL d   1      59.834   0.682  28.896  0.00  0.00     0.000 A 
ATOM     15  C   UNL d   1      59.946  -0.004  28.455  0.00  0.00     0.002 A 
ATOM     16  C   UNL d   1      56.532   0.146  32.498  0.00  0.00     0.002 A 
ATOM     17  C   UNL d   1      56.307  -0.626  32.411  0.00  0.00     0.002 A 
ENDROOT
BRANCH   3  18
ATOM     18  C   UNL d   1      58.435  -2.017  29.304  0.00  0.00     0.082 C 
ATOM     19  C   UNL d   1      59.037  -2.570  29.513  0.00  0.00     0.021 C 
ENDBRANCH   3  18
TORSDOF 1
ENDMDL
MODEL 3
REMARK VINA RESULT:      -3.5      1.156      3.601
REMARK  1 active torsions:
REMARK  status: ('A' for Active; 'I' for Inactive)
REMARK    1  A    between atoms: C_10  and  N_3 
ROOT
ATOM      1  C   UNL d   1      57.528   0.041  31.965  0.00  0.00     0.166 A 
ATOM      2  C   UNL d   1      57.149  -0.601  31.620  0.00  0.00     0.117 A 
ATOM      3  N   UNL d   1      57.206   0.120  32.724  0.00  0.00    -0.289 N 
ATOM      4  N   UNL d   1      58.112   0.470  31.558  0.00  0.00    -0.225 NA
ATOM      5  N   UNL d   1      57.372  -0.802  30.849  0.00  0.00    -0.241 NA
ATOM      6  C   UNL d   1      56.613  -0.908  32.142  0.00  0.00     0.037 A 
ATOM      7  C   UNL d   1      56.648  -0.459  32.831  0.00  0.00     0.067 A 
ATOM      8  C   UNL d   1      58.317   0.259  30.806  0.00  0.00     0.101 A 
ATOM      9  C   UNL d   1      57.937  -0.387  30.452  0.00  0.00     0.099 A 
ATOM     10  C   UNL d   1      56.087  -1.541  32.094  0.00  0.00     0.003 A 
ATOM     11  C   UNL d   1      56.157  -0.643  33.471  0.00  0.00     0.018 A 
ATOM     12  C   UNL d   1      58.139  -0.606  29.693  0.00  0.00     0.021 A 
ATOM     13  C   UNL d   1      58.879   0.668  30.404  0.00  0.00     0.021 A 
ATOM     14  C   UNL d   1      55.596  -1.729  32.729  0.00  0.00     0.000 A 
ATOM     15  C   UNL d   1      55.631  -1.280  33.418  0.00  0.00     0.002 A 
ATOM     16  C   UNL d   1      58.721  -0.192  29.261  0.00  0.00     0.002 A 
ATOM     17  C   UNL d   1      59.082   0.436  29.621  0.00  0.00     0.002 A 
ENDROOT
BRANCH   3  18
ATOM     18  C   UNL d   1      57.415   0.682  33.265  0.00  0.00     0.082 C 
ATOM     19  C   UNL d   1      58.124   0.569  33.708  0.00  0.00     0.021 C 
ENDBRANCH   3  18
TORSDOF 1
ENDMDL
MODEL 4
REMARK VINA RESULT:      -3.1      1.276      1.958
REMARK  1 active torsions:
REMARK  status: ('A' for Active; 'I' for Inactive)
REMARK    1  A    between atoms: C_10  and  N_3 
ROOT
ATOM      1  C   UNL d   1      58.189   0.208  30.461  0.00  0.00     0.166 A 
ATOM      2  C   UNL d   1      58.793   0.439  30.968  0.00  0.00     0.117 A 
ATOM      3  N   UNL d   1      58.538   0.109  29.715  0.00  0.00    -0.289 N 
ATOM      4  N   UNL d   1      57.408   0.117  30.730  0.00  0.00    -0.225 NA
ATOM      5  N   UNL d   1      58.591   0.576  31.759  0.00  0.00    -0.241 NA
ATOM      6  C   UNL d   1      59.488   0.481  30.556  0.00  0.00     0.037 A 
ATOM      7  C   UNL d   1      59.329   0.276  29.775  0.00  0.00     0.067 A 
ATOM      8  C   UNL d   1      57.230   0.255  31.505  0.00  0.00     0.101 A 
ATOM      9  C   UNL d   1      57.835   0.488  32.021  0.00  0.00     0.099 A 
ATOM     10  C   UNL d   1      60.257   0.680  30.777  0.00  0.00     0.003 A 
ATOM     11  C   UNL d   1      59.939   0.269  29.216  0.00  0.00     0.018 A 
ATOM     12  C   UNL d   1      57.662   0.630  32.806  0.00  0.00     0.021 A 
ATOM     13  C   UNL d   1      56.478   0.170  31.775  0.00  0.00     0.021 A 
ATOM     14  C   UNL d   1      60.868   0.675  30.223  0.00  0.00     0.000 A 
ATOM     15  C   UNL d   1      60.709   0.469  29.443  0.00  0.00     0.002 A 
ATOM     16  C   UNL d   1      56.886   0.546  33.103  0.00  0.00     0.002 A 
ATOM     17  C   UNL d   1      56.308   0.318  32.585  0.00  0.00     0.002 A 
ENDROOT
BRANCH   3  18
ATOM     18  C   UNL d   1      58.149  -0.117  29.044  0.00  0.00     0.082 C 
ATOM     19  C   UNL d   1      57.884   0.483  28.513  0.00  0.00     0.021 C 
ENDBRANCH   3  18
TORSDOF 1
ENDMDL
MODEL 5
REMARK VINA RESULT:      -2.7      1.716      1.918
REMARK  1 active torsions:
REMARK  status: ('A' for Active; 'I' for Inactive)
REMARK    1  A    between atoms: C_10  and  N_3 
ROOT
ATOM      1  C   UNL d   1      58.505   0.681  31.194  0.00  0.00     0.166 A 
ATOM      2  C   UNL d   1      57.852   0.681  30.696  0.00  0.00     0.117 A 
ATOM      3  N   UNL d   1      59.172   0.681  30.701  0.00  0.00    -0.289 N 
ATOM      4  N   UNL d   1      58.421   0.682  32.020  0.00  0.00    -0.225 NA
ATOM      5  N   UNL d   1      57.105   0.681  31.052  0.00  0.00    -0.241 NA
ATOM      6  C   UNL d   1      58.102   0.681  29.926  0.00  0.00     0.037 A 
ATOM      7  C   UNL d   1      58.925   0.681  29.929  0.00  0.00     0.067 A 
ATOM      8  C   UNL d   1      57.684   0.682  32.350  0.00  0.00     0.101 A 
ATOM      9  C   UNL d   1      57.021   0.681  31.852  0.00  0.00     0.099 A 
ATOM     10  C   UNL d   1      57.697   0.681  29.208  0.00  0.00     0.003 A 
ATOM     11  C   UNL d   1      59.342   0.681  29.215  0.00  0.00     0.018 A 
ATOM     12  C   UNL d   1      56.273   0.682  32.179  0.00  0.00     0.021 A 
ATOM     13  C   UNL d   1      57.591   0.682  33.148  0.00  0.00     0.021 A 
ATOM     14  C   UNL d   1      58.108   0.680  28.493  0.00  0.00     0.000 A 
ATOM     15  C   UNL d   1      58.931   0.681  28.496  0.00  0.00     0.002 A 
ATOM     16  C   UNL d   1      56.159   0.682  33.006  0.00  0.00     0.002 A 
ATOM     17  C   UNL d   1      56.817   0.682  33.477  0.00  0.00     0.002 A 
ENDROOT
BRANCH   3  18
ATOM     18  C   UNL d   1      59.939   0.681  30.953  0.00  0.00     0.082 C 
ATOM     19  C   UNL d   1      60.391  -0.026  30.865  0.00  0.00     0.021 C 
ENDBRANCH   3  18
TORSDOF 1
ENDMDL
MODEL 6
REMARK VINA RESULT:      -2.4      0.840      3.369
REMARK  1 active torsions:
REMARK  status: ('A' for Active; 'I' for Inactive)
REMARK    1  A    between atoms: C_10  and  N_3 
ROOT
ATOM      1  C   UNL d   1      58.015  -0.510  30.899  0.00  0.00     0.166 A 
ATOM      2  C   UNL d   1      57.497  -1.145  30.937  0.00  0.00     0.117 A 
ATOM      3  N   UNL d   1      57.821  -0.014  31.534  0.00  0.00    -0.289 N 
ATOM      4  N   UNL d   1      58.593  -0.455  30.304  0.00  0.00    -0.225 NA
ATOM      5  N   UNL d   1      57.573  -1.731  30.356  0.00  0.00    -0.241 NA
ATOM      6  C   UNL d   1      57.000  -1.050  31.568  0.00  0.00     0.037 A 
ATOM      7  C   UNL d   1      57.202  -0.344  31.941  0.00  0.00     0.067 A 
ATOM      8  C   UNL d   1      58.653  -1.036  29.746  0.00  0.00     0.101 A 
ATOM      9  C   UNL d   1      58.132  -1.680  29.779  0.00  0.00     0.099 A 
ATOM     10  C   UNL d   1      56.383  -1.507  31.867  0.00  0.00     0.003 A 
ATOM     11  C   UNL d   1      56.787  -0.097  32.612  0.00  0.00     0.018 A 
ATOM     12  C   UNL d   1      58.187  -2.270  29.218  0.00  0.00     0.021 A 
ATOM     13  C   UNL d   1      59.207  -0.993  29.167  0.00  0.00     0.021 A 
ATOM     14  C   UNL d   1      55.965  -1.264  32.536  0.00  0.00     0.000 A 
ATOM     15  C   UNL d   1      56.167  -0.559  32.908  0.00  0.00     0.002 A 
ATOM     16  C   UNL d   1      58.758  -2.241  28.610  0.00  0.00     0.002 A 
ATOM     17  C   UNL d   1      59.258  -1.606  28.593  0.00  0.00     0.002 A 
ENDROOT
BRANCH   3  18
ATOM     18  C   UNL d   1      58.189   0.682  31.714  0.00  0.00     0.082 C 
ATOM     19  C   UNL d   1      58.772   0.682  32.325  0.00  0.00     0.021 C 
ENDBRANCH   3  18
TORSDOF 1
ENDMDL
MODEL 7
REMARK VINA RESULT:      -2.2      1.961      4.397
REMARK  1 active torsions:
REMARK  status: ('A' for Active; 'I' for Inactive)
REMARK    1  A    between atoms: C_10  and  N_3 
ROOT
ATOM      1  C   UNL d   1      57.524   0.634  32.800  0.00  0.00     0.166 A 
ATOM      2  C   UNL d   1      56.796   0.588  32.423  0.00  0.00     0.117 A 
ATOM      3  N   UNL d   1      57.364   0.639  33.613  0.00  0.00    -0.289 N 
ATOM      4  N   UNL d   1      58.234   0.666  32.369  0.00  0.00    -0.225 NA
ATOM      5  N   UNL d   1      56.798   0.574  31.595  0.00  0.00    -0.241 NA
ATOM      6  C   UNL d   1      56.207   0.565  32.978  0.00  0.00     0.037 A 
ATOM      7  C   UNL d   1      56.561   0.597  33.720  0.00  0.00     0.067 A 
ATOM      8  C   UNL d   1      58.217   0.651  31.562  0.00  0.00     0.101 A 
ATOM      9  C   UNL d   1      57.485   0.605  31.176  0.00  0.00     0.099 A 
ATOM     10  C   UNL d   1      55.386   0.519  32.919  0.00  0.00     0.003 A 
ATOM     11  C   UNL d   1      56.095   0.583  34.403  0.00  0.00     0.018 A 
ATOM     12  C   UNL d   1      57.461   0.589  30.361  0.00  0.00     0.021 A 
ATOM     13  C   UNL d   1      58.897   0.682  31.137  0.00  0.00     0.021 A 
ATOM     14  C   UNL d   1      54.916   0.504  33.597  0.00  0.00     0.000 A 
ATOM     15  C   UNL d   1      55.270   0.536  34.339  0.00  0.00     0.002 A 
ATOM     16  C   UNL d   1      58.158   0.620  29.904  0.00  0.00     0.002 A 
ATOM     17  C   UNL d   1      58.864   0.666  30.296  0.00  0.00     0.002 A 
ENDROOT
BRANCH   3  18
ATOM     18  C   UNL d   1      57.919   0.680  34.198  0.00  0.00     0.082 C 
ATOM     19  C   UNL d   1      57.660   0.648  35.001  0.00  0.00     0.021 C 
ENDBRANCH   3  18
TORSDOF 1
ENDMDL
MODEL 8
REMARK VINA RESULT:      -2.0      9.160      9.669
REMARK  1 active torsions:
REMARK  status: ('A' for Active; 'I' for Inactive)
REMARK    1  A    between atoms: C_10  and  N_3 
ROOT
ATOM      1  C   UNL d   1      58.950  -9.804  31.692  0.00  0.00     0.166 A 
ATOM      2  C   UNL d   1      58.399  -9.799  32.301  0.00  0.00     0.117 A 
ATOM      3  N   UNL d   1      59.696  -9.802  32.055  0.00  0.00    -0.289 N 
ATOM      4  N   UNL d   1      58.717  -9.810  30.895  0.00  0.00    -0.225 NA
ATOM      5  N   UNL d   1      57.599  -9.801  32.087  0.00  0.00    -0.241 NA
ATOM      6  C   UNL d   1      58.784  -9.794  33.012  0.00  0.00     0.037 A 
ATOM      7  C   UNL d   1      59.593  -9.796  32.859  0.00  0.00     0.067 A 
ATOM      8  C   UNL d   1      57.932  -9.811  30.705  0.00  0.00     0.101 A 
ATOM      9  C   UNL d   1      57.370  -9.806  31.315  0.00  0.00     0.099 A 
ATOM     10  C   UNL d   1      58.516  -9.788  33.792  0.00  0.00     0.003 A 
ATOM     11  C   UNL d   1      60.133  -9.791  33.486  0.00  0.00     0.018 A 
ATOM     12  C   UNL d   1      56.576  -9.807  31.129  0.00  0.00     0.021 A 
ATOM     13  C   UNL d   1      57.696  -9.817  29.937  0.00  0.00     0.021 A 
ATOM     14  C   UNL d   1      59.051  -9.784  34.420  0.00  0.00     0.000 A 
ATOM     15  C   UNL d   1      59.859  -9.785  34.267  0.00  0.00     0.002 A 
ATOM     16  C   UNL d   1      56.313  -9.813  30.337  0.00  0.00     0.002 A 
ATOM     17  C   UNL d   1      56.874  -9.818  29.755  0.00  0.00     0.002 A 
ENDROOT
BRANCH   3  18
ATOM     18  C   UNL d   1      60.404  -9.805  31.667  0.00  0.00     0.082 C 
ATOM     19  C   UNL d   1      60.842  -9.085  31.626  0.00  0.00     0.021 C 
ENDBRANCH   3  18
TORSDOF 1
ENDMDL
MODEL 9
REMARK VINA RESULT:      -1.9      9.049      9.596
REMARK  1 active torsions:
REMARK  status: ('A' for Active; 'I' for Inactive)
REMARK    1  A    between atoms: C_10  and  N_3 
ROOT
ATOM      1  C   UNL d   1      58.418  -9.815  31.203  0.00  0.00     0.166 A 
ATOM      2  C   UNL d   1      59.060  -9.813  30.692  0.00  0.00     0.117 A 
ATOM      3  N   UNL d   1      58.731  -9.815  31.971  0.00  0.00    -0.289 N 
ATOM      4  N   UNL d   1      57.637  -9.816  30.919  0.00  0.00    -0.225 NA
ATOM      5  N   UNL d   1      58.898  -9.812  29.880  0.00  0.00    -0.241 NA
ATOM      6  C   UNL d   1      59.746  -9.812  31.122  0.00  0.00     0.037 A 
ATOM      7  C   UNL d   1      59.541  -9.813  31.920  0.00  0.00     0.067 A 
ATOM      8  C   UNL d   1      57.498  -9.815  30.123  0.00  0.00     0.101 A 
ATOM      9  C   UNL d   1      58.143  -9.813  29.602  0.00  0.00     0.099 A 
ATOM     10  C   UNL d   1      60.541  -9.810  30.906  0.00  0.00     0.003 A 
ATOM     11  C   UNL d   1      60.131  -9.813  32.499  0.00  0.00     0.018 A 
ATOM     12  C   UNL d   1      58.009  -9.812  28.798  0.00  0.00     0.021 A 
ATOM     13  C   UNL d   1      56.747  -9.817  29.838  0.00  0.00     0.021 A 
ATOM     14  C   UNL d   1      61.133  -9.809  31.479  0.00  0.00     0.000 A 
ATOM     15  C   UNL d   1      60.929  -9.811  32.276  0.00  0.00     0.002 A 
ATOM     16  C   UNL d   1      57.236  -9.814  28.484  0.00  0.00     0.002 A 
ATOM     17  C   UNL d   1      56.618  -9.816  29.007  0.00  0.00     0.002 A 
ENDROOT
BRANCH   3  18
ATOM     18  C   UNL d   1      58.299  -9.817  32.652  0.00  0.00     0.082 C 
ATOM     19  C   UNL d   1      58.152  -9.080  33.037  0.00  0.00     0.021 C 
ENDBRANCH   3  18
TORSDOF 1
ENDMDL
