MODEL 1
REMARK VINA RESULT:      -7.3      0.000      0.000
REMARK  3 active torsions:
REMARK  status: ('A' for Active; 'I' for Inactive)
REMARK    1  A    between atoms: N_2  and  S_1 
REMARK    2  A    between atoms: C_5  and  S_1 
REMARK    3  A    between atoms: S_9  and  C_3 
ROOT
ATOM      1  S   UNL d   1     -48.158  13.210  22.106  0.00  0.00     0.273 S 
ATOM      2  O   UNL d   1     -48.666  12.946  21.511  0.00  0.00    -0.200 OA
ATOM      3  O   UNL d   1     -47.763  12.592  21.748  0.00  0.00    -0.200 OA
ENDROOT
BRANCH   1   4
ATOM      4  N   UNL d   1     -47.507  13.287  22.609  0.00  0.00    -0.208 N 
ATOM      5  C   UNL d   1     -47.213  12.700  23.115  0.00  0.00     0.185 A 
ATOM      6  N   UNL d   1     -46.561  13.008  23.516  0.00  0.00    -0.219 NA
ATOM      7  C   UNL d   1     -46.454  13.786  23.256  0.00  0.00     0.121 A 
ATOM      8  C   UNL d   1     -47.032  13.962  22.699  0.00  0.00     0.114 A 
BRANCH   5   9
ATOM      9  S   UNL d   1     -47.522  11.935  23.202  0.00  0.00    -0.075 SA
ATOM     10  C   UNL d   1     -47.146  11.397  23.698  0.00  0.00     0.077 C 
ENDBRANCH   5   9
ENDBRANCH   1   4
BRANCH   1  11
ATOM     11  C   UNL d   1     -48.573  13.830  22.455  0.00  0.00     0.104 A 
ATOM     12  C   UNL d   1     -48.417  14.600  22.217  0.00  0.00     0.013 A 
ATOM     13  C   UNL d   1     -48.834  15.219  22.569  0.00  0.00     0.001 A 
ATOM     14  C   UNL d   1     -49.400  15.064  23.151  0.00  0.00     0.000 A 
ATOM     15  C   UNL d   1     -49.549  14.286  23.382  0.00  0.00     0.001 A 
ATOM     16  C   UNL d   1     -49.814  15.684  23.500  0.00  0.00     0.000 C 
ATOM     17  C   UNL d   1     -49.131  13.668  23.031  0.00  0.00     0.013 A 
ENDBRANCH   1  11
TORSDOF 3
ENDMDL
MODEL 2
REMARK VINA RESULT:      -7.3      1.482      2.463
REMARK  3 active torsions:
REMARK  status: ('A' for Active; 'I' for Inactive)
REMARK    1  A    between atoms: N_2  and  S_1 
REMARK    2  A    between atoms: C_5  and  S_1 
REMARK    3  A    between atoms: S_9  and  C_3 
ROOT
ATOM      1  S   UNL d   1     -48.891  12.569  21.910  0.00  0.00     0.273 S 
ATOM      2  O   UNL d   1     -49.061  12.881  21.165  0.00  0.00    -0.200 OA
ATOM      3  O   UNL d   1     -49.518  12.127  21.632  0.00  0.00    -0.200 OA
ENDROOT
BRANCH   1   4
ATOM      4  N   UNL d   1     -48.914  12.105  22.594  0.00  0.00    -0.208 N 
ATOM      5  C   UNL d   1     -49.577  11.989  23.079  0.00  0.00     0.185 A 
ATOM      6  N   UNL d   1     -49.357  11.489  23.698  0.00  0.00    -0.219 NA
ATOM      7  C   UNL d   1     -48.560  11.298  23.595  0.00  0.00     0.121 A 
ATOM      8  C   UNL d   1     -48.283  11.674  22.918  0.00  0.00     0.114 A 
BRANCH   5   9
ATOM      9  S   UNL d   1     -50.329  12.318  22.960  0.00  0.00    -0.075 SA
ATOM     10  C   UNL d   1     -50.931  12.163  23.498  0.00  0.00     0.077 C 
ENDBRANCH   5   9
ENDBRANCH   1   4
BRANCH   1  11
ATOM     11  C   UNL d   1     -48.258  13.026  22.174  0.00  0.00     0.104 A 
ATOM     12  C   UNL d   1     -47.493  12.759  22.051  0.00  0.00     0.013 A 
ATOM     13  C   UNL d   1     -46.861  13.220  22.316  0.00  0.00     0.001 A 
ATOM     14  C   UNL d   1     -47.000  13.938  22.699  0.00  0.00     0.000 A 
ATOM     15  C   UNL d   1     -47.775  14.197  22.818  0.00  0.00     0.001 A 
ATOM     16  C   UNL d   1     -46.368  14.396  22.963  0.00  0.00     0.000 C 
ATOM     17  C   UNL d   1     -48.406  13.736  22.552  0.00  0.00     0.013 A 
ENDBRANCH   1  11
TORSDOF 3
ENDMDL
MODEL 3
REMARK VINA RESULT:      -7.1      1.543      2.162
REMARK  3 active torsions:
REMARK  status: ('A' for Active; 'I' for Inactive)
REMARK    1  A    between atoms: N_2  and  S_1 
REMARK    2  A    between atoms: C_5  and  S_1 
REMARK    3  A    between atoms: S_9  and  C_3 
ROOT
ATOM      1  S   UNL d   1     -47.360  13.854  22.862  0.00  0.00     0.273 S 
ATOM      2  O   UNL d   1     -47.575  14.638  22.711  0.00  0.00    -0.200 OA
ATOM      3  O   UNL d   1     -46.720  14.300  23.102  0.00  0.00    -0.200 OA
ENDROOT
BRANCH   1   4
ATOM      4  N   UNL d   1     -46.935  13.184  23.094  0.00  0.00    -0.208 N 
ATOM      5  C   UNL d   1     -46.178  12.975  22.828  0.00  0.00     0.185 A 
ATOM      6  N   UNL d   1     -45.962  12.270  23.198  0.00  0.00    -0.219 NA
ATOM      7  C   UNL d   1     -46.586  12.045  23.692  0.00  0.00     0.121 A 
ATOM      8  C   UNL d   1     -47.186  12.604  23.631  0.00  0.00     0.114 A 
BRANCH   5   9
ATOM      9  S   UNL d   1     -45.719  13.401  22.284  0.00  0.00    -0.075 SA
ATOM     10  C   UNL d   1     -44.988  13.107  22.048  0.00  0.00     0.077 C 
ENDBRANCH   5   9
ENDBRANCH   1   4
BRANCH   1  11
ATOM     11  C   UNL d   1     -48.015  13.422  22.614  0.00  0.00     0.104 A 
ATOM     12  C   UNL d   1     -48.600  13.232  23.157  0.00  0.00     0.013 A 
ATOM     13  C   UNL d   1     -49.255  12.798  22.904  0.00  0.00     0.001 A 
ATOM     14  C   UNL d   1     -49.319  12.560  22.116  0.00  0.00     0.000 A 
ATOM     15  C   UNL d   1     -48.726  12.756  21.578  0.00  0.00     0.001 A 
ATOM     16  C   UNL d   1     -49.974  12.127  21.867  0.00  0.00     0.000 C 
ATOM     17  C   UNL d   1     -48.071  13.190  21.831  0.00  0.00     0.013 A 
ENDBRANCH   1  11
TORSDOF 3
ENDMDL
MODEL 4
REMARK VINA RESULT:      -7.1      1.362      2.173
REMARK  3 active torsions:
REMARK  status: ('A' for Active; 'I' for Inactive)
REMARK    1  A    between atoms: N_2  and  S_1 
REMARK    2  A    between atoms: C_5  and  S_1 
REMARK    3  A    between atoms: S_9  and  C_3 
ROOT
ATOM      1  S   UNL d   1     -48.544  12.844  21.778  0.00  0.00     0.273 S 
ATOM      2  O   UNL d   1     -48.481  12.235  21.224  0.00  0.00    -0.200 OA
ATOM      3  O   UNL d   1     -47.928  13.064  21.290  0.00  0.00    -0.200 OA
ENDROOT
BRANCH   1   4
ATOM      4  N   UNL d   1     -48.415  13.544  22.198  0.00  0.00    -0.208 N 
ATOM      5  C   UNL d   1     -47.707  13.761  22.571  0.00  0.00     0.185 A 
ATOM      6  N   UNL d   1     -47.817  14.499  22.922  0.00  0.00    -0.219 NA
ATOM      7  C   UNL d   1     -48.594  14.737  22.766  0.00  0.00     0.121 A 
ATOM      8  C   UNL d   1     -48.965  14.153  22.321  0.00  0.00     0.114 A 
BRANCH   5   9
ATOM      9  S   UNL d   1     -47.009  13.313  22.587  0.00  0.00    -0.075 SA
ATOM     10  C   UNL d   1     -46.332  13.625  22.935  0.00  0.00     0.077 C 
ENDBRANCH   5   9
ENDBRANCH   1   4
BRANCH   1  11
ATOM     11  C   UNL d   1     -49.168  12.605  22.260  0.00  0.00     0.104 A 
ATOM     12  C   UNL d   1     -49.016  12.117  22.901  0.00  0.00     0.013 A 
ATOM     13  C   UNL d   1     -49.644  11.880  23.381  0.00  0.00     0.001 A 
ATOM     14  C   UNL d   1     -50.413  12.131  23.217  0.00  0.00     0.000 A 
ATOM     15  C   UNL d   1     -50.556  12.622  22.569  0.00  0.00     0.001 A 
ATOM     16  C   UNL d   1     -51.038  11.893  23.698  0.00  0.00     0.000 C 
ATOM     17  C   UNL d   1     -49.928  12.858  22.089  0.00  0.00     0.013 A 
ENDBRANCH   1  11
TORSDOF 3
ENDMDL
