MODEL 1
REMARK VINA RESULT:      29.8      0.000      0.000
REMARK  4 active torsions:
REMARK  status: ('A' for Active; 'I' for Inactive)
REMARK    1  A    between atoms: C_2  and  C_1 
REMARK       I    between atoms: N_6  and  C_2 
REMARK    2  A    between atoms: C_4  and  C_11 
REMARK    3  A    between atoms: N_8  and  N_6 
REMARK    4  A    between atoms: C_11  and  N_8 
ROOT
ATOM      1  C   UNL d   1     -51.095  27.057  33.475  0.00  0.00     0.300 C 
ATOM      2  O   UNL d   1     -50.991  27.874  33.519  0.00  0.00    -0.264 OA
ATOM      3  N   UNL d   1     -51.858  26.734  33.418  0.00  0.00    -0.105 NA
ENDROOT
BRANCH   3   4
ATOM      4  N   UNL d   1     -51.963  25.916  33.374  0.00  0.00    -0.143 NA
BRANCH   4   5
ATOM      5  C   UNL d   1     -52.734  25.590  33.309  0.00  0.00     0.126 C 
BRANCH   5   6
ATOM      6  C   UNL d   1     -52.862  24.796  33.467  0.00  0.00     0.060 A 
ATOM      7  C   UNL d   1     -53.634  24.504  33.576  0.00  0.00     0.197 A 
ATOM      8  O   UNL d   1     -54.269  25.018  33.525  0.00  0.00    -0.286 OA
ATOM      9  C   UNL d   1     -53.762  23.710  33.734  0.00  0.00     0.042 A 
ATOM     10  C   UNL d   1     -53.126  23.193  33.785  0.00  0.00     0.003 A 
ATOM     11  C   UNL d   1     -52.339  23.480  33.675  0.00  0.00     0.000 A 
ATOM     12  C   UNL d   1     -52.211  24.277  33.517  0.00  0.00     0.005 A 
ENDBRANCH   5   6
ENDBRANCH   4   5
ENDBRANCH   3   4
BRANCH   1  13
ATOM     13  C   UNL d   1     -50.438  26.557  33.489  0.00  0.00     0.098 A 
ATOM     14  C   UNL d   1     -49.698  26.870  33.679  0.00  0.00     0.200 A 
ATOM     15  O   UNL d   1     -49.625  27.668  33.849  0.00  0.00    -0.286 OA
ATOM     16  C   UNL d   1     -49.027  26.384  33.698  0.00  0.00     0.042 A 
ATOM     17  C   UNL d   1     -49.100  25.583  33.527  0.00  0.00     0.003 A 
ATOM     18  C   UNL d   1     -49.845  25.257  33.335  0.00  0.00     0.000 A 
ATOM     19  C   UNL d   1     -50.513  25.735  33.314  0.00  0.00     0.008 A 
ENDBRANCH   1  13
TORSDOF 4
ENDMDL
