MODEL 1
REMARK VINA RESULT:      31.7      0.000      0.000
REMARK  3 active torsions:
REMARK  status: ('A' for Active; 'I' for Inactive)
REMARK    1  A    between atoms: C_15  and  N_5 
REMARK    2  A    between atoms: C_21  and  C_15 
REMARK    3  A    between atoms: O_20  and  C_21 
ROOT
ATOM      1  C   UNL d   1     -51.326  25.458  33.309  0.00  0.00     0.137 A 
ATOM      2  C   UNL d   1     -50.868  24.772  33.307  0.00  0.00     0.192 A 
ATOM      3  C   UNL d   1     -50.972  26.194  33.310  0.00  0.00     0.272 A 
ATOM      4  N   UNL d   1     -50.045  24.825  33.306  0.00  0.00    -0.204 NA
ATOM      5  N   UNL d   1     -50.136  26.251  33.309  0.00  0.00    -0.256 N 
ATOM      6  C   UNL d   1     -52.150  25.406  33.310  0.00  0.00     0.205 A 
ATOM      7  C   UNL d   1     -49.687  25.568  33.307  0.00  0.00     0.152 A 
ATOM      8  C   UNL d   1     -52.515  24.667  33.310  0.00  0.00     0.062 A 
ATOM      9  O   UNL d   1     -51.242  24.036  33.307  0.00  0.00    -0.289 OA
ATOM     10  C   UNL d   1     -52.057  23.980  33.308  0.00  0.00     0.105 A 
ATOM     11  O   UNL d   1     -51.430  26.880  33.312  0.00  0.00    -0.266 OA
ATOM     12  O   UNL d   1     -52.612  26.084  33.312  0.00  0.00    -0.286 OA
ATOM     13  C   UNL d   1     -53.337  24.619  33.311  0.00  0.00     0.012 A 
ATOM     14  C   UNL d   1     -52.421  23.245  33.307  0.00  0.00     0.025 A 
ATOM     15  C   UNL d   1     -53.705  23.875  33.310  0.00  0.00     0.035 A 
ATOM     16  C   UNL d   1     -48.868  25.623  33.306  0.00  0.00     0.041 C 
ATOM     17  C   UNL d   1     -53.245  23.192  33.308  0.00  0.00     0.009 A 
ATOM     18 BR   UNL d   1     -54.541  23.819  33.311  0.00  0.00    -0.049 Br
ENDROOT
BRANCH   5  19
ATOM     19  C   UNL d   1     -49.768  26.994  33.310  0.00  0.00     0.111 C 
BRANCH  19  20
ATOM     20  C   UNL d   1     -49.846  27.491  33.964  0.00  0.00     0.135 C 
BRANCH  20  21
ATOM     21  O   UNL d   1     -49.355  28.150  34.041  0.00  0.00    -0.325 OA
ATOM     22  C   UNL d   1     -48.860  28.220  34.697  0.00  0.00     0.182 C 
ENDBRANCH  20  21
ENDBRANCH  19  20
ENDBRANCH   5  19
TORSDOF 3
ENDMDL
MODEL 2
REMARK VINA RESULT:      32.5      1.753      3.893
REMARK  3 active torsions:
REMARK  status: ('A' for Active; 'I' for Inactive)
REMARK    1  A    between atoms: C_15  and  N_5 
REMARK    2  A    between atoms: C_21  and  C_15 
REMARK    3  A    between atoms: O_20  and  C_21 
ROOT
ATOM      1  C   UNL d   1     -51.397  25.602  33.308  0.00  0.00     0.137 A 
ATOM      2  C   UNL d   1     -50.590  25.427  33.309  0.00  0.00     0.192 A 
ATOM      3  C   UNL d   1     -51.952  25.004  33.308  0.00  0.00     0.272 A 
ATOM      4  N   UNL d   1     -50.338  24.642  33.309  0.00  0.00    -0.204 NA
ATOM      5  N   UNL d   1     -51.699  24.205  33.308  0.00  0.00    -0.256 N 
ATOM      6  C   UNL d   1     -51.649  26.388  33.307  0.00  0.00     0.205 A 
ATOM      7  C   UNL d   1     -50.899  24.037  33.309  0.00  0.00     0.152 A 
ATOM      8  C   UNL d   1     -51.095  26.999  33.308  0.00  0.00     0.062 A 
ATOM      9  O   UNL d   1     -50.043  26.044  33.309  0.00  0.00    -0.289 OA
ATOM     10  C   UNL d   1     -50.289  26.823  33.308  0.00  0.00     0.105 A 
ATOM     11  O   UNL d   1     -52.758  25.179  33.307  0.00  0.00    -0.266 OA
ATOM     12  O   UNL d   1     -52.450  26.569  33.307  0.00  0.00    -0.286 OA
ATOM     13  C   UNL d   1     -51.351  27.780  33.307  0.00  0.00     0.012 A 
ATOM     14  C   UNL d   1     -49.738  27.431  33.309  0.00  0.00     0.025 A 
ATOM     15  C   UNL d   1     -50.793  28.395  33.307  0.00  0.00     0.035 A 
ATOM     16  C   UNL d   1     -50.651  23.254  33.310  0.00  0.00     0.041 C 
ATOM     17  C   UNL d   1     -49.990  28.217  33.308  0.00  0.00     0.009 A 
ATOM     18 BR   UNL d   1     -51.047  29.193  33.307  0.00  0.00    -0.049 Br
ENDROOT
BRANCH   5  19
ATOM     19  C   UNL d   1     -52.256  23.591  33.308  0.00  0.00     0.111 C 
BRANCH  19  20
ATOM     20  C   UNL d   1     -52.850  23.573  33.881  0.00  0.00     0.135 C 
BRANCH  20  21
ATOM     21  O   UNL d   1     -53.625  23.389  33.665  0.00  0.00    -0.325 OA
ATOM     22  C   UNL d   1     -54.194  23.257  34.247  0.00  0.00     0.182 C 
ENDBRANCH  20  21
ENDBRANCH  19  20
ENDBRANCH   5  19
TORSDOF 3
ENDMDL
