MODEL 1
REMARK VINA RESULT:      44.4      0.000      0.000
REMARK  4 active torsions:
REMARK  status: ('A' for Active; 'I' for Inactive)
REMARK    1  A    between atoms: C_2  and  N_1 
REMARK    2  A    between atoms: C_12  and  C_5 
REMARK    3  A    between atoms: O_20  and  C_12 
REMARK    4  A    between atoms: C_22  and  O_20 
ROOT
ATOM      1  N   UNL d   1      13.592  12.820  -2.542  0.00  0.00    -0.237 N 
ATOM      2  C   UNL d   1      13.885  13.578  -2.716  0.00  0.00     0.263 A 
ATOM      3  C   UNL d   1      13.276  12.495  -3.230  0.00  0.00     0.263 A 
ATOM      4  C   UNL d   1      13.369  13.049  -3.843  0.00  0.00     0.039 A 
ATOM      5  C   UNL d   1      13.747  13.719  -3.518  0.00  0.00     0.039 A 
ATOM      6  C   UNL d   1      13.162  13.035  -4.646  0.00  0.00     0.049 A 
ATOM      7  C   UNL d   1      13.918  14.376  -4.001  0.00  0.00     0.049 A 
ATOM      8  C   UNL d   1      13.333  13.691  -5.129  0.00  0.00    -0.026 A 
ATOM      9  C   UNL d   1      13.711  14.362  -4.809  0.00  0.00    -0.026 A 
ATOM     10  C   UNL d   1      13.488  13.438  -4.058  0.00  0.00     0.018 A 
ATOM     11  O   UNL d   1      12.941  11.779  -3.299  0.00  0.00    -0.267 OA
ATOM     12  O   UNL d   1      14.231  14.075  -2.212  0.00  0.00    -0.267 OA
ENDROOT
BRANCH   1  13
ATOM     13  C   UNL d   1      13.615  12.469  -1.821  0.00  0.00     0.105 A 
ATOM     14  C   UNL d   1      14.263  12.147  -1.485  0.00  0.00     0.086 A 
ATOM     15  C   UNL d   1      14.049  11.861  -0.777  0.00  0.00     0.014 A 
ATOM     16  C   UNL d   1      13.272  12.008  -0.683  0.00  0.00     0.031 A 
ATOM     17  S   UNL d   1      13.005  12.382  -1.325  0.00  0.00    -0.069 SA
ATOM     18  C   UNL d   1      12.902  11.780  -0.015  0.00  0.00     0.007 C 
BRANCH  14  19
ATOM     19  C   UNL d   1      14.986  12.119  -1.801  0.00  0.00     0.302 C 
ATOM     20  O   UNL d   1      15.085  11.892  -2.555  0.00  0.00    -0.259 OA
BRANCH  19  21
ATOM     21  O   UNL d   1      15.623  12.318  -1.364  0.00  0.00    -0.271 OA
BRANCH  21  22
ATOM     22  C   UNL d   1      16.210  11.780  -1.397  0.00  0.00     0.126 C 
ATOM     23  C   UNL d   1      16.961  12.021  -1.468  0.00  0.00     0.029 C 
ENDBRANCH  21  22
ENDBRANCH  19  21
ENDBRANCH  14  19
ENDBRANCH   1  13
TORSDOF 4
ENDMDL
MODEL 2
REMARK VINA RESULT:      46.3      2.138      3.146
REMARK  4 active torsions:
REMARK  status: ('A' for Active; 'I' for Inactive)
REMARK    1  A    between atoms: C_2  and  N_1 
REMARK    2  A    between atoms: C_12  and  C_5 
REMARK    3  A    between atoms: O_20  and  C_12 
REMARK    4  A    between atoms: C_22  and  O_20 
ROOT
ATOM      1  N   UNL d   1      14.625  13.930  -0.753  0.00  0.00    -0.237 N 
ATOM      2  C   UNL d   1      14.332  14.626  -1.100  0.00  0.00     0.263 A 
ATOM      3  C   UNL d   1      15.372  14.086  -0.440  0.00  0.00     0.263 A 
ATOM      4  C   UNL d   1      15.552  14.884  -0.588  0.00  0.00     0.039 A 
ATOM      5  C   UNL d   1      14.903  15.214  -0.999  0.00  0.00     0.039 A 
ATOM      6  C   UNL d   1      16.212  15.352  -0.408  0.00  0.00     0.049 A 
ATOM      7  C   UNL d   1      14.918  16.014  -1.228  0.00  0.00     0.049 A 
ATOM      8  C   UNL d   1      16.228  16.152  -0.637  0.00  0.00    -0.026 A 
ATOM      9  C   UNL d   1      15.582  16.485  -1.046  0.00  0.00    -0.026 A 
ATOM     10  C   UNL d   1      15.503  15.316  -0.740  0.00  0.00     0.018 A 
ATOM     11  O   UNL d   1      15.838  13.568  -0.062  0.00  0.00    -0.267 OA
ATOM     12  O   UNL d   1      13.637  14.714  -1.460  0.00  0.00    -0.267 OA
ENDROOT
BRANCH   1  13
ATOM     13  C   UNL d   1      14.241  13.226  -0.730  0.00  0.00     0.105 A 
ATOM     14  C   UNL d   1      14.327  12.636  -1.259  0.00  0.00     0.086 A 
ATOM     15  C   UNL d   1      13.851  12.042  -1.036  0.00  0.00     0.014 A 
ATOM     16  C   UNL d   1      13.477  12.271  -0.370  0.00  0.00     0.031 A 
ATOM     17  S   UNL d   1      13.717  12.999  -0.183  0.00  0.00    -0.069 SA
ATOM     18  C   UNL d   1      12.959  11.780  -0.017  0.00  0.00     0.007 C 
BRANCH  14  19
ATOM     19  C   UNL d   1      14.799  12.642  -1.892  0.00  0.00     0.302 C 
ATOM     20  O   UNL d   1      15.566  12.453  -1.820  0.00  0.00    -0.259 OA
BRANCH  19  21
ATOM     21  O   UNL d   1      14.508  12.840  -2.608  0.00  0.00    -0.271 OA
BRANCH  21  22
ATOM     22  C   UNL d   1      14.149  12.233  -2.980  0.00  0.00     0.126 C 
ATOM     23  C   UNL d   1      13.594  12.380  -3.526  0.00  0.00     0.029 C 
ENDBRANCH  21  22
ENDBRANCH  19  21
ENDBRANCH  14  19
ENDBRANCH   1  13
TORSDOF 4
ENDMDL
MODEL 3
REMARK VINA RESULT:      46.8      1.241      3.478
REMARK  4 active torsions:
REMARK  status: ('A' for Active; 'I' for Inactive)
REMARK    1  A    between atoms: C_2  and  N_1 
REMARK    2  A    between atoms: C_12  and  C_5 
REMARK    3  A    between atoms: O_20  and  C_12 
REMARK    4  A    between atoms: C_22  and  O_20 
ROOT
ATOM      1  N   UNL d   1      13.937  13.228  -2.606  0.00  0.00    -0.237 N 
ATOM      2  C   UNL d   1      14.256  13.731  -2.027  0.00  0.00     0.263 A 
ATOM      3  C   UNL d   1      14.028  12.447  -2.356  0.00  0.00     0.263 A 
ATOM      4  C   UNL d   1      14.407  12.456  -1.616  0.00  0.00     0.039 A 
ATOM      5  C   UNL d   1      14.546  13.256  -1.416  0.00  0.00     0.039 A 
ATOM      6  C   UNL d   1      14.642  11.851  -1.100  0.00  0.00     0.049 A 
ATOM      7  C   UNL d   1      14.921  13.447  -0.699  0.00  0.00     0.049 A 
ATOM      8  C   UNL d   1      15.018  12.042  -0.382  0.00  0.00    -0.026 A 
ATOM      9  C   UNL d   1      15.158  12.838  -0.180  0.00  0.00    -0.026 A 
ATOM     10  C   UNL d   1      14.608  12.623  -1.237  0.00  0.00     0.018 A 
ATOM     11  O   UNL d   1      13.797  11.800  -2.750  0.00  0.00    -0.267 OA
ATOM     12  O   UNL d   1      14.281  14.518  -2.051  0.00  0.00    -0.267 OA
ENDROOT
BRANCH   1  13
ATOM     13  C   UNL d   1      13.597  13.467  -3.292  0.00  0.00     0.105 A 
ATOM     14  C   UNL d   1      13.232  12.991  -3.817  0.00  0.00     0.086 A 
ATOM     15  C   UNL d   1      12.976  13.445  -4.415  0.00  0.00     0.014 A 
ATOM     16  C   UNL d   1      13.186  14.197  -4.253  0.00  0.00     0.031 A 
ATOM     17  S   UNL d   1      13.568  14.210  -3.562  0.00  0.00    -0.069 SA
ATOM     18  C   UNL d   1      12.999  14.780  -4.763  0.00  0.00     0.007 C 
BRANCH  14  19
ATOM     19  C   UNL d   1      13.141  12.209  -3.753  0.00  0.00     0.302 C 
ATOM     20  O   UNL d   1      13.410  11.827  -3.112  0.00  0.00    -0.259 OA
BRANCH  19  21
ATOM     21  O   UNL d   1      12.778  11.799  -4.333  0.00  0.00    -0.271 OA
BRANCH  21  22
ATOM     22  C   UNL d   1      13.181  11.800  -5.020  0.00  0.00     0.126 C 
ATOM     23  C   UNL d   1      12.788  11.784  -5.707  0.00  0.00     0.029 C 
ENDBRANCH  21  22
ENDBRANCH  19  21
ENDBRANCH  14  19
ENDBRANCH   1  13
TORSDOF 4
ENDMDL
