MODEL 1
REMARK VINA RESULT:      -2.0      0.000      0.000
REMARK  2 active torsions:
REMARK  status: ('A' for Active; 'I' for Inactive)
REMARK    1  A    between atoms: C_8  and  N_2 
REMARK    2  A    between atoms: N_7  and  C_4 
ROOT
ATOM      1  C   UNL d   1      30.305  16.481 -23.782  0.00  0.00     0.358 A 
ATOM      2  N   UNL d   1      29.608  16.785 -24.109  0.00  0.00    -0.226 N 
ATOM      3  N   UNL d   1      31.027  16.815 -23.975  0.00  0.00    -0.174 NA
ATOM      4  C   UNL d   1      31.062  17.454 -24.493  0.00  0.00     0.158 A 
ATOM      5  C   UNL d   1      29.634  17.423 -24.627  0.00  0.00     0.271 A 
ATOM      6  C   UNL d   1      30.366  17.758 -24.820  0.00  0.00     0.099 A 
ATOM      7  O   UNL d   1      30.270  15.838 -23.260  0.00  0.00    -0.244 OA
ATOM      8  O   UNL d   1      28.938  17.727 -24.953  0.00  0.00    -0.266 OA
ENDROOT
BRANCH   2   9
ATOM      9  C   UNL d   1      28.880  16.449 -23.915  0.00  0.00     0.071 A 
ATOM     10  C   UNL d   1      28.433  16.763 -23.296  0.00  0.00     0.019 A 
ATOM     11  C   UNL d   1      27.709  16.434 -23.099  0.00  0.00     0.013 A 
ATOM     12  C   UNL d   1      27.427  15.782 -23.524  0.00  0.00     0.058 A 
ATOM     13  C   UNL d   1      27.875  15.474 -24.137  0.00  0.00     0.013 A 
ATOM     14 CL   UNL d   1      26.705  15.453 -23.328  0.00  0.00    -0.082 Cl
ATOM     15  C   UNL d   1      28.601  15.804 -24.336  0.00  0.00     0.019 A 
ENDBRANCH   2   9
BRANCH   4  16
ATOM     16  N   UNL d   1      31.787  17.791 -24.689  0.00  0.00    -0.285 N 
ATOM     17  C   UNL d   1      31.818  18.593 -24.890  0.00  0.00     0.108 A 
ATOM     18  C   UNL d   1      32.543  18.934 -25.086  0.00  0.00     0.142 A 
ATOM     19  O   UNL d   1      33.240  18.475 -25.082  0.00  0.00    -0.300 OA
ATOM     20  C   UNL d   1      33.189  17.679 -24.879  0.00  0.00     0.142 A 
ATOM     21  C   UNL d   1      32.465  17.337 -24.683  0.00  0.00     0.108 A 
ENDBRANCH   4  16
TORSDOF 2
ENDMDL
MODEL 2
REMARK VINA RESULT:      -1.7      4.502      6.012
REMARK  2 active torsions:
REMARK  status: ('A' for Active; 'I' for Inactive)
REMARK    1  A    between atoms: C_8  and  N_2 
REMARK    2  A    between atoms: N_7  and  C_4 
ROOT
ATOM      1  C   UNL d   1      32.764  20.279 -21.498  0.00  0.00     0.358 A 
ATOM      2  N   UNL d   1      32.867  21.052 -21.772  0.00  0.00    -0.226 N 
ATOM      3  N   UNL d   1      32.838  19.648 -22.015  0.00  0.00    -0.174 NA
ATOM      4  C   UNL d   1      33.015  19.781 -22.807  0.00  0.00     0.158 A 
ATOM      5  C   UNL d   1      33.044  21.194 -22.563  0.00  0.00     0.271 A 
ATOM      6  C   UNL d   1      33.118  20.554 -23.082  0.00  0.00     0.099 A 
ATOM      7  O   UNL d   1      32.586  20.144 -20.700  0.00  0.00    -0.244 OA
ATOM      8  O   UNL d   1      33.147  21.968 -22.837  0.00  0.00    -0.266 OA
ENDROOT
BRANCH   2   9
ATOM      9  C   UNL d   1      32.792  21.688 -21.252  0.00  0.00     0.071 A 
ATOM     10  C   UNL d   1      32.268  22.302 -21.425  0.00  0.00     0.019 A 
ATOM     11  C   UNL d   1      32.190  22.937 -20.912  0.00  0.00     0.013 A 
ATOM     12  C   UNL d   1      32.639  22.960 -20.218  0.00  0.00     0.058 A 
ATOM     13  C   UNL d   1      33.158  22.347 -20.052  0.00  0.00     0.013 A 
ATOM     14 CL   UNL d   1      32.562  23.592 -19.706  0.00  0.00    -0.082 Cl
ATOM     15  C   UNL d   1      33.237  21.710 -20.565  0.00  0.00     0.019 A 
ENDBRANCH   2   9
BRANCH   4  16
ATOM     16  N   UNL d   1      33.090  19.149 -23.329  0.00  0.00    -0.285 N 
ATOM     17  C   UNL d   1      33.091  18.377 -23.031  0.00  0.00     0.108 A 
ATOM     18  C   UNL d   1      33.166  17.741 -23.551  0.00  0.00     0.142 A 
ATOM     19  O   UNL d   1      33.241  17.875 -24.372  0.00  0.00    -0.300 OA
ATOM     20  C   UNL d   1      33.238  18.649 -24.650  0.00  0.00     0.142 A 
ATOM     21  C   UNL d   1      33.163  19.285 -24.130  0.00  0.00     0.108 A 
ENDBRANCH   4  16
TORSDOF 2
ENDMDL
MODEL 3
REMARK VINA RESULT:      -1.7      4.570      6.074
REMARK  2 active torsions:
REMARK  status: ('A' for Active; 'I' for Inactive)
REMARK    1  A    between atoms: C_8  and  N_2 
REMARK    2  A    between atoms: N_7  and  C_4 
ROOT
ATOM      1  C   UNL d   1      32.601  20.998 -22.442  0.00  0.00     0.358 A 
ATOM      2  N   UNL d   1      32.785  20.977 -21.636  0.00  0.00    -0.226 N 
ATOM      3  N   UNL d   1      32.678  20.321 -22.897  0.00  0.00    -0.174 NA
ATOM      4  C   UNL d   1      32.939  19.620 -22.555  0.00  0.00     0.158 A 
ATOM      5  C   UNL d   1      33.047  20.280 -21.286  0.00  0.00     0.271 A 
ATOM      6  C   UNL d   1      33.123  19.599 -21.749  0.00  0.00     0.099 A 
ATOM      7  O   UNL d   1      32.339  21.704 -22.788  0.00  0.00    -0.244 OA
ATOM      8  O   UNL d   1      33.231  20.259 -20.480  0.00  0.00    -0.266 OA
ENDROOT
BRANCH   2   9
ATOM      9  C   UNL d   1      32.708  21.658 -21.177  0.00  0.00     0.071 A 
ATOM     10  C   UNL d   1      33.240  22.282 -21.273  0.00  0.00     0.019 A 
ATOM     11  C   UNL d   1      33.168  22.962 -20.820  0.00  0.00     0.013 A 
ATOM     12  C   UNL d   1      32.558  23.019 -20.264  0.00  0.00     0.058 A 
ATOM     13  C   UNL d   1      32.033  22.396 -20.173  0.00  0.00     0.013 A 
ATOM     14 CL   UNL d   1      32.485  23.696 -19.812  0.00  0.00    -0.082 Cl
ATOM     15  C   UNL d   1      32.104  21.715 -20.627  0.00  0.00     0.019 A 
ENDBRANCH   2   9
BRANCH   4  16
ATOM     16  N   UNL d   1      33.017  18.939 -23.010  0.00  0.00    -0.285 N 
ATOM     17  C   UNL d   1      33.159  19.009 -23.822  0.00  0.00     0.108 A 
ATOM     18  C   UNL d   1      33.238  18.328 -24.281  0.00  0.00     0.142 A 
ATOM     19  O   UNL d   1      33.176  17.573 -23.929  0.00  0.00    -0.300 OA
ATOM     20  C   UNL d   1      33.034  17.523 -23.120  0.00  0.00     0.142 A 
ATOM     21  C   UNL d   1      32.955  18.204 -22.661  0.00  0.00     0.108 A 
ENDBRANCH   4  16
TORSDOF 2
ENDMDL
MODEL 4
REMARK VINA RESULT:      -0.2      5.973      7.205
REMARK  2 active torsions:
REMARK  status: ('A' for Active; 'I' for Inactive)
REMARK    1  A    between atoms: C_8  and  N_2 
REMARK    2  A    between atoms: N_7  and  C_4 
ROOT
ATOM      1  C   UNL d   1      33.027  22.609 -21.039  0.00  0.00     0.358 A 
ATOM      2  N   UNL d   1      32.706  22.194 -20.399  0.00  0.00    -0.226 N 
ATOM      3  N   UNL d   1      33.134  22.233 -21.758  0.00  0.00    -0.174 NA
ATOM      4  C   UNL d   1      32.922  21.443 -21.848  0.00  0.00     0.158 A 
ATOM      5  C   UNL d   1      32.492  21.404 -20.480  0.00  0.00     0.271 A 
ATOM      6  C   UNL d   1      32.601  21.028 -21.208  0.00  0.00     0.099 A 
ATOM      7  O   UNL d   1      33.241  23.405 -20.949  0.00  0.00    -0.244 OA
ATOM      8  O   UNL d   1      32.171  20.989 -19.840  0.00  0.00    -0.266 OA
ENDROOT
BRANCH   2   9
ATOM      9  C   UNL d   1      32.599  22.572 -19.674  0.00  0.00     0.071 A 
ATOM     10  C   UNL d   1      33.204  22.566 -19.112  0.00  0.00     0.019 A 
ATOM     11  C   UNL d   1      33.103  22.940 -18.390  0.00  0.00     0.013 A 
ATOM     12  C   UNL d   1      32.390  23.324 -18.225  0.00  0.00     0.058 A 
ATOM     13  C   UNL d   1      31.792  23.327 -18.786  0.00  0.00     0.013 A 
ATOM     14 CL   UNL d   1      32.288  23.697 -17.504  0.00  0.00    -0.082 Cl
ATOM     15  C   UNL d   1      31.892  22.953 -19.510  0.00  0.00     0.019 A 
ENDBRANCH   2   9
BRANCH   4  16
ATOM     16  N   UNL d   1      33.028  21.063 -22.570  0.00  0.00    -0.285 N 
ATOM     17  C   UNL d   1      33.043  21.512 -23.264  0.00  0.00     0.108 A 
ATOM     18  C   UNL d   1      33.149  21.135 -23.990  0.00  0.00     0.142 A 
ATOM     19  O   UNL d   1      33.241  20.305 -24.024  0.00  0.00    -0.300 OA
ATOM     20  C   UNL d   1      33.223  19.875 -23.322  0.00  0.00     0.142 A 
ATOM     21  C   UNL d   1      33.117  20.253 -22.597  0.00  0.00     0.108 A 
ENDBRANCH   4  16
TORSDOF 2
ENDMDL
MODEL 5
REMARK VINA RESULT:       0.1      5.290      6.587
REMARK  2 active torsions:
REMARK  status: ('A' for Active; 'I' for Inactive)
REMARK    1  A    between atoms: C_8  and  N_2 
REMARK    2  A    between atoms: N_7  and  C_4 
ROOT
ATOM      1  C   UNL d   1      32.655  21.487 -21.834  0.00  0.00     0.358 A 
ATOM      2  N   UNL d   1      32.866  20.711 -21.641  0.00  0.00    -0.226 N 
ATOM      3  N   UNL d   1      32.609  22.056 -21.247  0.00  0.00    -0.174 NA
ATOM      4  C   UNL d   1      32.771  21.859 -20.465  0.00  0.00     0.158 A 
ATOM      5  C   UNL d   1      33.030  20.505 -20.862  0.00  0.00     0.271 A 
ATOM      6  C   UNL d   1      32.982  21.082 -20.272  0.00  0.00     0.099 A 
ATOM      7  O   UNL d   1      32.491  21.687 -22.621  0.00  0.00    -0.244 OA
ATOM      8  O   UNL d   1      33.241  19.729 -20.669  0.00  0.00    -0.266 OA
ENDROOT
BRANCH   2   9
ATOM      9  C   UNL d   1      32.913  20.137 -22.232  0.00  0.00     0.071 A 
ATOM     10  C   UNL d   1      33.040  20.363 -23.016  0.00  0.00     0.019 A 
ATOM     11  C   UNL d   1      33.088  19.797 -23.607  0.00  0.00     0.013 A 
ATOM     12  C   UNL d   1      33.008  18.997 -23.415  0.00  0.00     0.058 A 
ATOM     13  C   UNL d   1      32.882  18.779 -22.634  0.00  0.00     0.013 A 
ATOM     14 CL   UNL d   1      33.055  18.431 -24.003  0.00  0.00    -0.082 Cl
ATOM     15  C   UNL d   1      32.834  19.345 -22.041  0.00  0.00     0.019 A 
ENDBRANCH   2   9
BRANCH   4  16
ATOM     16  N   UNL d   1      32.725  22.429 -19.873  0.00  0.00    -0.285 N 
ATOM     17  C   UNL d   1      33.141  22.313 -19.168  0.00  0.00     0.108 A 
ATOM     18  C   UNL d   1      33.097  22.883 -18.572  0.00  0.00     0.142 A 
ATOM     19  O   UNL d   1      32.636  23.571 -18.681  0.00  0.00    -0.300 OA
ATOM     20  C   UNL d   1      32.230  23.668 -19.390  0.00  0.00     0.142 A 
ATOM     21  C   UNL d   1      32.274  23.099 -19.985  0.00  0.00     0.108 A 
ENDBRANCH   4  16
TORSDOF 2
ENDMDL
