MODEL 1
REMARK VINA RESULT:      78.2      0.000      0.000
REMARK  5 active torsions:
REMARK  status: ('A' for Active; 'I' for Inactive)
REMARK    1  A    between atoms: C_13  and  N_2 
REMARK    2  A    between atoms: C_10  and  N_4 
REMARK    3  A    between atoms: C_11  and  C_10 
REMARK       I    between atoms: N_15  and  C_11 
REMARK    4  A    between atoms: C_16  and  N_15 
REMARK    5  A    between atoms: O_21  and  C_19 
ROOT
ATOM      1  C   UNL d   1      58.974  49.707  51.866  0.00  0.00     0.172 A 
ATOM      2  N   UNL d   1      58.315  49.707  50.587  0.00  0.00    -0.226 N 
ATOM      3  C   UNL d   1      59.074  49.706  50.215  0.00  0.00     0.342 A 
ATOM      4  N   UNL d   1      59.754  49.707  50.670  0.00  0.00    -0.252 N 
ATOM      5  C   UNL d   1      59.708  49.707  51.489  0.00  0.00     0.098 A 
ATOM      6  C   UNL d   1      58.277  49.707  51.410  0.00  0.00     0.292 A 
ATOM      7  O   UNL d   1      59.088  49.708  52.678  0.00  0.00    -0.301 OA
ATOM      8  C   UNL d   1      60.264  49.707  52.092  0.00  0.00     0.041 A 
ATOM      9  C   UNL d   1      59.872  49.708  52.810  0.00  0.00     0.102 A 
ATOM     10  O   UNL d   1      59.134  49.706  49.376  0.00  0.00    -0.245 OA
ATOM     11  O   UNL d   1      57.531  49.708  51.789  0.00  0.00    -0.264 OA
ATOM     12  C   UNL d   1      61.097  49.707  52.069  0.00  0.00     0.004 A 
ATOM     13  C   UNL d   1      60.304  49.708  53.519  0.00  0.00     0.025 A 
ATOM     14  C   UNL d   1      61.529  49.707  52.778  0.00  0.00     0.000 A 
ATOM     15  C   UNL d   1      61.123  49.708  53.487  0.00  0.00     0.002 A 
ENDROOT
BRANCH   4  16
ATOM     16  C   UNL d   1      60.512  49.706  50.299  0.00  0.00     0.147 C 
BRANCH  16  17
ATOM     17  C   UNL d   1      60.829  48.975  50.005  0.00  0.00     0.297 C 
ATOM     18  N   UNL d   1      60.981  48.367  50.520  0.00  0.00    -0.207 NA
ATOM     19  O   UNL d   1      60.976  48.898  49.197  0.00  0.00    -0.264 OA
BRANCH  18  20
ATOM     20  C   UNL d   1      61.284  47.668  50.237  0.00  0.00     0.087 A 
ATOM     21  C   UNL d   1      61.087  46.954  50.621  0.00  0.00     0.043 A 
ATOM     22  C   UNL d   1      61.392  46.239  50.338  0.00  0.00     0.096 A 
ATOM     23  C   UNL d   1      61.894  46.238  49.672  0.00  0.00     0.024 A 
ATOM     24  C   UNL d   1      62.086  46.950  49.295  0.00  0.00     0.004 A 
ATOM     25  C   UNL d   1      61.782  47.657  49.578  0.00  0.00     0.019 A 
BRANCH  22  26
ATOM     26  O   UNL d   1      61.201  45.517  50.716  0.00  0.00    -0.328 OA
ATOM     27  C   UNL d   1      61.169  44.821  50.276  0.00  0.00     0.181 C 
ENDBRANCH  22  26
ENDBRANCH  18  20
ENDBRANCH  16  17
ENDBRANCH   4  16
BRANCH   2  28
ATOM     28  C   UNL d   1      57.614  49.707  50.136  0.00  0.00     0.071 A 
ATOM     29  C   UNL d   1      57.653  49.706  49.313  0.00  0.00     0.018 A 
ATOM     30  C   UNL d   1      56.947  49.706  48.870  0.00  0.00     0.002 A 
ATOM     31  C   UNL d   1      56.232  49.707  49.250  0.00  0.00     0.000 A 
ATOM     32  C   UNL d   1      56.192  49.707  50.073  0.00  0.00     0.002 A 
ATOM     33  C   UNL d   1      56.884  49.708  50.507  0.00  0.00     0.018 A 
ENDBRANCH   2  28
TORSDOF 5
ENDMDL
