MODEL 1
REMARK VINA RESULT:      43.9      0.000      0.000
REMARK  7 active torsions:
REMARK  status: ('A' for Active; 'I' for Inactive)
REMARK    1  A    between atoms: C_2  and  S_1 
REMARK    2  A    between atoms: N_3  and  S_1 
REMARK    3  A    between atoms: C_15  and  N_3 
REMARK    4  A    between atoms: C_6  and  C_16 
REMARK       I    between atoms: N_7  and  C_6 
REMARK    5  A    between atoms: C_8  and  N_7 
REMARK    6  A    between atoms: C_17  and  C_15 
REMARK    7  A    between atoms: C_16  and  C_17 
ROOT
ATOM      1  N   UNL d   1     -50.182  25.988  33.613  0.00  0.00    -0.228 N 
ATOM      2  C   UNL d   1     -50.878  26.399  33.802  0.00  0.00     0.111 C 
ENDROOT
BRANCH   1   3
ATOM      3  S   UNL d   1     -50.216  25.180  33.443  0.00  0.00     0.271 S 
ATOM      4  O   UNL d   1     -49.519  24.764  33.307  0.00  0.00    -0.200 OA
ATOM      5  O   UNL d   1     -50.921  25.593  33.579  0.00  0.00    -0.200 OA
BRANCH   3   6
ATOM      6  C   UNL d   1     -50.953  24.794  33.411  0.00  0.00     0.104 A 
ATOM      7  C   UNL d   1     -51.641  25.249  33.445  0.00  0.00     0.013 A 
ATOM      8  C   UNL d   1     -52.373  24.866  33.414  0.00  0.00     0.001 A 
ATOM      9  C   UNL d   1     -52.412  24.043  33.349  0.00  0.00     0.000 A 
ATOM     10  C   UNL d   1     -51.716  23.601  33.316  0.00  0.00     0.001 A 
ATOM     11  C   UNL d   1     -53.146  23.668  33.318  0.00  0.00     0.000 C 
ATOM     12  C   UNL d   1     -50.984  23.980  33.347  0.00  0.00     0.013 A 
ENDBRANCH   3   6
ENDBRANCH   1   3
BRANCH   1  13
ATOM     13  C   UNL d   1     -49.461  26.388  33.595  0.00  0.00     0.092 C 
BRANCH  13  14
ATOM     14  C   UNL d   1     -49.192  26.782  34.265  0.00  0.00     0.025 C 
BRANCH  14  15
ATOM     15  C   UNL d   1     -48.908  27.554  34.205  0.00  0.00     0.064 C 
BRANCH  15  16
ATOM     16  C   UNL d   1     -48.653  27.954  34.878  0.00  0.00     0.275 C 
ATOM     17  N   UNL d   1     -48.344  28.716  34.814  0.00  0.00    -0.238 NA
ATOM     18  O   UNL d   1     -48.705  27.600  35.614  0.00  0.00    -0.266 OA
BRANCH  17  19
ATOM     19  C   UNL d   1     -48.086  29.123  35.486  0.00  0.00     0.088 C 
ATOM     20  C   UNL d   1     -47.409  29.595  35.453  0.00  0.00     0.025 C 
ATOM     21  C   UNL d   1     -48.510  29.053  36.189  0.00  0.00     0.025 C 
ATOM     22  C   UNL d   1     -47.821  29.054  34.707  0.00  0.00     0.025 C 
ENDBRANCH  17  19
ENDBRANCH  15  16
ENDBRANCH  14  15
ENDBRANCH  13  14
ENDBRANCH   1  13
TORSDOF 7
ENDMDL
