MODEL 1
REMARK VINA RESULT:      39.5      0.000      0.000
REMARK  3 active torsions:
REMARK  status: ('A' for Active; 'I' for Inactive)
REMARK    1  A    between atoms: C_11  and  C_6 
REMARK    2  A    between atoms: O_20  and  C_11 
REMARK    3  A    between atoms: C_22  and  O_20 
ROOT
ATOM      1  C   UNL d   1     -51.907  25.875  33.307  0.00  0.00     0.155 A 
ATOM      2  C   UNL d   1     -51.285  25.332  33.306  0.00  0.00     0.091 A 
ATOM      3  N   UNL d   1     -52.685  25.610  33.307  0.00  0.00    -0.210 NA
ATOM      4  N   UNL d   1     -52.223  24.259  33.306  0.00  0.00    -0.258 N 
ATOM      5  N   UNL d   1     -51.748  26.683  33.307  0.00  0.00    -0.272 N 
ATOM      6  C   UNL d   1     -50.342  26.412  33.307  0.00  0.00     0.100 A 
ATOM      7  C   UNL d   1     -52.839  24.808  33.306  0.00  0.00     0.152 A 
ATOM      8  C   UNL d   1     -51.443  24.524  33.306  0.00  0.00     0.269 A 
ATOM      9  C   UNL d   1     -50.963  26.955  33.307  0.00  0.00     0.176 A 
ATOM     10  C   UNL d   1     -50.502  25.595  33.306  0.00  0.00     0.016 A 
ATOM     11  C   UNL d   1     -53.623  24.537  33.306  0.00  0.00     0.035 A 
ATOM     12  C   UNL d   1     -52.380  23.451  33.306  0.00  0.00     0.084 A 
ATOM     13  N   UNL d   1     -50.802  27.765  33.307  0.00  0.00    -0.128 N 
ATOM     14  O   UNL d   1     -50.821  23.981  33.306  0.00  0.00    -0.266 OA
ATOM     15  C   UNL d   1     -53.155  23.193  33.306  0.00  0.00     0.019 A 
ATOM     16  C   UNL d   1     -53.776  23.735  33.306  0.00  0.00     0.005 A 
ATOM     17  C   UNL d   1     -52.369  27.226  33.307  0.00  0.00     0.102 C 
ATOM     18  C   UNL d   1     -54.244  25.079  33.306  0.00  0.00     0.003 C 
ENDROOT
BRANCH   6  19
ATOM     19  C   UNL d   1     -49.560  26.680  33.307  0.00  0.00     0.303 C 
ATOM     20  O   UNL d   1     -49.401  27.489  33.306  0.00  0.00    -0.259 OA
BRANCH  19  21
ATOM     21  O   UNL d   1     -48.940  26.137  33.307  0.00  0.00    -0.271 OA
BRANCH  21  22
ATOM     22  C   UNL d   1     -48.273  26.278  33.768  0.00  0.00     0.126 C 
ATOM     23  C   UNL d   1     -47.820  25.645  34.038  0.00  0.00     0.029 C 
ENDBRANCH  21  22
ENDBRANCH  19  21
ENDBRANCH   6  19
TORSDOF 3
ENDMDL
