MODEL 1
REMARK VINA RESULT:      62.8      0.000      0.000
REMARK  5 active torsions:
REMARK  status: ('A' for Active; 'I' for Inactive)
REMARK    1  A    between atoms: C_6  and  C_1 
REMARK    2  A    between atoms: C_11  and  N_3 
REMARK    3  A    between atoms: C_20  and  C_11 
REMARK    4  A    between atoms: C_13  and  O_19 
REMARK    5  A    between atoms: O_19  and  C_20 
ROOT
ATOM      1  C   UNL d   1     -51.490  24.945  33.727  0.00  0.00     0.171 A 
ATOM      2  N   UNL d   1     -50.780  24.904  33.306  0.00  0.00    -0.225 NA
ATOM      3  N   UNL d   1     -51.460  25.613  34.221  0.00  0.00    -0.286 N 
ATOM      4  C   UNL d   1     -50.729  25.984  34.105  0.00  0.00     0.083 A 
ATOM      5  C   UNL d   1     -50.308  25.546  33.540  0.00  0.00     0.099 A 
ATOM      6  C   UNL d   1     -50.380  26.667  34.437  0.00  0.00     0.019 A 
ATOM      7  C   UNL d   1     -49.547  25.788  33.308  0.00  0.00     0.021 A 
ATOM      8  C   UNL d   1     -49.626  26.903  34.205  0.00  0.00     0.002 A 
ATOM      9  C   UNL d   1     -49.208  26.463  33.639  0.00  0.00     0.002 A 
ENDROOT
BRANCH   3  10
ATOM     10  C   UNL d   1     -52.136  25.728  34.680  0.00  0.00     0.108 C 
BRANCH  10  11
ATOM     11  C   UNL d   1     -52.067  26.022  35.446  0.00  0.00     0.142 C 
BRANCH  11  12
ATOM     12  O   UNL d   1     -52.546  25.721  36.046  0.00  0.00    -0.304 OA
BRANCH  12  13
ATOM     13  C   UNL d   1     -52.335  25.833  36.835  0.00  0.00     0.100 A 
ATOM     14  C   UNL d   1     -51.861  26.477  37.038  0.00  0.00     0.026 A 
ATOM     15  C   UNL d   1     -51.646  26.593  37.827  0.00  0.00     0.013 A 
ATOM     16  C   UNL d   1     -51.910  26.061  38.407  0.00  0.00     0.058 A 
ATOM     17  C   UNL d   1     -52.382  25.420  38.196  0.00  0.00     0.013 A 
ATOM     18 CL   UNL d   1     -51.697  26.175  39.194  0.00  0.00    -0.082 Cl
ATOM     19  C   UNL d   1     -52.594  25.308  37.407  0.00  0.00     0.026 A 
ENDBRANCH  12  13
ENDBRANCH  11  12
ENDBRANCH  10  11
ENDBRANCH   3  10
BRANCH   1  20
ATOM     20  C   UNL d   1     -52.121  24.416  33.667  0.00  0.00     0.134 A 
ATOM     21  O   UNL d   1     -52.818  24.470  33.495  0.00  0.00    -0.302 OA
ATOM     22  C   UNL d   1     -53.237  23.886  33.494  0.00  0.00     0.123 A 
ATOM     23  C   UNL d   1     -52.960  23.239  33.666  0.00  0.00     0.029 A 
ATOM     24  C   UNL d   1     -52.265  23.189  33.837  0.00  0.00     0.030 A 
ENDBRANCH   1  20
TORSDOF 5
ENDMDL
