MODEL 1
REMARK VINA RESULT:      47.5      0.000      0.000
REMARK  3 active torsions:
REMARK  status: ('A' for Active; 'I' for Inactive)
REMARK    1  A    between atoms: C_4  and  C_1 
REMARK    2  A    between atoms: N_2  and  C_3 
REMARK    3  A    between atoms: C_5  and  N_2 
ROOT
ATOM      1  C   UNL d   1     -55.400-101.098 -44.492  0.00  0.00     0.082 A 
ATOM      2  C   UNL d   1     -55.039-100.895 -43.767  0.00  0.00     0.087 A 
ATOM      3  C   UNL d   1     -55.728-100.514 -44.967  0.00  0.00     0.008 A 
ATOM      4  C   UNL d   1     -55.015-100.103 -43.535  0.00  0.00     0.019 A 
ATOM      5  C   UNL d   1     -55.701 -99.716 -44.727  0.00  0.00     0.000 A 
ATOM      6  C   UNL d   1     -55.343 -99.519 -44.011  0.00  0.00     0.002 A 
ENDROOT
BRANCH   2   7
ATOM      7  N   UNL d   1     -54.712-101.478 -43.292  0.00  0.00    -0.245 NA
BRANCH   7   8
ATOM      8  C   UNL d   1     -54.715-101.410 -42.464  0.00  0.00     0.081 A 
ATOM      9  C   UNL d   1     -54.719-102.072 -41.986  0.00  0.00     0.018 A 
ATOM     10  C   UNL d   1     -54.722-101.999 -41.162  0.00  0.00     0.002 A 
ATOM     11  C   UNL d   1     -54.719-102.809 -42.330  0.00  0.00     0.002 C 
ATOM     12  C   UNL d   1     -54.726-102.656 -40.687  0.00  0.00     0.000 C 
ATOM     13  C   UNL d   1     -54.721-101.236 -40.829  0.00  0.00     0.000 A 
ATOM     14  C   UNL d   1     -54.717-100.575 -41.307  0.00  0.00     0.002 A 
ATOM     15  C   UNL d   1     -54.714-100.646 -42.140  0.00  0.00     0.019 A 
ENDBRANCH   7   8
ENDBRANCH   2   7
BRANCH   1  16
ATOM     16  C   UNL d   1     -55.424-101.890 -44.724  0.00  0.00     0.212 C 
ATOM     17  O   UNL d   1     -56.105-102.336 -44.615  0.00  0.00    -0.644 OA
ATOM     18  O   UNL d   1     -54.770-102.243 -45.066  0.00  0.00    -0.644 OA
ENDBRANCH   1  16
TORSDOF 3
ENDMDL
MODEL 2
REMARK VINA RESULT:      49.9      1.525      2.433
REMARK  3 active torsions:
REMARK  status: ('A' for Active; 'I' for Inactive)
REMARK    1  A    between atoms: C_4  and  C_1 
REMARK    2  A    between atoms: N_2  and  C_3 
REMARK    3  A    between atoms: C_5  and  N_2 
ROOT
ATOM      1  C   UNL d   1     -55.801 -99.233 -44.606  0.00  0.00     0.082 A 
ATOM      2  C   UNL d   1     -55.089 -99.658 -44.701  0.00  0.00     0.087 A 
ATOM      3  C   UNL d   1     -56.130 -98.832 -45.242  0.00  0.00     0.008 A 
ATOM      4  C   UNL d   1     -54.721 -99.672 -45.439  0.00  0.00     0.019 A 
ATOM      5  C   UNL d   1     -55.753 -98.849 -45.986  0.00  0.00     0.000 A 
ATOM      6  C   UNL d   1     -55.050 -99.271 -46.076  0.00  0.00     0.002 A 
ENDROOT
BRANCH   2   7
ATOM      7  N   UNL d   1     -54.760-100.059 -44.064  0.00  0.00    -0.245 NA
BRANCH   7   8
ATOM      8  C   UNL d   1     -54.748-100.890 -44.039  0.00  0.00     0.081 A 
ATOM      9  C   UNL d   1     -54.756-101.291 -43.329  0.00  0.00     0.018 A 
ATOM     10  C   UNL d   1     -54.743-102.118 -43.309  0.00  0.00     0.002 A 
ATOM     11  C   UNL d   1     -54.777-100.867 -42.635  0.00  0.00     0.002 C 
ATOM     12  C   UNL d   1     -54.751-102.516 -42.603  0.00  0.00     0.000 C 
ATOM     13  C   UNL d   1     -54.722-102.533 -44.030  0.00  0.00     0.000 A 
ATOM     14  C   UNL d   1     -54.714-102.132 -44.741  0.00  0.00     0.002 A 
ATOM     15  C   UNL d   1     -54.727-101.297 -44.763  0.00  0.00     0.019 A 
ENDBRANCH   7   8
ENDBRANCH   2   7
BRANCH   1  16
ATOM     16  C   UNL d   1     -56.169 -99.219 -43.867  0.00  0.00     0.212 C 
ATOM     17  O   UNL d   1     -56.901 -99.575 -43.759  0.00  0.00    -0.644 OA
ATOM     18  O   UNL d   1     -55.810 -98.852 -43.230  0.00  0.00    -0.644 OA
ENDBRANCH   1  16
TORSDOF 3
ENDMDL
