MODEL 1
REMARK VINA RESULT:      35.7      0.000      0.000
REMARK  4 active torsions:
REMARK  status: ('A' for Active; 'I' for Inactive)
REMARK    1  A    between atoms: C_6  and  C_1 
REMARK    2  A    between atoms: C_7  and  C_2 
REMARK    3  A    between atoms: O_10  and  C_6 
REMARK    4  A    between atoms: C_13  and  O_10 
ROOT
ATOM      1  C   UNL d   1      59.991  49.444  50.506  0.00  0.00     0.113 A 
ATOM      2  C   UNL d   1      59.738  49.590  51.300  0.00  0.00     0.095 A 
ATOM      3  N   UNL d   1      58.902  49.702  51.286  0.00  0.00    -0.219 NA
ATOM      4  S   UNL d   1      59.330  49.465  50.013  0.00  0.00    -0.040 SA
ATOM      5  C   UNL d   1      58.679  49.623  50.506  0.00  0.00     0.215 A 
ATOM      6  N   UNL d   1      57.908  49.686  50.210  0.00  0.00    -0.120 N 
ENDROOT
BRANCH   2   7
ATOM      7  C   UNL d   1      60.290  49.600  51.907  0.00  0.00     0.018 A 
ATOM      8  C   UNL d   1      60.029  49.553  52.694  0.00  0.00     0.002 A 
ATOM      9  C   UNL d   1      60.596  49.564  53.307  0.00  0.00     0.000 A 
ATOM     10  C   UNL d   1      61.387  49.619  53.143  0.00  0.00     0.000 A 
ATOM     11  C   UNL d   1      61.648  49.666  52.340  0.00  0.00     0.000 A 
ATOM     12  C   UNL d   1      61.085  49.655  51.736  0.00  0.00     0.002 A 
ENDBRANCH   2   7
BRANCH   1  13
ATOM     13  C   UNL d   1      60.736  49.306  50.251  0.00  0.00     0.308 C 
ATOM     14  O   UNL d   1      60.998  49.634  49.551  0.00  0.00    -0.258 OA
BRANCH  13  15
ATOM     15  O   UNL d   1      61.225  48.851  50.677  0.00  0.00    -0.271 OA
BRANCH  15  16
ATOM     16  C   UNL d   1      61.595  48.185  50.358  0.00  0.00     0.126 C 
ATOM     17  C   UNL d   1      61.671  47.482  50.759  0.00  0.00     0.029 C 
ENDBRANCH  15  16
ENDBRANCH  13  15
ENDBRANCH   1  13
TORSDOF 4
ENDMDL
