MODEL 1
REMARK VINA RESULT:      77.5      0.000      0.000
REMARK  3 active torsions:
REMARK  status: ('A' for Active; 'I' for Inactive)
REMARK       I    between atoms: N_2  and  C_1 
REMARK       I    between atoms: N_5  and  C_1 
REMARK       I    between atoms: C_4  and  N_3 
REMARK    1  A    between atoms: O_14  and  C_4 
REMARK    2  A    between atoms: C_12  and  N_5 
REMARK    3  A    between atoms: C_20  and  O_14 
ROOT
ATOM      1  C   UNL d   1      59.726  49.062  50.344  0.00  0.00     0.354 C 
ATOM      2  N   UNL d   1      60.255  48.420  50.345  0.00  0.00    -0.253 N 
ATOM      3  N   UNL d   1      61.273  47.151  50.324  0.00  0.00    -0.249 N 
ATOM      4  C   UNL d   1      61.800  46.487  50.308  0.00  0.00     0.378 C 
ATOM      5  N   UNL d   1      59.856  49.707  50.874  0.00  0.00    -0.192 NA
ATOM      6  O   UNL d   1      59.067  49.095  49.838  0.00  0.00    -0.244 OA
ATOM      7  C   UNL d   1      60.911  48.396  50.855  0.00  0.00     0.104 A 
ATOM      8  C   UNL d   1      60.119  47.805  49.830  0.00  0.00     0.104 A 
ATOM      9  C   UNL d   1      60.642  47.158  49.822  0.00  0.00     0.104 A 
ATOM     10  C   UNL d   1      61.413  47.751  50.831  0.00  0.00     0.104 A 
ATOM     11  O   UNL d   1      62.448  46.441  50.797  0.00  0.00    -0.237 OA
ENDROOT
BRANCH   5  12
ATOM     12  C   UNL d   1      60.483  49.694  51.367  0.00  0.00     0.087 A 
ATOM     13  C   UNL d   1      60.396  49.672  52.184  0.00  0.00     0.031 A 
ATOM     14  C   UNL d   1      61.037  49.659  52.665  0.00  0.00     0.059 A 
ATOM     15 CL   UNL d   1      60.911  49.636  53.495  0.00  0.00    -0.082 Cl
ATOM     16  C   UNL d   1      61.800  49.667  52.353  0.00  0.00     0.011 A 
ATOM     17  C   UNL d   1      61.894  49.689  51.530  0.00  0.00     0.002 A 
ATOM     18  C   UNL d   1      61.254  49.702  51.048  0.00  0.00     0.019 A 
ENDBRANCH   5  12
BRANCH   4  19
ATOM     19  O   UNL d   1      61.650  45.868  49.780  0.00  0.00    -0.257 OA
BRANCH  19  20
ATOM     20  C   UNL d   1      62.133  45.209  49.778  0.00  0.00     0.128 C 
ATOM     21  C   UNL d   1      62.436  44.913  49.071  0.00  0.00     0.029 C 
ENDBRANCH  19  20
ENDBRANCH   4  19
TORSDOF 3
ENDMDL
