MODEL 1
REMARK VINA RESULT:      -8.6      0.000      0.000
REMARK  5 active torsions:
REMARK  status: ('A' for Active; 'I' for Inactive)
REMARK    1  A    between atoms: C_11  and  C_1 
REMARK    2  A    between atoms: C_12  and  N_3 
REMARK    3  A    between atoms: C_7  and  S_13 
REMARK    4  A    between atoms: C_14  and  C_11 
REMARK    5  A    between atoms: S_13  and  C_14 
ROOT
ATOM      1  C   UNL d   1      51.561  34.015  53.092  0.00  0.00     0.057 A 
ATOM      2  C   UNL d   1      52.274  34.210  53.456  0.00  0.00     0.067 A 
ATOM      3  N   UNL d   1      52.675  33.517  53.612  0.00  0.00    -0.306 N 
ATOM      4  C   UNL d   1      52.221  32.893  53.349  0.00  0.00     0.064 A 
ATOM      5  C   UNL d   1      51.528  33.190  53.025  0.00  0.00     0.022 A 
ATOM      6  C   UNL d   1      52.541  34.968  53.635  0.00  0.00     0.019 C 
ATOM      7  C   UNL d   1      52.039  32.100  53.211  0.00  0.00     0.019 C 
ENDROOT
BRANCH   1   8
ATOM      8  C   UNL d   1      50.821  34.161  52.736  0.00  0.00     0.204 C 
ATOM      9  O   UNL d   1      50.742  34.138  51.907  0.00  0.00    -0.286 OA
BRANCH   8  10
ATOM     10  C   UNL d   1      50.018  34.342  52.809  0.00  0.00     0.080 C 
BRANCH  10  11
ATOM     11  S   UNL d   1      49.675  34.895  52.301  0.00  0.00    -0.043 SA
BRANCH  11  12
ATOM     12  C   UNL d   1      48.965  35.266  52.509  0.00  0.00     0.233 A 
ATOM     13  N   UNL d   1      48.298  35.314  52.034  0.00  0.00    -0.029 NA
ATOM     14  C   UNL d   1      47.727  35.727  52.455  0.00  0.00     0.788 A 
ATOM     15  N   UNL d   1      46.967  35.907  52.193  0.00  0.00     0.064 N 
ATOM     16  N   UNL d   1      48.048  35.928  53.183  0.00  0.00     0.050 NA
ATOM     17  N   UNL d   1      48.823  35.642  53.223  0.00  0.00    -0.105 NA
ENDBRANCH  11  12
ENDBRANCH  10  11
ENDBRANCH   8  10
ENDBRANCH   1   8
BRANCH   3  18
ATOM     18  C   UNL d   1      53.423  33.457  53.978  0.00  0.00     0.064 A 
ATOM     19  C   UNL d   1      54.057  33.305  53.529  0.00  0.00     0.020 A 
ATOM     20  C   UNL d   1      54.802  33.246  53.897  0.00  0.00     0.031 A 
ATOM     21  C   UNL d   1      54.876  33.344  54.714  0.00  0.00     0.140 A 
ATOM     22  C   UNL d   1      54.209  33.499  55.159  0.00  0.00     0.031 A 
ATOM     23  F   UNL d   1      55.614  33.285  55.078  0.00  0.00    -0.204 F 
ATOM     24  C   UNL d   1      53.477  33.558  54.797  0.00  0.00     0.020 A 
ENDBRANCH   3  18
TORSDOF 5
ENDMDL
MODEL 2
REMARK VINA RESULT:      -8.1      2.989      4.974
REMARK  5 active torsions:
REMARK  status: ('A' for Active; 'I' for Inactive)
REMARK    1  A    between atoms: C_11  and  C_1 
REMARK    2  A    between atoms: C_12  and  N_3 
REMARK    3  A    between atoms: C_7  and  S_13 
REMARK    4  A    between atoms: C_14  and  C_11 
REMARK    5  A    between atoms: S_13  and  C_14 
ROOT
ATOM      1  C   UNL d   1      52.858  32.360  53.247  0.00  0.00     0.057 A 
ATOM      2  C   UNL d   1      53.242  33.025  53.545  0.00  0.00     0.067 A 
ATOM      3  N   UNL d   1      52.686  33.615  53.638  0.00  0.00    -0.306 N 
ATOM      4  C   UNL d   1      51.961  33.326  53.402  0.00  0.00     0.064 A 
ATOM      5  C   UNL d   1      52.056  32.547  53.157  0.00  0.00     0.022 A 
ATOM      6  C   UNL d   1      54.043  33.090  53.721  0.00  0.00     0.019 C 
ATOM      7  C   UNL d   1      51.150  33.355  53.256  0.00  0.00     0.019 C 
ENDROOT
BRANCH   1   8
ATOM      8  C   UNL d   1      52.795  31.575  52.970  0.00  0.00     0.204 C 
ATOM      9  O   UNL d   1      52.935  31.401  52.168  0.00  0.00    -0.286 OA
BRANCH   8  10
ATOM     10  C   UNL d   1      52.641  30.777  53.119  0.00  0.00     0.080 C 
BRANCH  10  11
ATOM     11  S   UNL d   1      53.268  30.252  53.228  0.00  0.00    -0.043 SA
BRANCH  11  12
ATOM     12  C   UNL d   1      53.185  29.603  53.736  0.00  0.00     0.233 A 
ATOM     13  N   UNL d   1      53.589  29.498  54.441  0.00  0.00    -0.029 NA
ATOM     14  C   UNL d   1      53.339  28.786  54.762  0.00  0.00     0.788 A 
ATOM     15  N   UNL d   1      53.598  28.455  55.471  0.00  0.00     0.064 N 
ATOM     16  N   UNL d   1      52.784  28.460  54.251  0.00  0.00     0.050 NA
ATOM     17  N   UNL d   1      52.683  28.968  53.607  0.00  0.00    -0.105 NA
ENDBRANCH  11  12
ENDBRANCH  10  11
ENDBRANCH   8  10
ENDBRANCH   1   8
BRANCH   3  18
ATOM     18  C   UNL d   1      52.834  34.384  53.926  0.00  0.00     0.064 A 
ATOM     19  C   UNL d   1      52.916  34.977  53.409  0.00  0.00     0.020 A 
ATOM     20  C   UNL d   1      53.064  35.744  53.700  0.00  0.00     0.031 A 
ATOM     21  C   UNL d   1      53.123  35.881  54.512  0.00  0.00     0.140 A 
ATOM     22  C   UNL d   1      53.034  35.255  55.030  0.00  0.00     0.031 A 
ATOM     23  F   UNL d   1      53.269  36.640  54.801  0.00  0.00    -0.204 F 
ATOM     24  C   UNL d   1      52.889  34.501  54.743  0.00  0.00     0.020 A 
ENDBRANCH   3  18
TORSDOF 5
ENDMDL
MODEL 3
REMARK VINA RESULT:      -7.9      1.012      1.502
REMARK  5 active torsions:
REMARK  status: ('A' for Active; 'I' for Inactive)
REMARK    1  A    between atoms: C_11  and  C_1 
REMARK    2  A    between atoms: C_12  and  N_3 
REMARK    3  A    between atoms: C_7  and  S_13 
REMARK    4  A    between atoms: C_14  and  C_11 
REMARK    5  A    between atoms: S_13  and  C_14 
ROOT
ATOM      1  C   UNL d   1      50.914  33.971  52.945  0.00  0.00     0.057 A 
ATOM      2  C   UNL d   1      51.281  33.267  53.166  0.00  0.00     0.067 A 
ATOM      3  N   UNL d   1      52.084  33.403  53.199  0.00  0.00    -0.306 N 
ATOM      4  C   UNL d   1      52.222  34.182  53.003  0.00  0.00     0.064 A 
ATOM      5  C   UNL d   1      51.503  34.544  52.843  0.00  0.00     0.022 A 
ATOM      6  C   UNL d   1      50.909  32.551  53.325  0.00  0.00     0.019 C 
ATOM      7  C   UNL d   1      52.681  34.854  52.863  0.00  0.00     0.019 C 
ENDROOT
BRANCH   1   8
ATOM      8  C   UNL d   1      50.273  34.471  52.756  0.00  0.00     0.204 C 
ATOM      9  O   UNL d   1      49.953  34.471  51.987  0.00  0.00    -0.286 OA
BRANCH   8  10
ATOM     10  C   UNL d   1      49.724  35.045  52.986  0.00  0.00     0.080 C 
BRANCH  10  11
ATOM     11  S   UNL d   1      48.975  35.058  52.638  0.00  0.00    -0.043 SA
BRANCH  11  12
ATOM     12  C   UNL d   1      48.412  35.613  52.883  0.00  0.00     0.233 A 
ATOM     13  N   UNL d   1      47.715  35.788  52.489  0.00  0.00    -0.029 NA
ATOM     14  C   UNL d   1      47.326  36.365  52.922  0.00  0.00     0.788 A 
ATOM     15  N   UNL d   1      46.601  36.709  52.733  0.00  0.00     0.064 N 
ATOM     16  N   UNL d   1      47.788  36.540  53.579  0.00  0.00     0.050 NA
ATOM     17  N   UNL d   1      48.469  36.072  53.560  0.00  0.00    -0.105 NA
ENDBRANCH  11  12
ENDBRANCH  10  11
ENDBRANCH   8  10
ENDBRANCH   1   8
BRANCH   3  18
ATOM     18  C   UNL d   1      52.667  32.840  53.401  0.00  0.00     0.064 A 
ATOM     19  C   UNL d   1      52.799  32.235  52.909  0.00  0.00     0.020 A 
ATOM     20  C   UNL d   1      53.381  31.674  53.112  0.00  0.00     0.031 A 
ATOM     21  C   UNL d   1      53.810  31.751  53.814  0.00  0.00     0.140 A 
ATOM     22  C   UNL d   1      53.658  32.383  54.308  0.00  0.00     0.031 A 
ATOM     23  F   UNL d   1      54.387  31.195  54.016  0.00  0.00    -0.204 F 
ATOM     24  C   UNL d   1      53.086  32.933  54.108  0.00  0.00     0.020 A 
ENDBRANCH   3  18
TORSDOF 5
ENDMDL
MODEL 4
REMARK VINA RESULT:      -7.8      1.139      1.691
REMARK  5 active torsions:
REMARK  status: ('A' for Active; 'I' for Inactive)
REMARK    1  A    between atoms: C_11  and  C_1 
REMARK    2  A    between atoms: C_12  and  N_3 
REMARK    3  A    between atoms: C_7  and  S_13 
REMARK    4  A    between atoms: C_14  and  C_11 
REMARK    5  A    between atoms: S_13  and  C_14 
ROOT
ATOM      1  C   UNL d   1      50.923  33.987  52.910  0.00  0.00     0.057 A 
ATOM      2  C   UNL d   1      51.286  33.283  53.137  0.00  0.00     0.067 A 
ATOM      3  N   UNL d   1      52.091  33.414  53.170  0.00  0.00    -0.306 N 
ATOM      4  C   UNL d   1      52.233  34.191  52.967  0.00  0.00     0.064 A 
ATOM      5  C   UNL d   1      51.516  34.556  52.804  0.00  0.00     0.022 A 
ATOM      6  C   UNL d   1      50.911  32.569  53.302  0.00  0.00     0.019 C 
ATOM      7  C   UNL d   1      52.695  34.859  52.822  0.00  0.00     0.019 C 
ENDROOT
BRANCH   1   8
ATOM      8  C   UNL d   1      50.286  34.489  52.716  0.00  0.00     0.204 C 
ATOM      9  O   UNL d   1      50.037  35.078  53.249  0.00  0.00    -0.286 OA
BRANCH   8  10
ATOM     10  C   UNL d   1      49.699  34.721  52.182  0.00  0.00     0.080 C 
BRANCH  10  11
ATOM     11  S   UNL d   1      48.933  34.868  52.454  0.00  0.00    -0.043 SA
BRANCH  11  12
ATOM     12  C   UNL d   1      48.318  34.999  51.916  0.00  0.00     0.233 A 
ATOM     13  N   UNL d   1      47.684  35.504  52.033  0.00  0.00    -0.029 NA
ATOM     14  C   UNL d   1      47.211  35.463  51.364  0.00  0.00     0.788 A 
ATOM     15  N   UNL d   1      46.511  35.880  51.238  0.00  0.00     0.064 N 
ATOM     16  N   UNL d   1      47.559  34.933  50.843  0.00  0.00     0.050 NA
ATOM     17  N   UNL d   1      48.252  34.638  51.182  0.00  0.00    -0.105 NA
ENDBRANCH  11  12
ENDBRANCH  10  11
ENDBRANCH   8  10
ENDBRANCH   1   8
BRANCH   3  18
ATOM     18  C   UNL d   1      52.670  32.850  53.377  0.00  0.00     0.064 A 
ATOM     19  C   UNL d   1      52.802  32.241  52.890  0.00  0.00     0.020 A 
ATOM     20  C   UNL d   1      53.380  31.679  53.099  0.00  0.00     0.031 A 
ATOM     21  C   UNL d   1      53.807  31.758  53.802  0.00  0.00     0.140 A 
ATOM     22  C   UNL d   1      53.656  32.394  54.291  0.00  0.00     0.031 A 
ATOM     23  F   UNL d   1      54.380  31.202  54.009  0.00  0.00    -0.204 F 
ATOM     24  C   UNL d   1      53.087  32.946  54.085  0.00  0.00     0.020 A 
ENDBRANCH   3  18
TORSDOF 5
ENDMDL
MODEL 5
REMARK VINA RESULT:      -7.0      2.905      5.425
REMARK  5 active torsions:
REMARK  status: ('A' for Active; 'I' for Inactive)
REMARK    1  A    between atoms: C_11  and  C_1 
REMARK    2  A    between atoms: C_12  and  N_3 
REMARK    3  A    between atoms: C_7  and  S_13 
REMARK    4  A    between atoms: C_14  and  C_11 
REMARK    5  A    between atoms: S_13  and  C_14 
ROOT
ATOM      1  C   UNL d   1      52.177  32.865  53.188  0.00  0.00     0.057 A 
ATOM      2  C   UNL d   1      51.379  33.039  53.077  0.00  0.00     0.067 A 
ATOM      3  N   UNL d   1      51.309  33.847  52.987  0.00  0.00    -0.306 N 
ATOM      4  C   UNL d   1      52.053  34.177  53.041  0.00  0.00     0.064 A 
ATOM      5  C   UNL d   1      52.599  33.577  53.166  0.00  0.00     0.022 A 
ATOM      6  C   UNL d   1      50.758  32.500  53.059  0.00  0.00     0.019 C 
ATOM      7  C   UNL d   1      52.606  34.789  53.044  0.00  0.00     0.019 C 
ENDROOT
BRANCH   1   8
ATOM      8  C   UNL d   1      52.841  32.375  53.316  0.00  0.00     0.204 C 
ATOM      9  O   UNL d   1      53.581  32.578  52.990  0.00  0.00    -0.286 OA
BRANCH   8  10
ATOM     10  C   UNL d   1      53.172  31.697  53.651  0.00  0.00     0.080 C 
BRANCH  10  11
ATOM     11  S   UNL d   1      53.281  31.022  53.187  0.00  0.00    -0.043 SA
BRANCH  11  12
ATOM     12  C   UNL d   1      53.187  30.269  53.519  0.00  0.00     0.233 A 
ATOM     13  N   UNL d   1      53.520  30.016  54.223  0.00  0.00    -0.029 NA
ATOM     14  C   UNL d   1      53.284  29.239  54.340  0.00  0.00     0.788 A 
ATOM     15  N   UNL d   1      53.488  28.760  54.980  0.00  0.00     0.064 N 
ATOM     16  N   UNL d   1      52.809  29.022  53.707  0.00  0.00     0.050 NA
ATOM     17  N   UNL d   1      52.744  29.663  53.189  0.00  0.00    -0.105 NA
ENDBRANCH  11  12
ENDBRANCH  10  11
ENDBRANCH   8  10
ENDBRANCH   1   8
BRANCH   3  18
ATOM     18  C   UNL d   1      50.597  34.264  52.862  0.00  0.00     0.064 A 
ATOM     19  C   UNL d   1      50.252  34.624  53.475  0.00  0.00     0.020 A 
ATOM     20  C   UNL d   1      49.541  35.041  53.347  0.00  0.00     0.031 A 
ATOM     21  C   UNL d   1      49.206  35.075  52.593  0.00  0.00     0.140 A 
ATOM     22  C   UNL d   1      49.578  34.695  51.973  0.00  0.00     0.031 A 
ATOM     23  F   UNL d   1      48.502  35.486  52.465  0.00  0.00    -0.204 F 
ATOM     24  C   UNL d   1      50.276  34.287  52.099  0.00  0.00     0.020 A 
ENDBRANCH   3  18
TORSDOF 5
ENDMDL
MODEL 6
REMARK VINA RESULT:      -6.0      2.588      5.369
REMARK  5 active torsions:
REMARK  status: ('A' for Active; 'I' for Inactive)
REMARK    1  A    between atoms: C_11  and  C_1 
REMARK    2  A    between atoms: C_12  and  N_3 
REMARK    3  A    between atoms: C_7  and  S_13 
REMARK    4  A    between atoms: C_14  and  C_11 
REMARK    5  A    between atoms: S_13  and  C_14 
ROOT
ATOM      1  C   UNL d   1      51.564  33.393  52.910  0.00  0.00     0.057 A 
ATOM      2  C   UNL d   1      50.791  33.634  53.065  0.00  0.00     0.067 A 
ATOM      3  N   UNL d   1      50.572  34.162  52.484  0.00  0.00    -0.306 N 
ATOM      4  C   UNL d   1      51.197  34.254  51.969  0.00  0.00     0.064 A 
ATOM      5  C   UNL d   1      51.819  33.781  52.224  0.00  0.00     0.022 A 
ATOM      6  C   UNL d   1      50.319  33.389  53.693  0.00  0.00     0.019 C 
ATOM      7  C   UNL d   1      51.593  34.556  51.312  0.00  0.00     0.019 C 
ENDROOT
BRANCH   1   8
ATOM      8  C   UNL d   1      52.273  32.973  53.040  0.00  0.00     0.204 C 
ATOM      9  O   UNL d   1      52.280  32.140  53.007  0.00  0.00    -0.286 OA
BRANCH   8  10
ATOM     10  C   UNL d   1      53.082  32.974  53.207  0.00  0.00     0.080 C 
BRANCH  10  11
ATOM     11  S   UNL d   1      53.354  32.656  53.919  0.00  0.00    -0.043 SA
BRANCH  11  12
ATOM     12  C   UNL d   1      54.050  32.942  54.264  0.00  0.00     0.233 A 
ATOM     13  N   UNL d   1      54.111  33.262  55.016  0.00  0.00    -0.029 NA
ATOM     14  C   UNL d   1      54.895  33.472  55.131  0.00  0.00     0.788 A 
ATOM     15  N   UNL d   1      55.212  33.815  55.810  0.00  0.00     0.064 N 
ATOM     16  N   UNL d   1      55.309  33.279  54.448  0.00  0.00     0.050 NA
ATOM     17  N   UNL d   1      54.785  32.947  53.902  0.00  0.00    -0.105 NA
ENDBRANCH  11  12
ENDBRANCH  10  11
ENDBRANCH   8  10
ENDBRANCH   1   8
BRANCH   3  18
ATOM     18  C   UNL d   1      49.832  34.545  52.426  0.00  0.00     0.064 A 
ATOM     19  C   UNL d   1      49.618  35.051  52.994  0.00  0.00     0.020 A 
ATOM     20  C   UNL d   1      48.879  35.432  52.933  0.00  0.00     0.031 A 
ATOM     21  C   UNL d   1      48.381  35.281  52.292  0.00  0.00     0.140 A 
ATOM     22  C   UNL d   1      48.621  34.754  51.716  0.00  0.00     0.031 A 
ATOM     23  F   UNL d   1      47.648  35.657  52.231  0.00  0.00    -0.204 F 
ATOM     24  C   UNL d   1      49.347  34.381  51.776  0.00  0.00     0.020 A 
ENDBRANCH   3  18
TORSDOF 5
ENDMDL
MODEL 7
REMARK VINA RESULT:      -5.6      2.631      5.841
REMARK  5 active torsions:
REMARK  status: ('A' for Active; 'I' for Inactive)
REMARK    1  A    between atoms: C_11  and  C_1 
REMARK    2  A    between atoms: C_12  and  N_3 
REMARK    3  A    between atoms: C_7  and  S_13 
REMARK    4  A    between atoms: C_14  and  C_11 
REMARK    5  A    between atoms: S_13  and  C_14 
ROOT
ATOM      1  C   UNL d   1      49.705  34.780  52.621  0.00  0.00     0.057 A 
ATOM      2  C   UNL d   1      49.037  35.216  52.826  0.00  0.00     0.067 A 
ATOM      3  N   UNL d   1      48.535  35.224  52.183  0.00  0.00    -0.306 N 
ATOM      4  C   UNL d   1      48.882  34.798  51.580  0.00  0.00     0.064 A 
ATOM      5  C   UNL d   1      49.608  34.517  51.841  0.00  0.00     0.022 A 
ATOM      6  C   UNL d   1      48.894  35.583  53.549  0.00  0.00     0.019 C 
ATOM      7  C   UNL d   1      48.936  34.467  50.827  0.00  0.00     0.019 C 
ENDROOT
BRANCH   1   8
ATOM      8  C   UNL d   1      50.453  34.429  52.738  0.00  0.00     0.204 C 
ATOM      9  O   UNL d   1      51.120  34.905  52.890  0.00  0.00    -0.286 OA
BRANCH   8  10
ATOM     10  C   UNL d   1      50.923  33.752  52.783  0.00  0.00     0.080 C 
BRANCH  10  11
ATOM     11  S   UNL d   1      51.708  33.813  53.033  0.00  0.00    -0.043 SA
BRANCH  11  12
ATOM     12  C   UNL d   1      52.188  33.139  53.069  0.00  0.00     0.233 A 
ATOM     13  N   UNL d   1      52.762  32.996  53.636  0.00  0.00    -0.029 NA
ATOM     14  C   UNL d   1      53.101  32.269  53.462  0.00  0.00     0.788 A 
ATOM     15  N   UNL d   1      53.704  31.901  53.886  0.00  0.00     0.064 N 
ATOM     16  N   UNL d   1      52.731  31.974  52.791  0.00  0.00     0.050 NA
ATOM     17  N   UNL d   1      52.159  32.514  52.540  0.00  0.00    -0.105 NA
ENDBRANCH  11  12
ENDBRANCH  10  11
ENDBRANCH   8  10
ENDBRANCH   1   8
BRANCH   3  18
ATOM     18  C   UNL d   1      47.792  35.604  52.147  0.00  0.00     0.064 A 
ATOM     19  C   UNL d   1      47.721  36.332  52.447  0.00  0.00     0.020 A 
ATOM     20  C   UNL d   1      46.978  36.709  52.410  0.00  0.00     0.031 A 
ATOM     21  C   UNL d   1      46.331  36.328  52.066  0.00  0.00     0.140 A 
ATOM     22  C   UNL d   1      46.426  35.576  51.762  0.00  0.00     0.031 A 
ATOM     23  F   UNL d   1      45.596  36.701  52.030  0.00  0.00    -0.204 F 
ATOM     24  C   UNL d   1      47.156  35.206  51.799  0.00  0.00     0.020 A 
ENDBRANCH   3  18
TORSDOF 5
ENDMDL
