MODEL 1
REMARK VINA RESULT:      -3.9      0.000      0.000
REMARK  3 active torsions:
REMARK  status: ('A' for Active; 'I' for Inactive)
REMARK    1  A    between atoms: C_4  and  C_8 
REMARK    2  A    between atoms: N_13  and  C_7 
REMARK       I    between atoms: C_8  and  N_12 
REMARK    3  A    between atoms: N_12  and  N_13 
ROOT
ATOM      1  C   UNL d   1     -41.513-122.290 -52.384  0.00  0.00     0.297 C 
ATOM      2  N   UNL d   1     -41.781-122.767 -51.761  0.00  0.00    -0.104 NA
ATOM      3  O   UNL d   1     -41.124-121.577 -52.216  0.00  0.00    -0.264 OA
ENDROOT
BRANCH   2   4
ATOM      4  N   UNL d   1     -41.662-122.536 -50.981  0.00  0.00    -0.125 NA
BRANCH   4   5
ATOM      5  C   UNL d   1     -42.185-122.782 -50.393  0.00  0.00     0.190 A 
ATOM      6  C   UNL d   1     -41.897-123.019 -49.664  0.00  0.00     0.094 A 
ATOM      7  C   UNL d   1     -42.419-123.265 -49.075  0.00  0.00     0.170 A 
ATOM      8  C   UNL d   1     -41.123-123.069 -49.366  0.00  0.00     0.127 A 
ATOM      9  N   UNL d   1     -41.969-123.469 -48.408  0.00  0.00    -0.209 N 
ATOM     10  N   UNL d   1     -43.227-123.273 -49.217  0.00  0.00    -0.205 NA
ATOM     11  C   UNL d   1     -42.273-123.746 -47.685  0.00  0.00     0.123 C 
ATOM     12  N   UNL d   1     -41.172-123.348 -48.587  0.00  0.00    -0.162 NA
ATOM     13  C   UNL d   1     -43.514-123.035 -49.949  0.00  0.00     0.202 A 
ATOM     14  N   UNL d   1     -42.988-122.788 -50.541  0.00  0.00    -0.203 NA
ENDBRANCH   4   5
ENDBRANCH   2   4
BRANCH   1  15
ATOM     15  C   UNL d   1     -41.632-122.519 -53.168  0.00  0.00     0.070 A 
ATOM     16  C   UNL d   1     -41.987-122.005 -53.697  0.00  0.00     0.063 A 
ATOM     17  C   UNL d   1     -42.107-122.230 -54.479  0.00  0.00     0.023 A 
ATOM     18 CL   UNL d   1     -42.225-121.254 -53.437  0.00  0.00    -0.082 Cl
ATOM     19  C   UNL d   1     -41.866-122.987 -54.732  0.00  0.00     0.059 A 
ATOM     20  C   UNL d   1     -41.506-123.507 -54.193  0.00  0.00     0.012 A 
ATOM     21 CL   UNL d   1     -41.985-123.219 -55.520  0.00  0.00    -0.082 Cl
ATOM     22  C   UNL d   1     -41.391-123.272 -53.416  0.00  0.00     0.007 A 
ENDBRANCH   1  15
TORSDOF 3
ENDMDL
MODEL 2
REMARK VINA RESULT:      -2.5      2.142      4.866
REMARK  3 active torsions:
REMARK  status: ('A' for Active; 'I' for Inactive)
REMARK    1  A    between atoms: C_4  and  C_8 
REMARK    2  A    between atoms: N_13  and  C_7 
REMARK       I    between atoms: C_8  and  N_12 
REMARK    3  A    between atoms: N_12  and  N_13 
ROOT
ATOM      1  C   UNL d   1     -41.558-123.144 -51.521  0.00  0.00     0.297 C 
ATOM      2  N   UNL d   1     -41.802-122.609 -52.106  0.00  0.00    -0.104 NA
ATOM      3  O   UNL d   1     -41.123-123.816 -51.736  0.00  0.00    -0.264 OA
ENDROOT
BRANCH   2   4
ATOM      4  N   UNL d   1     -41.614-122.743 -52.895  0.00  0.00    -0.125 NA
BRANCH   4   5
ATOM      5  C   UNL d   1     -41.853-122.206 -53.474  0.00  0.00     0.190 A 
ATOM      6  C   UNL d   1     -42.035-122.472 -54.226  0.00  0.00     0.094 A 
ATOM      7  C   UNL d   1     -42.274-121.936 -54.806  0.00  0.00     0.170 A 
ATOM      8  C   UNL d   1     -42.031-123.233 -54.558  0.00  0.00     0.127 A 
ATOM      9  N   UNL d   1     -42.419-122.364 -55.502  0.00  0.00    -0.209 N 
ATOM     10  N   UNL d   1     -42.329-121.136 -54.630  0.00  0.00    -0.205 NA
ATOM     11  C   UNL d   1     -42.671-122.041 -56.225  0.00  0.00     0.123 C 
ATOM     12  N   UNL d   1     -42.269-123.162 -55.349  0.00  0.00    -0.162 NA
ATOM     13  C   UNL d   1     -42.145-120.871 -53.875  0.00  0.00     0.202 A 
ATOM     14  N   UNL d   1     -41.906-121.411 -53.293  0.00  0.00    -0.203 NA
ENDBRANCH   4   5
ENDBRANCH   2   4
BRANCH   1  15
ATOM     15  C   UNL d   1     -41.745-123.011 -50.729  0.00  0.00     0.070 A 
ATOM     16  C   UNL d   1     -42.420-123.345 -50.405  0.00  0.00     0.063 A 
ATOM     17  C   UNL d   1     -42.609-123.214 -49.615  0.00  0.00     0.023 A 
ATOM     18 CL   UNL d   1     -42.908-123.816 -50.881  0.00  0.00    -0.082 Cl
ATOM     19  C   UNL d   1     -42.113-122.740 -49.144  0.00  0.00     0.059 A 
ATOM     20  C   UNL d   1     -41.429-122.401 -49.475  0.00  0.00     0.012 A 
ATOM     21 CL   UNL d   1     -42.300-122.605 -48.346  0.00  0.00    -0.082 Cl
ATOM     22  C   UNL d   1     -41.248-122.538 -50.263  0.00  0.00     0.007 A 
ENDBRANCH   1  15
TORSDOF 3
ENDMDL
