MODEL 1
REMARK VINA RESULT:     142.0      0.000      0.000
REMARK  7 active torsions:
REMARK  status: ('A' for Active; 'I' for Inactive)
REMARK    1  A    between atoms: C_7  and  C_1 
REMARK    2  A    between atoms: C_9  and  N_2 
REMARK    3  A    between atoms: C_15  and  C_7 
REMARK    4  A    between atoms: C_8  and  C_9 
REMARK       I    between atoms: N_14  and  C_8 
REMARK    5  A    between atoms: C_20  and  N_14 
REMARK    6  A    between atoms: C_33  and  C_27 
REMARK    7  A    between atoms: C_34  and  C_32 
ROOT
ATOM      1  C   UNL d   1      61.259  47.549  50.533  0.00  0.00     0.095 A 
ATOM      2  N   UNL d   1      61.048  48.732  51.314  0.00  0.00    -0.300 N 
ATOM      3  C   UNL d   1      60.522  47.702  50.132  0.00  0.00     0.202 A 
ATOM      4  C   UNL d   1      61.520  48.059  51.118  0.00  0.00     0.087 A 
ATOM      5  C   UNL d   1      60.076  48.371  50.343  0.00  0.00     0.055 A 
ATOM      6  C   UNL d   1      60.327  48.888  50.927  0.00  0.00     0.067 A 
ATOM      7  C   UNL d   1      59.862  49.548  51.118  0.00  0.00     0.018 A 
ATOM      8  C   UNL d   1      59.344  48.534  49.954  0.00  0.00     0.005 A 
ATOM      9  O   UNL d   1      60.265  47.197  49.552  0.00  0.00    -0.286 OA
ATOM     10  C   UNL d   1      58.893  49.193  50.153  0.00  0.00     0.000 A 
ATOM     11  C   UNL d   1      59.152  49.700  50.736  0.00  0.00     0.002 A 
ENDROOT
BRANCH   2  12
ATOM     12  C   UNL d   1      61.307  49.239  51.896  0.00  0.00     0.144 C 
BRANCH  12  13
ATOM     13  C   UNL d   1      60.940  49.241  52.635  0.00  0.00     0.297 C 
ATOM     14  N   UNL d   1      60.257  49.676  52.753  0.00  0.00    -0.207 NA
ATOM     15  O   UNL d   1      61.263  48.803  53.255  0.00  0.00    -0.264 OA
BRANCH  14  16
ATOM     16  C   UNL d   1      59.890  49.678  53.492  0.00  0.00     0.087 A 
ATOM     17  C   UNL d   1      59.077  49.684  53.536  0.00  0.00     0.045 A 
ATOM     18  C   UNL d   1      58.709  49.686  54.272  0.00  0.00     0.121 A 
ATOM     19  O   UNL d   1      57.899  49.692  54.479  0.00  0.00    -0.299 OA
ATOM     20  C   UNL d   1      59.166  49.681  54.961  0.00  0.00     0.119 A 
ATOM     21  C   UNL d   1      57.851  49.691  55.312  0.00  0.00     0.304 A 
ATOM     22  O   UNL d   1      58.637  49.684  55.612  0.00  0.00    -0.300 OA
ATOM     23  C   UNL d   1      59.980  49.675  54.917  0.00  0.00     0.028 A 
ATOM     24  C   UNL d   1      60.346  49.673  54.178  0.00  0.00     0.021 A 
ENDBRANCH  14  16
ENDBRANCH  12  13
ENDBRANCH   2  12
BRANCH   1  25
ATOM     25  C   UNL d   1      61.711  46.891  50.333  0.00  0.00     0.200 C 
ATOM     26  O   UNL d   1      62.305  46.959  49.776  0.00  0.00    -0.286 OA
BRANCH  25  27
ATOM     27  C   UNL d   1      61.568  46.164  50.692  0.00  0.00     0.039 A 
ATOM     28  C   UNL d   1      61.138  45.569  50.296  0.00  0.00     0.003 A 
ATOM     29  C   UNL d   1      60.990  44.831  50.654  0.00  0.00     0.000 A 
ATOM     30  C   UNL d   1      61.272  44.688  51.410  0.00  0.00     0.000 A 
ATOM     31  C   UNL d   1      61.703  45.296  51.798  0.00  0.00     0.000 A 
ATOM     32  C   UNL d   1      61.853  46.032  51.444  0.00  0.00     0.003 A 
BRANCH  30  33
ATOM     33  C   UNL d   1      61.124  43.949  51.768  0.00  0.00     0.000 C 
ATOM     34  C   UNL d   1      61.736  43.575  52.152  0.00  0.00     0.000 C 
ENDBRANCH  30  33
ENDBRANCH  25  27
ENDBRANCH   1  25
BRANCH  10  35
ATOM     35  C   UNL d   1      58.178  49.334  49.759  0.00  0.00     0.000 C 
ATOM     36  C   UNL d   1      57.453  49.193  50.149  0.00  0.00     0.000 C 
ENDBRANCH  10  35
TORSDOF 7
ENDMDL
MODEL 2
REMARK VINA RESULT:     143.0      2.078      3.398
REMARK  7 active torsions:
REMARK  status: ('A' for Active; 'I' for Inactive)
REMARK    1  A    between atoms: C_7  and  C_1 
REMARK    2  A    between atoms: C_9  and  N_2 
REMARK    3  A    between atoms: C_15  and  C_7 
REMARK    4  A    between atoms: C_8  and  C_9 
REMARK       I    between atoms: N_14  and  C_8 
REMARK    5  A    between atoms: C_20  and  N_14 
REMARK    6  A    between atoms: C_33  and  C_27 
REMARK    7  A    between atoms: C_34  and  C_32 
ROOT
ATOM      1  C   UNL d   1      61.006  46.837  50.274  0.00  0.00     0.095 A 
ATOM      2  N   UNL d   1      60.848  48.261  50.307  0.00  0.00    -0.300 N 
ATOM      3  C   UNL d   1      61.248  46.861  51.092  0.00  0.00     0.202 A 
ATOM      4  C   UNL d   1      60.807  47.530  49.886  0.00  0.00     0.087 A 
ATOM      5  C   UNL d   1      61.279  47.593  51.484  0.00  0.00     0.055 A 
ATOM      6  C   UNL d   1      61.083  48.292  51.106  0.00  0.00     0.067 A 
ATOM      7  C   UNL d   1      61.124  49.009  51.522  0.00  0.00     0.018 A 
ATOM      8  C   UNL d   1      61.518  47.632  52.294  0.00  0.00     0.005 A 
ATOM      9  O   UNL d   1      61.444  46.175  51.476  0.00  0.00    -0.286 OA
ATOM     10  C   UNL d   1      61.553  48.349  52.694  0.00  0.00     0.000 A 
ATOM     11  C   UNL d   1      61.356  49.039  52.308  0.00  0.00     0.002 A 
ENDROOT
BRANCH   2  12
ATOM     12  C   UNL d   1      60.651  48.950  49.921  0.00  0.00     0.144 C 
BRANCH  12  13
ATOM     13  C   UNL d   1      59.858  49.160  49.831  0.00  0.00     0.297 C 
ATOM     14  N   UNL d   1      59.289  48.834  50.320  0.00  0.00    -0.207 NA
ATOM     15  O   UNL d   1      59.640  49.700  49.246  0.00  0.00    -0.264 OA
BRANCH  14  16
ATOM     16  C   UNL d   1      58.496  49.045  50.230  0.00  0.00     0.087 A 
ATOM     17  C   UNL d   1      58.095  48.815  49.559  0.00  0.00     0.045 A 
ATOM     18  C   UNL d   1      57.304  49.023  49.466  0.00  0.00     0.121 A 
ATOM     19  O   UNL d   1      56.766  48.866  48.846  0.00  0.00    -0.299 OA
ATOM     20  C   UNL d   1      56.923  49.464  50.053  0.00  0.00     0.119 A 
ATOM     21  C   UNL d   1      56.036  49.215  49.051  0.00  0.00     0.304 A 
ATOM     22  O   UNL d   1      56.132  49.587  49.800  0.00  0.00    -0.300 OA
ATOM     23  C   UNL d   1      57.325  49.694  50.723  0.00  0.00     0.028 A 
ATOM     24  C   UNL d   1      58.117  49.483  50.814  0.00  0.00     0.021 A 
ENDBRANCH  14  16
ENDBRANCH  12  13
ENDBRANCH   2  12
BRANCH   1  25
ATOM     25  C   UNL d   1      60.970  46.119  49.874  0.00  0.00     0.200 C 
ATOM     26  O   UNL d   1      60.520  46.054  49.194  0.00  0.00    -0.286 OA
BRANCH  25  27
ATOM     27  C   UNL d   1      61.385  45.465  50.153  0.00  0.00     0.039 A 
ATOM     28  C   UNL d   1      62.081  45.206  49.772  0.00  0.00     0.003 A 
ATOM     29  C   UNL d   1      62.505  44.545  50.050  0.00  0.00     0.000 A 
ATOM     30  C   UNL d   1      62.234  44.142  50.710  0.00  0.00     0.000 A 
ATOM     31  C   UNL d   1      61.532  44.413  51.084  0.00  0.00     0.000 A 
ATOM     32  C   UNL d   1      61.106  45.072  50.810  0.00  0.00     0.003 A 
BRANCH  30  33
ATOM     33  C   UNL d   1      62.659  43.481  50.988  0.00  0.00     0.000 C 
ATOM     34  C   UNL d   1      62.291  42.974  51.508  0.00  0.00     0.000 C 
ENDBRANCH  30  33
ENDBRANCH  25  27
ENDBRANCH   1  25
BRANCH  10  35
ATOM     35  C   UNL d   1      61.790  48.365  53.489  0.00  0.00     0.000 C 
ATOM     36  C   UNL d   1      61.792  49.087  53.908  0.00  0.00     0.000 C 
ENDBRANCH  10  35
TORSDOF 7
ENDMDL
MODEL 3
REMARK VINA RESULT:     143.4      1.848      4.403
REMARK  7 active torsions:
REMARK  status: ('A' for Active; 'I' for Inactive)
REMARK    1  A    between atoms: C_7  and  C_1 
REMARK    2  A    between atoms: C_9  and  N_2 
REMARK    3  A    between atoms: C_15  and  C_7 
REMARK    4  A    between atoms: C_8  and  C_9 
REMARK       I    between atoms: N_14  and  C_8 
REMARK    5  A    between atoms: C_20  and  N_14 
REMARK    6  A    between atoms: C_33  and  C_27 
REMARK    7  A    between atoms: C_34  and  C_32 
ROOT
ATOM      1  C   UNL d   1      59.937  49.299  51.862  0.00  0.00     0.095 A 
ATOM      2  N   UNL d   1      60.178  49.399  50.452  0.00  0.00    -0.300 N 
ATOM      3  C   UNL d   1      59.099  49.315  51.703  0.00  0.00     0.202 A 
ATOM      4  C   UNL d   1      60.471  49.340  51.242  0.00  0.00     0.087 A 
ATOM      5  C   UNL d   1      58.836  49.373  50.917  0.00  0.00     0.055 A 
ATOM      6  C   UNL d   1      59.361  49.415  50.290  0.00  0.00     0.067 A 
ATOM      7  C   UNL d   1      59.071  49.473  49.514  0.00  0.00     0.018 A 
ATOM      8  C   UNL d   1      58.009  49.390  50.745  0.00  0.00     0.005 A 
ATOM      9  O   UNL d   1      58.570  49.274  52.316  0.00  0.00    -0.286 OA
ATOM     10  C   UNL d   1      57.734  49.448  49.972  0.00  0.00     0.000 A 
ATOM     11  C   UNL d   1      58.266  49.489  49.355  0.00  0.00     0.002 A 
ENDROOT
BRANCH   2  12
ATOM     12  C   UNL d   1      60.709  49.440  49.837  0.00  0.00     0.144 C 
BRANCH  12  13
ATOM     13  C   UNL d   1      61.259  48.835  49.725  0.00  0.00     0.297 C 
ATOM     14  N   UNL d   1      61.003  48.071  49.580  0.00  0.00    -0.207 NA
ATOM     15  O   UNL d   1      62.066  49.002  49.759  0.00  0.00    -0.264 OA
BRANCH  14  16
ATOM     16  C   UNL d   1      61.553  47.466  49.467  0.00  0.00     0.087 A 
ATOM     17  C   UNL d   1      61.306  46.690  49.492  0.00  0.00     0.045 A 
ATOM     18  C   UNL d   1      61.852  46.085  49.380  0.00  0.00     0.121 A 
ATOM     19  O   UNL d   1      61.756  45.254  49.376  0.00  0.00    -0.299 OA
ATOM     20  C   UNL d   1      62.647  46.268  49.244  0.00  0.00     0.119 A 
ATOM     21  C   UNL d   1      62.505  44.914  49.235  0.00  0.00     0.304 A 
ATOM     22  O   UNL d   1      63.059  45.542  49.153  0.00  0.00    -0.300 OA
ATOM     23  C   UNL d   1      62.894  47.044  49.220  0.00  0.00     0.028 A 
ATOM     24  C   UNL d   1      62.344  47.648  49.332  0.00  0.00     0.021 A 
ENDBRANCH  14  16
ENDBRANCH  12  13
ENDBRANCH   2  12
BRANCH   1  25
ATOM     25  C   UNL d   1      60.211  49.242  52.635  0.00  0.00     0.200 C 
ATOM     26  O   UNL d   1      59.878  49.706  53.220  0.00  0.00    -0.286 OA
BRANCH  25  27
ATOM     27  C   UNL d   1      60.819  48.720  52.824  0.00  0.00     0.039 A 
ATOM     28  C   UNL d   1      61.489  48.979  53.247  0.00  0.00     0.003 A 
ATOM     29  C   UNL d   1      62.108  48.455  53.440  0.00  0.00     0.000 A 
ATOM     30  C   UNL d   1      62.056  47.671  53.212  0.00  0.00     0.000 A 
ATOM     31  C   UNL d   1      61.375  47.422  52.787  0.00  0.00     0.000 A 
ATOM     32  C   UNL d   1      60.757  47.941  52.592  0.00  0.00     0.003 A 
BRANCH  30  33
ATOM     33  C   UNL d   1      62.675  47.146  53.406  0.00  0.00     0.000 C 
ATOM     34  C   UNL d   1      62.816  46.987  54.192  0.00  0.00     0.000 C 
ENDBRANCH  30  33
ENDBRANCH  25  27
ENDBRANCH   1  25
BRANCH  10  35
ATOM     35  C   UNL d   1      56.919  49.463  49.826  0.00  0.00     0.000 C 
ATOM     36  C   UNL d   1      56.635  49.707  49.079  0.00  0.00     0.000 C 
ENDBRANCH  10  35
TORSDOF 7
ENDMDL
