MODEL 1
REMARK VINA RESULT:       0.8      0.000      0.000
REMARK  4 active torsions:
REMARK  status: ('A' for Active; 'I' for Inactive)
REMARK    1  A    between atoms: C_10  and  C_2 
REMARK    2  A    between atoms: C_13  and  C_6 
REMARK    3  A    between atoms: O_17  and  C_10 
REMARK    4  A    between atoms: C_23  and  O_17 
ROOT
ATOM      1  C   UNL d   1      32.184  18.207 -23.679  0.00  0.00     0.081 A 
ATOM      2  C   UNL d   1      31.219  17.385 -24.347  0.00  0.00     0.106 A 
ATOM      3  C   UNL d   1      30.831  18.062 -24.630  0.00  0.00     0.208 A 
ATOM      4  C   UNL d   1      31.795  18.885 -23.961  0.00  0.00     0.108 A 
ATOM      5  C   UNL d   1      32.858  18.285 -23.205  0.00  0.00     0.281 A 
ATOM      6  C   UNL d   1      31.897  17.456 -23.870  0.00  0.00     0.015 A 
ATOM      7  O   UNL d   1      31.126  18.812 -24.431  0.00  0.00    -0.288 OA
ATOM      8  N   UNL d   1      33.146  19.037 -23.013  0.00  0.00    -0.208 NA
ATOM      9  C   UNL d   1      32.080  19.640 -23.771  0.00  0.00     0.044 A 
ATOM     10  C   UNL d   1      32.760  19.723 -23.293  0.00  0.00     0.087 A 
ATOM     11  O   UNL d   1      33.241  17.613 -22.926  0.00  0.00    -0.265 OA
ATOM     12  N   UNL d   1      30.166  17.988 -25.096  0.00  0.00    -0.121 N 
ATOM     13  C   UNL d   1      33.046  20.463 -23.102  0.00  0.00     0.021 C 
ENDROOT
BRANCH   6  14
ATOM     14  C   UNL d   1      32.283  16.786 -23.590  0.00  0.00     0.004 A 
ATOM     15  C   UNL d   1      32.176  16.555 -22.806  0.00  0.00     0.021 A 
ATOM     16  C   UNL d   1      32.561  15.886 -22.526  0.00  0.00     0.099 A 
ATOM     17  N   UNL d   1      33.048  15.453 -23.026  0.00  0.00    -0.242 NA
ATOM     18  C   UNL d   1      33.151  15.689 -23.813  0.00  0.00     0.099 A 
ATOM     19  C   UNL d   1      32.770  16.353 -24.090  0.00  0.00     0.021 A 
ENDBRANCH   6  14
BRANCH   2  20
ATOM     20  C   UNL d   1      30.929  16.640 -24.541  0.00  0.00     0.304 C 
ATOM     21  O   UNL d   1      31.358  16.158 -25.051  0.00  0.00    -0.259 OA
BRANCH  20  22
ATOM     22  O   UNL d   1      30.221  16.380 -24.231  0.00  0.00    -0.271 OA
BRANCH  22  23
ATOM     23  C   UNL d   1      29.716  15.903 -24.671  0.00  0.00     0.126 C 
ATOM     24  C   UNL d   1      29.033  15.601 -24.323  0.00  0.00     0.029 C 
ENDBRANCH  22  23
ENDBRANCH  20  22
ENDBRANCH   2  20
TORSDOF 4
ENDMDL
MODEL 2
REMARK VINA RESULT:       2.7      0.973      1.027
REMARK  4 active torsions:
REMARK  status: ('A' for Active; 'I' for Inactive)
REMARK    1  A    between atoms: C_10  and  C_2 
REMARK    2  A    between atoms: C_13  and  C_6 
REMARK    3  A    between atoms: O_17  and  C_10 
REMARK    4  A    between atoms: C_23  and  O_17 
ROOT
ATOM      1  C   UNL d   1      31.971  17.878 -24.558  0.00  0.00     0.081 A 
ATOM      2  C   UNL d   1      30.881  16.948 -24.560  0.00  0.00     0.106 A 
ATOM      3  C   UNL d   1      30.391  17.515 -24.917  0.00  0.00     0.208 A 
ATOM      4  C   UNL d   1      31.481  18.446 -24.916  0.00  0.00     0.108 A 
ATOM      5  C   UNL d   1      32.758  18.064 -24.381  0.00  0.00     0.281 A 
ATOM      6  C   UNL d   1      31.673  17.128 -24.379  0.00  0.00     0.015 A 
ATOM      7  O   UNL d   1      30.700  18.265 -25.093  0.00  0.00    -0.288 OA
ATOM      8  N   UNL d   1      33.057  18.815 -24.561  0.00  0.00    -0.208 NA
ATOM      9  C   UNL d   1      31.777  19.199 -25.097  0.00  0.00     0.044 A 
ATOM     10  C   UNL d   1      32.570  19.391 -24.920  0.00  0.00     0.087 A 
ATOM     11  O   UNL d   1      33.241  17.501 -24.027  0.00  0.00    -0.265 OA
ATOM     12  N   UNL d   1      29.616  17.334 -25.092  0.00  0.00    -0.121 N 
ATOM     13  C   UNL d   1      32.868  20.130 -25.095  0.00  0.00     0.021 C 
ENDROOT
BRANCH   6  14
ATOM     14  C   UNL d   1      32.159  16.567 -24.025  0.00  0.00     0.004 A 
ATOM     15  C   UNL d   1      32.234  16.556 -23.205  0.00  0.00     0.021 A 
ATOM     16  C   UNL d   1      32.719  15.995 -22.851  0.00  0.00     0.099 A 
ATOM     17  N   UNL d   1      33.125  15.453 -23.315  0.00  0.00    -0.242 NA
ATOM     18  C   UNL d   1      33.046  15.469 -24.139  0.00  0.00     0.099 A 
ATOM     19  C   UNL d   1      32.565  16.024 -24.489  0.00  0.00     0.021 A 
ENDBRANCH   6  14
BRANCH   2  20
ATOM     20  C   UNL d   1      30.578  16.203 -24.384  0.00  0.00     0.304 C 
ATOM     21  O   UNL d   1      30.630  15.603 -24.943  0.00  0.00    -0.259 OA
BRANCH  20  22
ATOM     22  O   UNL d   1      30.228  16.061 -23.662  0.00  0.00    -0.271 OA
BRANCH  22  23
ATOM     23  C   UNL d   1      29.519  15.649 -23.608  0.00  0.00     0.126 C 
ATOM     24  C   UNL d   1      29.197  15.483 -22.867  0.00  0.00     0.029 C 
ENDBRANCH  22  23
ENDBRANCH  20  22
ENDBRANCH   2  20
TORSDOF 4
ENDMDL
