MODEL 1
REMARK VINA RESULT:      -2.9      0.000      0.000
REMARK  5 active torsions:
REMARK  status: ('A' for Active; 'I' for Inactive)
REMARK    1  A    between atoms: N_2  and  S_1 
REMARK    2  A    between atoms: C_3  and  S_1 
REMARK    3  A    between atoms: C_8  and  N_2 
REMARK    4  A    between atoms: C_12  and  C_8 
REMARK    5  A    between atoms: O_13  and  C_9 
ROOT
ATOM      1  S   UNL d   1      33.114  20.007 -22.394  0.00  0.00     0.285 S 
ATOM      2  O   UNL d   1      32.987  19.582 -21.698  0.00  0.00    -0.198 OA
ATOM      3  O   UNL d   1      33.241  20.436 -23.098  0.00  0.00    -0.198 OA
ENDROOT
BRANCH   1   4
ATOM      4  N   UNL d   1      33.202  19.299 -22.809  0.00  0.00    -0.157 NA
BRANCH   4   5
ATOM      5  C   UNL d   1      32.557  18.801 -22.917  0.00  0.00     0.112 C 
BRANCH   5   6
ATOM      6  C   UNL d   1      32.615  18.153 -23.424  0.00  0.00     0.020 A 
ATOM      7  C   UNL d   1      32.270  18.184 -24.168  0.00  0.00     0.002 A 
ATOM      8  C   UNL d   1      32.329  17.536 -24.676  0.00  0.00     0.000 A 
ATOM      9  C   UNL d   1      32.732  16.860 -24.437  0.00  0.00     0.000 A 
ATOM     10  C   UNL d   1      33.077  16.838 -23.684  0.00  0.00     0.000 A 
ATOM     11  C   UNL d   1      33.018  17.486 -23.177  0.00  0.00     0.002 A 
ENDBRANCH   5   6
ENDBRANCH   4   5
ENDBRANCH   1   4
BRANCH   1  12
ATOM     12  C   UNL d   1      33.025  20.714 -21.979  0.00  0.00     0.105 A 
ATOM     13  C   UNL d   1      32.725  20.708 -21.213  0.00  0.00     0.015 A 
ATOM     14  C   UNL d   1      32.635  21.419 -20.796  0.00  0.00     0.025 A 
ATOM     15  C   UNL d   1      32.846  22.132 -21.147  0.00  0.00     0.094 A 
ATOM     16  C   UNL d   1      33.149  22.144 -21.920  0.00  0.00     0.025 A 
ATOM     17  C   UNL d   1      33.238  21.433 -22.337  0.00  0.00     0.015 A 
BRANCH  15  18
ATOM     18  O   UNL d   1      32.757  22.840 -20.732  0.00  0.00    -0.328 OA
ATOM     19  C   UNL d   1      32.076  23.302 -20.845  0.00  0.00     0.181 C 
ENDBRANCH  15  18
ENDBRANCH   1  12
TORSDOF 5
ENDMDL
MODEL 2
REMARK VINA RESULT:      -2.8      1.147      4.633
REMARK  5 active torsions:
REMARK  status: ('A' for Active; 'I' for Inactive)
REMARK    1  A    between atoms: N_2  and  S_1 
REMARK    2  A    between atoms: C_3  and  S_1 
REMARK    3  A    between atoms: C_8  and  N_2 
REMARK    4  A    between atoms: C_12  and  C_8 
REMARK    5  A    between atoms: O_13  and  C_9 
ROOT
ATOM      1  S   UNL d   1      33.106  19.395 -22.770  0.00  0.00     0.285 S 
ATOM      2  O   UNL d   1      33.196  19.859 -23.446  0.00  0.00    -0.198 OA
ATOM      3  O   UNL d   1      33.015  18.927 -22.086  0.00  0.00    -0.198 OA
ENDROOT
BRANCH   1   4
ATOM      4  N   UNL d   1      33.240  20.058 -22.297  0.00  0.00    -0.157 NA
BRANCH   4   5
ATOM      5  C   UNL d   1      32.674  20.295 -21.749  0.00  0.00     0.112 C 
BRANCH   5   6
ATOM      6  C   UNL d   1      32.772  21.001 -21.333  0.00  0.00     0.020 A 
ATOM      7  C   UNL d   1      32.497  21.705 -21.653  0.00  0.00     0.002 A 
ATOM      8  C   UNL d   1      32.594  22.411 -21.238  0.00  0.00     0.000 A 
ATOM      9  C   UNL d   1      32.966  22.409 -20.504  0.00  0.00     0.000 A 
ATOM     10  C   UNL d   1      33.240  21.694 -20.189  0.00  0.00     0.000 A 
ATOM     11  C   UNL d   1      33.143  20.988 -20.605  0.00  0.00     0.002 A 
ENDBRANCH   5   6
ENDBRANCH   4   5
ENDBRANCH   1   4
BRANCH   1  12
ATOM     12  C   UNL d   1      32.972  18.732 -23.242  0.00  0.00     0.105 A 
ATOM     13  C   UNL d   1      32.664  18.821 -24.000  0.00  0.00     0.015 A 
ATOM     14  C   UNL d   1      32.529  18.155 -24.475  0.00  0.00     0.025 A 
ATOM     15  C   UNL d   1      32.703  17.403 -24.189  0.00  0.00     0.094 A 
ATOM     16  C   UNL d   1      33.014  17.309 -23.425  0.00  0.00     0.025 A 
ATOM     17  C   UNL d   1      33.149  17.975 -22.950  0.00  0.00     0.015 A 
BRANCH  15  18
ATOM     18  O   UNL d   1      32.569  16.740 -24.661  0.00  0.00    -0.328 OA
ATOM     19  C   UNL d   1      32.296  16.036 -24.316  0.00  0.00     0.181 C 
ENDBRANCH  15  18
ENDBRANCH   1  12
TORSDOF 5
ENDMDL
MODEL 3
REMARK VINA RESULT:      -1.5      3.672      4.396
REMARK  5 active torsions:
REMARK  status: ('A' for Active; 'I' for Inactive)
REMARK    1  A    between atoms: N_2  and  S_1 
REMARK    2  A    between atoms: C_3  and  S_1 
REMARK    3  A    between atoms: C_8  and  N_2 
REMARK    4  A    between atoms: C_12  and  C_8 
REMARK    5  A    between atoms: O_13  and  C_9 
ROOT
ATOM      1  S   UNL d   1      32.913  22.898 -20.653  0.00  0.00     0.285 S 
ATOM      2  O   UNL d   1      32.694  22.103 -20.636  0.00  0.00    -0.198 OA
ATOM      3  O   UNL d   1      33.134  23.702 -20.669  0.00  0.00    -0.198 OA
ENDROOT
BRANCH   1   4
ATOM      4  N   UNL d   1      33.005  22.856 -21.471  0.00  0.00    -0.157 NA
BRANCH   4   5
ATOM      5  C   UNL d   1      32.660  23.426 -21.954  0.00  0.00     0.112 C 
BRANCH   5   6
ATOM      6  C   UNL d   1      32.663  23.330 -22.773  0.00  0.00     0.020 A 
ATOM      7  C   UNL d   1      33.239  22.866 -23.129  0.00  0.00     0.002 A 
ATOM      8  C   UNL d   1      33.241  22.770 -23.948  0.00  0.00     0.000 A 
ATOM      9  C   UNL d   1      32.667  23.139 -24.408  0.00  0.00     0.000 A 
ATOM     10  C   UNL d   1      32.090  23.605 -24.041  0.00  0.00     0.000 A 
ATOM     11  C   UNL d   1      32.088  23.701 -23.221  0.00  0.00     0.002 A 
ENDBRANCH   5   6
ENDBRANCH   4   5
ENDBRANCH   1   4
BRANCH   1  12
ATOM     12  C   UNL d   1      32.821  22.940 -19.834  0.00  0.00     0.105 A 
ATOM     13  C   UNL d   1      32.427  23.577 -19.494  0.00  0.00     0.015 A 
ATOM     14  C   UNL d   1      32.335  23.619 -18.671  0.00  0.00     0.025 A 
ATOM     15  C   UNL d   1      32.638  23.023 -18.192  0.00  0.00     0.094 A 
ATOM     16  C   UNL d   1      33.037  22.378 -18.530  0.00  0.00     0.025 A 
ATOM     17  C   UNL d   1      33.129  22.336 -19.352  0.00  0.00     0.015 A 
BRANCH  15  18
ATOM     18  O   UNL d   1      32.546  23.065 -17.373  0.00  0.00    -0.328 OA
ATOM     19  C   UNL d   1      33.066  23.532 -16.923  0.00  0.00     0.181 C 
ENDBRANCH  15  18
ENDBRANCH   1  12
TORSDOF 5
ENDMDL
MODEL 4
REMARK VINA RESULT:      -0.1      2.993      4.317
REMARK  5 active torsions:
REMARK  status: ('A' for Active; 'I' for Inactive)
REMARK    1  A    between atoms: N_2  and  S_1 
REMARK    2  A    between atoms: C_3  and  S_1 
REMARK    3  A    between atoms: C_8  and  N_2 
REMARK    4  A    between atoms: C_12  and  C_8 
REMARK    5  A    between atoms: O_13  and  C_9 
ROOT
ATOM      1  S   UNL d   1      33.124  22.344 -19.037  0.00  0.00     0.285 S 
ATOM      2  O   UNL d   1      33.205  21.585 -18.725  0.00  0.00    -0.198 OA
ATOM      3  O   UNL d   1      33.042  23.112 -19.352  0.00  0.00    -0.198 OA
ENDROOT
BRANCH   1   4
ATOM      4  N   UNL d   1      33.234  22.044 -19.797  0.00  0.00    -0.157 NA
BRANCH   4   5
ATOM      5  C   UNL d   1      32.800  21.392 -20.050  0.00  0.00     0.112 C 
BRANCH   5   6
ATOM      6  C   UNL d   1      32.861  21.132 -20.830  0.00  0.00     0.020 A 
ATOM      7  C   UNL d   1      32.852  21.677 -21.445  0.00  0.00     0.002 A 
ATOM      8  C   UNL d   1      32.913  21.416 -22.225  0.00  0.00     0.000 A 
ATOM      9  C   UNL d   1      32.983  20.613 -22.388  0.00  0.00     0.000 A 
ATOM     10  C   UNL d   1      32.992  20.071 -21.761  0.00  0.00     0.000 A 
ATOM     11  C   UNL d   1      32.931  20.331 -20.981  0.00  0.00     0.002 A 
ENDBRANCH   5   6
ENDBRANCH   4   5
ENDBRANCH   1   4
BRANCH   1  12
ATOM     12  C   UNL d   1      33.014  22.645 -18.277  0.00  0.00     0.105 A 
ATOM     13  C   UNL d   1      33.241  22.202 -17.621  0.00  0.00     0.015 A 
ATOM     14  C   UNL d   1      33.130  22.504 -16.857  0.00  0.00     0.025 A 
ATOM     15  C   UNL d   1      32.793  23.247 -16.752  0.00  0.00     0.094 A 
ATOM     16  C   UNL d   1      32.563  23.698 -17.410  0.00  0.00     0.025 A 
ATOM     17  C   UNL d   1      32.673  23.396 -18.175  0.00  0.00     0.015 A 
BRANCH  15  18
ATOM     18  O   UNL d   1      32.683  23.547 -15.992  0.00  0.00    -0.328 OA
ATOM     19  C   UNL d   1      33.008  23.148 -15.339  0.00  0.00     0.181 C 
ENDBRANCH  15  18
ENDBRANCH   1  12
TORSDOF 5
ENDMDL
MODEL 5
REMARK VINA RESULT:       0.0      2.323      3.289
REMARK  5 active torsions:
REMARK  status: ('A' for Active; 'I' for Inactive)
REMARK    1  A    between atoms: N_2  and  S_1 
REMARK    2  A    between atoms: C_3  and  S_1 
REMARK    3  A    between atoms: C_8  and  N_2 
REMARK    4  A    between atoms: C_12  and  C_8 
REMARK    5  A    between atoms: O_13  and  C_9 
ROOT
ATOM      1  S   UNL d   1      31.841  17.749 -23.848  0.00  0.00     0.285 S 
ATOM      2  O   UNL d   1      31.519  18.290 -24.381  0.00  0.00    -0.198 OA
ATOM      3  O   UNL d   1      32.166  17.201 -23.309  0.00  0.00    -0.198 OA
ENDROOT
BRANCH   1   4
ATOM      4  N   UNL d   1      31.491  17.129 -24.266  0.00  0.00    -0.157 NA
BRANCH   4   5
ATOM      5  C   UNL d   1      30.885  17.283 -24.800  0.00  0.00     0.112 C 
BRANCH   5   6
ATOM      6  C   UNL d   1      30.241  16.770 -24.853  0.00  0.00     0.020 A 
ATOM      7  C   UNL d   1      30.367  15.966 -24.961  0.00  0.00     0.002 A 
ATOM      8  C   UNL d   1      29.723  15.453 -25.014  0.00  0.00     0.000 A 
ATOM      9  C   UNL d   1      28.956  15.747 -24.959  0.00  0.00     0.000 A 
ATOM     10  C   UNL d   1      28.839  16.559 -24.850  0.00  0.00     0.000 A 
ATOM     11  C   UNL d   1      29.483  17.072 -24.797  0.00  0.00     0.002 A 
ENDBRANCH   5   6
ENDBRANCH   4   5
ENDBRANCH   1   4
BRANCH   1  12
ATOM     12  C   UNL d   1      32.190  18.368 -23.429  0.00  0.00     0.105 A 
ATOM     13  C   UNL d   1      32.207  19.126 -23.750  0.00  0.00     0.015 A 
ATOM     14  C   UNL d   1      32.558  19.748 -23.330  0.00  0.00     0.025 A 
ATOM     15  C   UNL d   1      32.891  19.609 -22.591  0.00  0.00     0.094 A 
ATOM     16  C   UNL d   1      32.877  18.847 -22.263  0.00  0.00     0.025 A 
ATOM     17  C   UNL d   1      32.526  18.224 -22.683  0.00  0.00     0.015 A 
BRANCH  15  18
ATOM     18  O   UNL d   1      33.241  20.229 -22.173  0.00  0.00    -0.328 OA
ATOM     19  C   UNL d   1      32.888  20.505 -21.472  0.00  0.00     0.181 C 
ENDBRANCH  15  18
ENDBRANCH   1  12
TORSDOF 5
ENDMDL
