MODEL 1
REMARK VINA RESULT:      -6.7      0.000      0.000
REMARK  5 active torsions:
REMARK  status: ('A' for Active; 'I' for Inactive)
REMARK    1  A    between atoms: N_2  and  C_1 
REMARK    2  A    between atoms: C_9  and  C_5 
REMARK    3  A    between atoms: C_6  and  C_10 
REMARK       I    between atoms: N_11  and  C_6 
REMARK    4  A    between atoms: C_8  and  N_11 
REMARK    5  A    between atoms: C_10  and  C_9 
ROOT
ATOM      1  C   UNL d   1     -48.001  13.401  22.283  0.00  0.00     0.279 C 
ATOM      2  N   UNL d   1     -48.577  12.947  21.895  0.00  0.00    -0.208 NA
ATOM      3  O   UNL d   1     -48.212  13.961  22.853  0.00  0.00    -0.265 OA
ENDROOT
BRANCH   1   4
ATOM      4  C   UNL d   1     -47.215  13.293  22.099  0.00  0.00     0.063 C 
BRANCH   4   5
ATOM      5  C   UNL d   1     -46.646  13.339  22.696  0.00  0.00     0.011 C 
BRANCH   5   6
ATOM      6  C   UNL d   1     -45.885  13.032  22.562  0.00  0.00     0.031 A 
ATOM      7  S   UNL d   1     -45.497  12.370  22.844  0.00  0.00    -0.064 SA
ATOM      8  C   UNL d   1     -44.746  12.342  22.522  0.00  0.00     0.156 A 
ATOM      9  C   UNL d   1     -44.675  12.997  22.035  0.00  0.00     0.031 A 
ATOM     10  C   UNL d   1     -45.370  13.429  22.052  0.00  0.00     0.009 A 
BRANCH   8  11
ATOM     11  N   UNL d   1     -44.162  11.763  22.657  0.00  0.00    -0.107 N 
ATOM     12  O   UNL d   1     -44.302  11.170  23.213  0.00  0.00    -0.531 OA
ATOM     13  O   UNL d   1     -43.449  11.789  22.233  0.00  0.00    -0.531 OA
ENDBRANCH   8  11
ENDBRANCH   5   6
ENDBRANCH   4   5
ENDBRANCH   1   4
BRANCH   2  14
ATOM     14  C   UNL d   1     -49.376  13.057  22.083  0.00  0.00     0.085 A 
ATOM     15  C   UNL d   1     -49.804  13.640  21.719  0.00  0.00     0.019 A 
ATOM     16  C   UNL d   1     -50.593  13.749  21.904  0.00  0.00     0.002 A 
ATOM     17  C   UNL d   1     -51.041  14.345  21.536  0.00  0.00     0.000 C 
ATOM     18  C   UNL d   1     -50.939  13.272  22.450  0.00  0.00     0.000 A 
ATOM     19  C   UNL d   1     -50.520  12.673  22.832  0.00  0.00     0.002 A 
ATOM     20  C   UNL d   1     -49.734  12.564  22.648  0.00  0.00     0.019 A 
ATOM     21  C   UNL d   1     -50.880  12.184  23.394  0.00  0.00     0.000 C 
ENDBRANCH   2  14
TORSDOF 5
ENDMDL
MODEL 2
REMARK VINA RESULT:      -5.7      2.072      5.324
REMARK  5 active torsions:
REMARK  status: ('A' for Active; 'I' for Inactive)
REMARK    1  A    between atoms: N_2  and  C_1 
REMARK    2  A    between atoms: C_9  and  C_5 
REMARK    3  A    between atoms: C_6  and  C_10 
REMARK       I    between atoms: N_11  and  C_6 
REMARK    4  A    between atoms: C_8  and  N_11 
REMARK    5  A    between atoms: C_10  and  C_9 
ROOT
ATOM      1  C   UNL d   1     -47.959  12.386  23.155  0.00  0.00     0.279 C 
ATOM      2  N   UNL d   1     -47.276  12.715  23.492  0.00  0.00    -0.208 NA
ATOM      3  O   UNL d   1     -47.909  11.794  22.581  0.00  0.00    -0.265 OA
ENDROOT
BRANCH   1   4
ATOM      4  C   UNL d   1     -48.692  12.652  23.394  0.00  0.00     0.063 C 
BRANCH   4   5
ATOM      5  C   UNL d   1     -49.308  12.697  22.846  0.00  0.00     0.011 C 
BRANCH   5   6
ATOM      6  C   UNL d   1     -49.893  13.281  22.934  0.00  0.00     0.031 A 
ATOM      7  S   UNL d   1     -49.927  14.068  22.717  0.00  0.00    -0.064 SA
ATOM      8  C   UNL d   1     -50.648  14.379  22.946  0.00  0.00     0.156 A 
ATOM      9  C   UNL d   1     -51.061  13.770  23.308  0.00  0.00     0.031 A 
ATOM     10  C   UNL d   1     -50.606  13.090  23.306  0.00  0.00     0.009 A 
BRANCH   8  11
ATOM     11  N   UNL d   1     -50.917  15.160  22.836  0.00  0.00    -0.107 N 
ATOM     12  O   UNL d   1     -51.035  15.643  23.494  0.00  0.00    -0.531 OA
ATOM     13  O   UNL d   1     -51.064  15.442  22.070  0.00  0.00    -0.531 OA
ENDBRANCH   8  11
ENDBRANCH   5   6
ENDBRANCH   4   5
ENDBRANCH   1   4
BRANCH   2  14
ATOM     14  C   UNL d   1     -46.532  12.446  23.249  0.00  0.00     0.085 A 
ATOM     15  C   UNL d   1     -46.244  11.741  23.525  0.00  0.00     0.019 A 
ATOM     16  C   UNL d   1     -45.509  11.474  23.285  0.00  0.00     0.002 A 
ATOM     17  C   UNL d   1     -45.204  10.752  23.562  0.00  0.00     0.000 C 
ATOM     18  C   UNL d   1     -45.077  11.918  22.773  0.00  0.00     0.000 A 
ATOM     19  C   UNL d   1     -45.353  12.638  22.481  0.00  0.00     0.002 A 
ATOM     20  C   UNL d   1     -46.085  12.903  22.720  0.00  0.00     0.019 A 
ATOM     21  C   UNL d   1     -44.904  13.092  21.954  0.00  0.00     0.000 C 
ENDBRANCH   2  14
TORSDOF 5
ENDMDL
MODEL 3
REMARK VINA RESULT:      -5.2      2.026      5.293
REMARK  5 active torsions:
REMARK  status: ('A' for Active; 'I' for Inactive)
REMARK    1  A    between atoms: N_2  and  C_1 
REMARK    2  A    between atoms: C_9  and  C_5 
REMARK    3  A    between atoms: C_6  and  C_10 
REMARK       I    between atoms: N_11  and  C_6 
REMARK    4  A    between atoms: C_8  and  N_11 
REMARK    5  A    between atoms: C_10  and  C_9 
ROOT
ATOM      1  C   UNL d   1     -46.139  13.255  22.634  0.00  0.00     0.279 C 
ATOM      2  N   UNL d   1     -45.805  12.820  22.011  0.00  0.00    -0.208 NA
ATOM      3  O   UNL d   1     -45.696  13.452  23.303  0.00  0.00    -0.265 OA
ENDROOT
BRANCH   1   4
ATOM      4  C   UNL d   1     -46.918  13.491  22.584  0.00  0.00     0.063 C 
BRANCH   4   5
ATOM      5  C   UNL d   1     -47.144  14.218  22.905  0.00  0.00     0.011 C 
BRANCH   5   6
ATOM      6  C   UNL d   1     -47.927  14.483  22.809  0.00  0.00     0.031 A 
ATOM      7  S   UNL d   1     -48.650  14.148  22.989  0.00  0.00    -0.064 SA
ATOM      8  C   UNL d   1     -49.246  14.664  22.771  0.00  0.00     0.156 A 
ATOM      9  C   UNL d   1     -48.879  15.324  22.453  0.00  0.00     0.031 A 
ATOM     10  C   UNL d   1     -48.067  15.223  22.471  0.00  0.00     0.009 A 
BRANCH   8  11
ATOM     11  N   UNL d   1     -50.067  14.548  22.853  0.00  0.00    -0.107 N 
ATOM     12  O   UNL d   1     -50.502  14.267  22.211  0.00  0.00    -0.531 OA
ATOM     13  O   UNL d   1     -50.438  14.716  23.576  0.00  0.00    -0.531 OA
ENDBRANCH   8  11
ENDBRANCH   5   6
ENDBRANCH   4   5
ENDBRANCH   1   4
BRANCH   2  14
ATOM     14  C   UNL d   1     -45.015  12.579  22.062  0.00  0.00     0.085 A 
ATOM     15  C   UNL d   1     -44.444  12.962  21.633  0.00  0.00     0.019 A 
ATOM     16  C   UNL d   1     -43.662  12.724  21.683  0.00  0.00     0.002 A 
ATOM     17  C   UNL d   1     -43.069  13.110  21.247  0.00  0.00     0.000 C 
ATOM     18  C   UNL d   1     -43.468  12.109  22.162  0.00  0.00     0.000 A 
ATOM     19  C   UNL d   1     -44.034  11.707  22.606  0.00  0.00     0.002 A 
ATOM     20  C   UNL d   1     -44.812  11.944  22.556  0.00  0.00     0.019 A 
ATOM     21  C   UNL d   1     -43.829  11.074  23.098  0.00  0.00     0.000 C 
ENDBRANCH   2  14
TORSDOF 5
ENDMDL
MODEL 4
REMARK VINA RESULT:      -5.1      8.569      9.222
REMARK  5 active torsions:
REMARK  status: ('A' for Active; 'I' for Inactive)
REMARK    1  A    between atoms: N_2  and  C_1 
REMARK    2  A    between atoms: C_9  and  C_5 
REMARK    3  A    between atoms: C_6  and  C_10 
REMARK       I    between atoms: N_11  and  C_6 
REMARK    4  A    between atoms: C_8  and  N_11 
REMARK    5  A    between atoms: C_10  and  C_9 
ROOT
ATOM      1  C   UNL d   1     -40.157  14.902  19.254  0.00  0.00     0.279 C 
ATOM      2  N   UNL d   1     -40.195  15.660  18.918  0.00  0.00    -0.208 NA
ATOM      3  O   UNL d   1     -40.172  14.225  18.781  0.00  0.00    -0.265 OA
ENDROOT
BRANCH   1   4
ATOM      4  C   UNL d   1     -40.103  14.826  20.063  0.00  0.00     0.063 C 
BRANCH   4   5
ATOM      5  C   UNL d   1     -39.524  14.335  20.388  0.00  0.00     0.011 C 
BRANCH   5   6
ATOM      6  C   UNL d   1     -39.354  14.384  21.201  0.00  0.00     0.031 A 
ATOM      7  S   UNL d   1     -39.036  14.977  21.666  0.00  0.00    -0.064 SA
ATOM      8  C   UNL d   1     -38.994  14.717  22.441  0.00  0.00     0.156 A 
ATOM      9  C   UNL d   1     -39.292  13.953  22.448  0.00  0.00     0.031 A 
ATOM     10  C   UNL d   1     -39.516  13.738  21.691  0.00  0.00     0.009 A 
BRANCH   8  11
ATOM     11  N   UNL d   1     -38.707  15.140  23.098  0.00  0.00    -0.107 N 
ATOM     12  O   UNL d   1     -39.102  15.822  23.344  0.00  0.00    -0.531 OA
ATOM     13  O   UNL d   1     -38.030  14.873  23.498  0.00  0.00    -0.531 OA
ENDBRANCH   8  11
ENDBRANCH   5   6
ENDBRANCH   4   5
ENDBRANCH   1   4
BRANCH   2  14
ATOM     14  C   UNL d   1     -40.249  15.738  18.096  0.00  0.00     0.085 A 
ATOM     15  C   UNL d   1     -39.577  15.762  17.643  0.00  0.00     0.019 A 
ATOM     16  C   UNL d   1     -39.631  15.839  16.830  0.00  0.00     0.002 A 
ATOM     17  C   UNL d   1     -38.948  15.864  16.357  0.00  0.00     0.000 C 
ATOM     18  C   UNL d   1     -40.355  15.890  16.486  0.00  0.00     0.000 A 
ATOM     19  C   UNL d   1     -41.050  15.868  16.930  0.00  0.00     0.002 A 
ATOM     20  C   UNL d   1     -40.997  15.792  17.739  0.00  0.00     0.019 A 
ATOM     21  C   UNL d   1     -41.794  15.922  16.571  0.00  0.00     0.000 C 
ENDBRANCH   2  14
TORSDOF 5
ENDMDL
MODEL 5
REMARK VINA RESULT:      -4.4      2.092      2.866
REMARK  5 active torsions:
REMARK  status: ('A' for Active; 'I' for Inactive)
REMARK    1  A    between atoms: N_2  and  C_1 
REMARK    2  A    between atoms: C_9  and  C_5 
REMARK    3  A    between atoms: C_6  and  C_10 
REMARK       I    between atoms: N_11  and  C_6 
REMARK    4  A    between atoms: C_8  and  N_11 
REMARK    5  A    between atoms: C_10  and  C_9 
ROOT
ATOM      1  C   UNL d   1     -45.672  13.258  22.218  0.00  0.00     0.279 C 
ATOM      2  N   UNL d   1     -46.030  13.465  22.937  0.00  0.00    -0.208 NA
ATOM      3  O   UNL d   1     -46.124  13.016  21.570  0.00  0.00    -0.265 OA
ENDROOT
BRANCH   1   4
ATOM      4  C   UNL d   1     -44.861  13.295  22.149  0.00  0.00     0.063 C 
BRANCH   4   5
ATOM      5  C   UNL d   1     -44.483  12.868  21.552  0.00  0.00     0.011 C 
BRANCH   5   6
ATOM      6  C   UNL d   1     -43.665  12.965  21.433  0.00  0.00     0.031 A 
ATOM      7  S   UNL d   1     -43.224  13.550  21.071  0.00  0.00    -0.064 SA
ATOM      8  C   UNL d   1     -42.431  13.355  21.117  0.00  0.00     0.156 A 
ATOM      9  C   UNL d   1     -42.388  12.639  21.514  0.00  0.00     0.031 A 
ATOM     10  C   UNL d   1     -43.142  12.390  21.712  0.00  0.00     0.009 A 
BRANCH   8  11
ATOM     11  N   UNL d   1     -41.787  13.794  20.821  0.00  0.00    -0.107 N 
ATOM     12  O   UNL d   1     -41.436  13.566  20.110  0.00  0.00    -0.531 OA
ATOM     13  O   UNL d   1     -41.507  14.452  21.242  0.00  0.00    -0.531 OA
ENDBRANCH   8  11
ENDBRANCH   5   6
ENDBRANCH   4   5
ENDBRANCH   1   4
BRANCH   2  14
ATOM     14  C   UNL d   1     -46.854  13.428  23.007  0.00  0.00     0.085 A 
ATOM     15  C   UNL d   1     -47.308  14.077  22.837  0.00  0.00     0.019 A 
ATOM     16  C   UNL d   1     -48.122  14.040  22.906  0.00  0.00     0.002 A 
ATOM     17  C   UNL d   1     -48.596  14.701  22.734  0.00  0.00     0.000 C 
ATOM     18  C   UNL d   1     -48.467  13.354  23.143  0.00  0.00     0.000 A 
ATOM     19  C   UNL d   1     -48.022  12.682  23.320  0.00  0.00     0.002 A 
ATOM     20  C   UNL d   1     -47.211  12.719  23.251  0.00  0.00     0.019 A 
ATOM     21  C   UNL d   1     -48.381  11.977  23.563  0.00  0.00     0.000 C 
ENDBRANCH   2  14
TORSDOF 5
ENDMDL
MODEL 6
REMARK VINA RESULT:      -4.3      8.711     10.038
REMARK  5 active torsions:
REMARK  status: ('A' for Active; 'I' for Inactive)
REMARK    1  A    between atoms: N_2  and  C_1 
REMARK    2  A    between atoms: C_9  and  C_5 
REMARK    3  A    between atoms: C_6  and  C_10 
REMARK       I    between atoms: N_11  and  C_6 
REMARK    4  A    between atoms: C_8  and  N_11 
REMARK    5  A    between atoms: C_10  and  C_9 
ROOT
ATOM      1  C   UNL d   1     -39.432  14.559  18.805  0.00  0.00     0.279 C 
ATOM      2  N   UNL d   1     -38.702  14.638  18.418  0.00  0.00    -0.208 NA
ATOM      3  O   UNL d   1     -40.016  14.052  18.516  0.00  0.00    -0.265 OA
ENDROOT
BRANCH   1   4
ATOM      4  C   UNL d   1     -39.573  14.990  19.482  0.00  0.00     0.063 C 
BRANCH   4   5
ATOM      5  C   UNL d   1     -39.842  14.604  20.162  0.00  0.00     0.011 C 
BRANCH   5   6
ATOM      6  C   UNL d   1     -39.714  14.950  20.907  0.00  0.00     0.031 A 
ATOM      7  S   UNL d   1     -39.333  14.688  21.581  0.00  0.00    -0.064 SA
ATOM      8  C   UNL d   1     -39.378  15.267  22.157  0.00  0.00     0.156 A 
ATOM      9  C   UNL d   1     -39.794  15.892  21.829  0.00  0.00     0.031 A 
ATOM     10  C   UNL d   1     -40.005  15.708  21.060  0.00  0.00     0.009 A 
BRANCH   8  11
ATOM     11  N   UNL d   1     -39.065  15.235  22.929  0.00  0.00    -0.107 N 
ATOM     12  O   UNL d   1     -39.044  15.921  23.385  0.00  0.00    -0.531 OA
ATOM     13  O   UNL d   1     -38.779  14.516  23.229  0.00  0.00    -0.531 OA
ENDBRANCH   8  11
ENDBRANCH   5   6
ENDBRANCH   4   5
ENDBRANCH   1   4
BRANCH   2  14
ATOM     14  C   UNL d   1     -38.559  14.200  17.730  0.00  0.00     0.085 A 
ATOM     15  C   UNL d   1     -38.651  14.542  17.001  0.00  0.00     0.019 A 
ATOM     16  C   UNL d   1     -38.509  14.110  16.322  0.00  0.00     0.002 A 
ATOM     17  C   UNL d   1     -38.600  14.452  15.570  0.00  0.00     0.000 C 
ATOM     18  C   UNL d   1     -38.277  13.343  16.384  0.00  0.00     0.000 A 
ATOM     19  C   UNL d   1     -38.178  12.976  17.116  0.00  0.00     0.002 A 
ATOM     20  C   UNL d   1     -38.319  13.407  17.793  0.00  0.00     0.019 A 
ATOM     21  C   UNL d   1     -37.940  12.186  17.175  0.00  0.00     0.000 C 
ENDBRANCH   2  14
TORSDOF 5
ENDMDL
