MODEL 1
REMARK VINA RESULT:      -5.2      0.000      0.000
REMARK  3 active torsions:
REMARK  status: ('A' for Active; 'I' for Inactive)
REMARK    1  A    between atoms: C_9  and  N_1 
REMARK    2  A    between atoms: C_7  and  C_9 
REMARK    3  A    between atoms: C_8  and  C_7 
ROOT
ATOM      1  N   UNL d   1     -41.371-122.388 -53.237  0.00  0.00    -0.190 N 
ATOM      2  N   UNL d   1     -41.308-121.672 -52.833  0.00  0.00    -0.120 NA
ATOM      3  C   UNL d   1     -41.309-123.100 -52.828  0.00  0.00     0.281 A 
ATOM      4  C   UNL d   1     -41.185-121.666 -52.018  0.00  0.00     0.296 A 
ATOM      5  C   UNL d   1     -41.186-123.093 -52.016  0.00  0.00     0.068 A 
ATOM      6  C   UNL d   1     -41.124-122.377 -51.612  0.00  0.00     0.069 A 
ATOM      7  O   UNL d   1     -41.371-123.817 -53.233  0.00  0.00    -0.265 OA
ATOM      8  O   UNL d   1     -41.123-120.949 -51.614  0.00  0.00    -0.264 OA
ENDROOT
BRANCH   1   9
ATOM      9  C   UNL d   1     -41.495-122.391 -54.056  0.00  0.00     0.110 C 
BRANCH   9  10
ATOM     10  C   UNL d   1     -42.113-121.943 -54.376  0.00  0.00     0.091 C 
BRANCH  10  11
ATOM     11  C   UNL d   1     -42.208-121.911 -55.194  0.00  0.00     0.213 C 
ATOM     12  O   UNL d   1     -42.959-121.970 -55.534  0.00  0.00    -0.644 OA
ATOM     13  O   UNL d   1     -41.545-121.818 -55.679  0.00  0.00    -0.644 OA
ENDBRANCH  10  11
ENDBRANCH   9  10
ENDBRANCH   1   9
TORSDOF 3
ENDMDL
MODEL 2
REMARK VINA RESULT:      -4.9      0.963      2.906
REMARK  3 active torsions:
REMARK  status: ('A' for Active; 'I' for Inactive)
REMARK    1  A    between atoms: C_9  and  N_1 
REMARK    2  A    between atoms: C_7  and  C_9 
REMARK    3  A    between atoms: C_8  and  C_7 
ROOT
ATOM      1  N   UNL d   1     -41.569-122.459 -53.308  0.00  0.00    -0.190 N 
ATOM      2  N   UNL d   1     -41.845-121.784 -53.695  0.00  0.00    -0.120 NA
ATOM      3  C   UNL d   1     -41.398-123.141 -53.738  0.00  0.00     0.281 A 
ATOM      4  C   UNL d   1     -41.950-121.790 -54.513  0.00  0.00     0.296 A 
ATOM      5  C   UNL d   1     -41.503-123.145 -54.551  0.00  0.00     0.068 A 
ATOM      6  C   UNL d   1     -41.779-122.471 -54.938  0.00  0.00     0.069 A 
ATOM      7  O   UNL d   1     -41.122-123.816 -53.350  0.00  0.00    -0.265 OA
ATOM      8  O   UNL d   1     -42.225-121.116 -54.900  0.00  0.00    -0.264 OA
ENDROOT
BRANCH   1   9
ATOM      9  C   UNL d   1     -41.465-122.450 -52.487  0.00  0.00     0.110 C 
BRANCH   9  10
ATOM     10  C   UNL d   1     -41.862-121.884 -52.031  0.00  0.00     0.091 C 
BRANCH  10  11
ATOM     11  C   UNL d   1     -41.851-121.946 -51.209  0.00  0.00     0.213 C 
ATOM     12  O   UNL d   1     -42.444-122.360 -50.810  0.00  0.00    -0.644 OA
ATOM     13  O   UNL d   1     -41.240-121.591 -50.781  0.00  0.00    -0.644 OA
ENDBRANCH  10  11
ENDBRANCH   9  10
ENDBRANCH   1   9
TORSDOF 3
ENDMDL
MODEL 3
REMARK VINA RESULT:      -4.5      0.830      1.684
REMARK  3 active torsions:
REMARK  status: ('A' for Active; 'I' for Inactive)
REMARK    1  A    between atoms: C_9  and  N_1 
REMARK    2  A    between atoms: C_7  and  C_9 
REMARK    3  A    between atoms: C_8  and  C_7 
ROOT
ATOM      1  N   UNL d   1     -41.461-122.018 -52.558  0.00  0.00    -0.190 N 
ATOM      2  N   UNL d   1     -41.610-122.801 -52.348  0.00  0.00    -0.120 NA
ATOM      3  C   UNL d   1     -41.271-121.464 -51.978  0.00  0.00     0.281 A 
ATOM      4  C   UNL d   1     -41.569-123.034 -51.558  0.00  0.00     0.296 A 
ATOM      5  C   UNL d   1     -41.231-121.696 -51.192  0.00  0.00     0.068 A 
ATOM      6  C   UNL d   1     -41.380-122.480 -50.982  0.00  0.00     0.069 A 
ATOM      7  O   UNL d   1     -41.123-120.679 -52.188  0.00  0.00    -0.265 OA
ATOM      8  O   UNL d   1     -41.718-123.817 -51.348  0.00  0.00    -0.264 OA
ENDROOT
BRANCH   1   9
ATOM      9  C   UNL d   1     -41.503-121.787 -53.351  0.00  0.00     0.110 C 
BRANCH   9  10
ATOM     10  C   UNL d   1     -41.938-122.246 -53.887  0.00  0.00     0.091 C 
BRANCH  10  11
ATOM     11  C   UNL d   1     -42.102-121.945 -54.637  0.00  0.00     0.213 C 
ATOM     12  O   UNL d   1     -41.513-121.909 -55.214  0.00  0.00    -0.644 OA
ATOM     13  O   UNL d   1     -42.864-121.678 -54.812  0.00  0.00    -0.644 OA
ENDBRANCH  10  11
ENDBRANCH   9  10
ENDBRANCH   1   9
TORSDOF 3
ENDMDL
MODEL 4
REMARK VINA RESULT:      -2.5      1.868      2.196
REMARK  3 active torsions:
REMARK  status: ('A' for Active; 'I' for Inactive)
REMARK    1  A    between atoms: C_9  and  N_1 
REMARK    2  A    between atoms: C_7  and  C_9 
REMARK    3  A    between atoms: C_8  and  C_7 
ROOT
ATOM      1  N   UNL d   1     -41.916-122.668 -51.315  0.00  0.00    -0.190 N 
ATOM      2  N   UNL d   1     -42.506-122.131 -51.106  0.00  0.00    -0.120 NA
ATOM      3  C   UNL d   1     -41.714-123.280 -50.802  0.00  0.00     0.281 A 
ATOM      4  C   UNL d   1     -42.896-122.204 -50.383  0.00  0.00     0.296 A 
ATOM      5  C   UNL d   1     -42.102-123.352 -50.082  0.00  0.00     0.068 A 
ATOM      6  C   UNL d   1     -42.692-122.815 -49.873  0.00  0.00     0.069 A 
ATOM      7  O   UNL d   1     -41.123-123.817 -51.011  0.00  0.00    -0.265 OA
ATOM      8  O   UNL d   1     -43.486-121.667 -50.174  0.00  0.00    -0.264 OA
ENDROOT
BRANCH   1   9
ATOM      9  C   UNL d   1     -41.527-122.592 -52.041  0.00  0.00     0.110 C 
BRANCH   9  10
ATOM     10  C   UNL d   1     -41.960-122.389 -52.717  0.00  0.00     0.091 C 
BRANCH  10  11
ATOM     11  C   UNL d   1     -41.573-122.328 -53.443  0.00  0.00     0.213 C 
ATOM     12  O   UNL d   1     -41.605-122.947 -53.990  0.00  0.00    -0.644 OA
ATOM     13  O   UNL d   1     -41.151-121.642 -53.624  0.00  0.00    -0.644 OA
ENDBRANCH  10  11
ENDBRANCH   9  10
ENDBRANCH   1   9
TORSDOF 3
ENDMDL
