MODEL 1
REMARK VINA RESULT:      47.2      0.000      0.000
REMARK  1 active torsions:
REMARK  status: ('A' for Active; 'I' for Inactive)
REMARK    1  A    between atoms: C_6  and  C_1 
ROOT
ATOM      1  C   UNL d   1      60.356  49.660  51.549  0.00  0.00     0.162 A 
ATOM      2  N   UNL d   1      61.123  49.701  51.275  0.00  0.00    -0.225 NA
ATOM      3  N   UNL d   1      60.378  49.608  52.370  0.00  0.00    -0.225 NA
ATOM      4  C   UNL d   1      61.630  49.676  51.935  0.00  0.00     0.101 A 
ATOM      5  C   UNL d   1      61.170  49.619  52.610  0.00  0.00     0.101 A 
ATOM      6  C   UNL d   1      62.451  49.699  51.984  0.00  0.00     0.021 A 
ATOM      7  C   UNL d   1      61.522  49.583  53.351  0.00  0.00     0.021 A 
ATOM      8  C   UNL d   1      62.344  49.606  53.407  0.00  0.00     0.002 A 
ATOM      9  C   UNL d   1      62.812  49.664  52.719  0.00  0.00     0.002 A 
ENDROOT
BRANCH   1  10
ATOM     10  C   UNL d   1      59.671  49.667  51.084  0.00  0.00     0.037 A 
ATOM     11  C   UNL d   1      58.922  49.679  51.436  0.00  0.00     0.024 A 
ATOM     12  C   UNL d   1      58.242  49.686  50.974  0.00  0.00     0.103 A 
ATOM     13  N   UNL d   1      57.492  49.698  51.344  0.00  0.00    -0.148 N 
ATOM     14  C   UNL d   1      58.298  49.682  50.157  0.00  0.00     0.021 A 
ATOM     15  C   UNL d   1      59.047  49.670  49.787  0.00  0.00     0.002 A 
ATOM     16  C   UNL d   1      59.740  49.662  50.258  0.00  0.00     0.003 A 
ENDBRANCH   1  10
TORSDOF 1
ENDMDL
