MODEL 1
REMARK VINA RESULT:      -8.0      0.000      0.000
REMARK  5 active torsions:
REMARK  status: ('A' for Active; 'I' for Inactive)
REMARK    1  A    between atoms: N_2  and  S_1 
REMARK    2  A    between atoms: C_10  and  S_1 
REMARK    3  A    between atoms: S_6  and  C_3 
REMARK    4  A    between atoms: C_4  and  C_7 
REMARK    5  A    between atoms: C_7  and  S_6 
ROOT
ATOM      1  N   UNL d   1      53.388  31.566  53.402  0.00  0.00    -0.208 N 
ATOM      2  C   UNL d   1      53.035  32.304  53.556  0.00  0.00     0.189 A 
ATOM      3  N   UNL d   1      53.457  32.673  54.171  0.00  0.00    -0.219 NA
ATOM      4  C   UNL d   1      54.030  31.482  53.924  0.00  0.00     0.114 A 
ATOM      5  C   UNL d   1      54.069  32.162  54.394  0.00  0.00     0.121 A 
ENDROOT
BRANCH   2   6
ATOM      6  S   UNL d   1      52.374  32.612  53.160  0.00  0.00    -0.049 SA
BRANCH   6   7
ATOM      7  C   UNL d   1      52.082  33.354  53.376  0.00  0.00     0.041 C 
BRANCH   7   8
ATOM      8  C   UNL d   1      51.425  33.718  53.045  0.00  0.00     0.045 A 
ATOM      9  C   UNL d   1      50.666  33.482  53.256  0.00  0.00     0.141 A 
ATOM     10  F   UNL d   1      50.555  32.869  53.809  0.00  0.00    -0.204 F 
ATOM     11  C   UNL d   1      50.002  33.851  52.920  0.00  0.00     0.030 A 
ATOM     12  C   UNL d   1      50.113  34.463  52.367  0.00  0.00     0.003 A 
ATOM     13  C   UNL d   1      50.872  34.700  52.156  0.00  0.00     0.012 A 
ATOM     14  C   UNL d   1      51.533  34.327  52.495  0.00  0.00     0.060 A 
ATOM     15 CL   UNL d   1      52.289  34.573  52.276  0.00  0.00    -0.082 Cl
ENDBRANCH   7   8
ENDBRANCH   6   7
ENDBRANCH   2   6
BRANCH   1  16
ATOM     16  S   UNL d   1      53.149  31.014  52.834  0.00  0.00     0.273 S 
ATOM     17  O   UNL d   1      53.184  31.631  52.284  0.00  0.00    -0.200 OA
ATOM     18  O   UNL d   1      52.928  30.673  52.112  0.00  0.00    -0.200 OA
BRANCH  16  19
ATOM     19  C   UNL d   1      53.108  30.389  53.366  0.00  0.00     0.104 A 
ATOM     20  C   UNL d   1      53.796  29.996  53.580  0.00  0.00     0.013 A 
ATOM     21  C   UNL d   1      53.751  29.370  54.113  0.00  0.00     0.001 A 
ATOM     22  C   UNL d   1      53.030  29.138  54.429  0.00  0.00     0.000 A 
ATOM     23  C   UNL d   1      52.339  29.540  54.207  0.00  0.00     0.001 A 
ATOM     24  C   UNL d   1      52.384  30.166  53.674  0.00  0.00     0.013 A 
ENDBRANCH  16  19
ENDBRANCH   1  16
TORSDOF 5
ENDMDL
MODEL 2
REMARK VINA RESULT:      -7.6      2.046      4.098
REMARK  5 active torsions:
REMARK  status: ('A' for Active; 'I' for Inactive)
REMARK    1  A    between atoms: N_2  and  S_1 
REMARK    2  A    between atoms: C_10  and  S_1 
REMARK    3  A    between atoms: S_6  and  C_3 
REMARK    4  A    between atoms: C_4  and  C_7 
REMARK    5  A    between atoms: C_7  and  S_6 
ROOT
ATOM      1  N   UNL d   1      54.211  33.211  54.279  0.00  0.00    -0.208 N 
ATOM      2  C   UNL d   1      54.258  32.496  53.857  0.00  0.00     0.189 A 
ATOM      3  N   UNL d   1      54.881  32.555  53.309  0.00  0.00    -0.219 NA
ATOM      4  C   UNL d   1      54.808  33.712  53.990  0.00  0.00     0.114 A 
ATOM      5  C   UNL d   1      55.217  33.307  53.395  0.00  0.00     0.121 A 
ENDROOT
BRANCH   2   6
ATOM      6  S   UNL d   1      53.763  31.838  53.968  0.00  0.00    -0.049 SA
BRANCH   6   7
ATOM      7  C   UNL d   1      53.864  31.170  53.492  0.00  0.00     0.041 C 
BRANCH   7   8
ATOM      8  C   UNL d   1      53.406  30.490  53.530  0.00  0.00     0.045 A 
ATOM      9  C   UNL d   1      53.556  29.917  54.101  0.00  0.00     0.141 A 
ATOM     10  F   UNL d   1      54.176  30.021  54.647  0.00  0.00    -0.204 F 
ATOM     11  C   UNL d   1      53.093  29.229  54.137  0.00  0.00     0.030 A 
ATOM     12  C   UNL d   1      52.474  29.125  53.591  0.00  0.00     0.003 A 
ATOM     13  C   UNL d   1      52.323  29.699  53.020  0.00  0.00     0.012 A 
ATOM     14  C   UNL d   1      52.790  30.385  52.987  0.00  0.00     0.060 A 
ATOM     15 CL   UNL d   1      52.630  30.953  52.411  0.00  0.00    -0.082 Cl
ENDBRANCH   7   8
ENDBRANCH   6   7
ENDBRANCH   2   6
BRANCH   1  16
ATOM     16  S   UNL d   1      53.670  33.395  54.878  0.00  0.00     0.273 S 
ATOM     17  O   UNL d   1      54.032  32.802  55.326  0.00  0.00    -0.200 OA
ATOM     18  O   UNL d   1      53.261  33.387  55.598  0.00  0.00    -0.200 OA
BRANCH  16  19
ATOM     19  C   UNL d   1      53.297  33.988  54.448  0.00  0.00     0.104 A 
ATOM     20  C   UNL d   1      53.599  34.750  54.465  0.00  0.00     0.013 A 
ATOM     21  C   UNL d   1      53.223  35.341  54.033  0.00  0.00     0.001 A 
ATOM     22  C   UNL d   1      52.553  35.175  53.589  0.00  0.00     0.000 A 
ATOM     23  C   UNL d   1      52.253  34.401  53.577  0.00  0.00     0.001 A 
ATOM     24  C   UNL d   1      52.630  33.810  54.009  0.00  0.00     0.013 A 
ENDBRANCH  16  19
ENDBRANCH   1  16
TORSDOF 5
ENDMDL
MODEL 3
REMARK VINA RESULT:      -6.5      2.213      4.203
REMARK  5 active torsions:
REMARK  status: ('A' for Active; 'I' for Inactive)
REMARK    1  A    between atoms: N_2  and  S_1 
REMARK    2  A    between atoms: C_10  and  S_1 
REMARK    3  A    between atoms: S_6  and  C_3 
REMARK    4  A    between atoms: C_4  and  C_7 
REMARK    5  A    between atoms: C_7  and  S_6 
ROOT
ATOM      1  N   UNL d   1      51.602  33.286  52.714  0.00  0.00    -0.208 N 
ATOM      2  C   UNL d   1      52.128  32.978  53.280  0.00  0.00     0.189 A 
ATOM      3  N   UNL d   1      51.833  32.245  53.541  0.00  0.00    -0.219 NA
ATOM      4  C   UNL d   1      50.981  32.740  52.626  0.00  0.00     0.114 A 
ATOM      5  C   UNL d   1      51.126  32.103  53.134  0.00  0.00     0.121 A 
ENDROOT
BRANCH   2   6
ATOM      6  S   UNL d   1      52.827  33.345  53.537  0.00  0.00    -0.049 SA
BRANCH   6   7
ATOM      7  C   UNL d   1      53.295  32.973  54.108  0.00  0.00     0.041 C 
BRANCH   7   8
ATOM      8  C   UNL d   1      53.963  33.297  54.456  0.00  0.00     0.045 A 
ATOM      9  C   UNL d   1      53.891  33.832  55.077  0.00  0.00     0.141 A 
ATOM     10  F   UNL d   1      53.139  34.051  55.359  0.00  0.00    -0.204 F 
ATOM     11  C   UNL d   1      54.568  34.160  55.429  0.00  0.00     0.030 A 
ATOM     12  C   UNL d   1      55.320  33.941  55.148  0.00  0.00     0.003 A 
ATOM     13  C   UNL d   1      55.392  33.406  54.527  0.00  0.00     0.012 A 
ATOM     14  C   UNL d   1      54.712  33.080  54.178  0.00  0.00     0.060 A 
ATOM     15 CL   UNL d   1      54.795  32.545  53.557  0.00  0.00    -0.082 Cl
ENDBRANCH   7   8
ENDBRANCH   6   7
ENDBRANCH   2   6
BRANCH   1  16
ATOM     16  S   UNL d   1      51.679  34.004  52.310  0.00  0.00     0.273 S 
ATOM     17  O   UNL d   1      52.429  33.744  52.079  0.00  0.00    -0.200 OA
ATOM     18  O   UNL d   1      51.988  34.617  51.847  0.00  0.00    -0.200 OA
BRANCH  16  19
ATOM     19  C   UNL d   1      50.936  34.280  52.529  0.00  0.00     0.104 A 
ATOM     20  C   UNL d   1      50.298  34.162  52.027  0.00  0.00     0.013 A 
ATOM     21  C   UNL d   1      49.555  34.440  52.250  0.00  0.00     0.001 A 
ATOM     22  C   UNL d   1      49.450  34.831  52.963  0.00  0.00     0.000 A 
ATOM     23  C   UNL d   1      50.100  34.947  53.465  0.00  0.00     0.001 A 
ATOM     24  C   UNL d   1      50.843  34.669  53.243  0.00  0.00     0.013 A 
ENDBRANCH  16  19
ENDBRANCH   1  16
TORSDOF 5
ENDMDL
MODEL 4
REMARK VINA RESULT:      -6.4      2.123      2.783
REMARK  5 active torsions:
REMARK  status: ('A' for Active; 'I' for Inactive)
REMARK    1  A    between atoms: N_2  and  S_1 
REMARK    2  A    between atoms: C_10  and  S_1 
REMARK    3  A    between atoms: S_6  and  C_3 
REMARK    4  A    between atoms: C_4  and  C_7 
REMARK    5  A    between atoms: C_7  and  S_6 
ROOT
ATOM      1  N   UNL d   1      52.841  33.487  53.114  0.00  0.00    -0.208 N 
ATOM      2  C   UNL d   1      52.041  33.376  52.912  0.00  0.00     0.189 A 
ATOM      3  N   UNL d   1      51.926  32.573  52.727  0.00  0.00    -0.219 NA
ATOM      4  C   UNL d   1      53.219  32.749  53.052  0.00  0.00     0.114 A 
ATOM      5  C   UNL d   1      52.656  32.191  52.815  0.00  0.00     0.121 A 
ENDROOT
BRANCH   2   6
ATOM      6  S   UNL d   1      51.461  33.970  52.900  0.00  0.00    -0.049 SA
BRANCH   6   7
ATOM      7  C   UNL d   1      50.685  33.775  52.693  0.00  0.00     0.041 C 
BRANCH   7   8
ATOM      8  C   UNL d   1      50.064  34.308  52.634  0.00  0.00     0.045 A 
ATOM      9  C   UNL d   1      49.762  34.673  53.307  0.00  0.00     0.141 A 
ATOM     10  F   UNL d   1      50.084  34.506  54.056  0.00  0.00    -0.204 F 
ATOM     11  C   UNL d   1      49.134  35.212  53.245  0.00  0.00     0.030 A 
ATOM     12  C   UNL d   1      48.811  35.379  52.496  0.00  0.00     0.003 A 
ATOM     13  C   UNL d   1      49.113  35.014  51.823  0.00  0.00     0.012 A 
ATOM     14  C   UNL d   1      49.742  34.475  51.889  0.00  0.00     0.060 A 
ATOM     15 CL   UNL d   1      50.037  34.115  51.209  0.00  0.00    -0.082 Cl
ENDBRANCH   7   8
ENDBRANCH   6   7
ENDBRANCH   2   6
BRANCH   1  16
ATOM     16  S   UNL d   1      53.198  34.199  53.335  0.00  0.00     0.273 S 
ATOM     17  O   UNL d   1      52.842  34.535  52.669  0.00  0.00    -0.200 OA
ATOM     18  O   UNL d   1      53.433  34.993  53.341  0.00  0.00    -0.200 OA
BRANCH  16  19
ATOM     19  C   UNL d   1      53.561  33.884  54.002  0.00  0.00     0.104 A 
ATOM     20  C   UNL d   1      54.289  33.513  53.928  0.00  0.00     0.013 A 
ATOM     21  C   UNL d   1      54.649  33.198  54.598  0.00  0.00     0.001 A 
ATOM     22  C   UNL d   1      54.289  33.253  55.334  0.00  0.00     0.000 A 
ATOM     23  C   UNL d   1      53.552  33.629  55.400  0.00  0.00     0.001 A 
ATOM     24  C   UNL d   1      53.192  33.944  54.730  0.00  0.00     0.013 A 
ENDBRANCH  16  19
ENDBRANCH   1  16
TORSDOF 5
ENDMDL
MODEL 5
REMARK VINA RESULT:      -6.3      1.610      2.079
REMARK  5 active torsions:
REMARK  status: ('A' for Active; 'I' for Inactive)
REMARK    1  A    between atoms: N_2  and  S_1 
REMARK    2  A    between atoms: C_10  and  S_1 
REMARK    3  A    between atoms: S_6  and  C_3 
REMARK    4  A    between atoms: C_4  and  C_7 
REMARK    5  A    between atoms: C_7  and  S_6 
ROOT
ATOM      1  N   UNL d   1      52.949  31.570  53.157  0.00  0.00    -0.208 N 
ATOM      2  C   UNL d   1      52.586  32.299  53.326  0.00  0.00     0.189 A 
ATOM      3  N   UNL d   1      51.787  32.252  53.099  0.00  0.00    -0.219 NA
ATOM      4  C   UNL d   1      52.371  31.073  52.825  0.00  0.00     0.114 A 
ATOM      5  C   UNL d   1      51.660  31.494  52.790  0.00  0.00     0.121 A 
ENDROOT
BRANCH   2   6
ATOM      6  S   UNL d   1      52.962  32.957  53.664  0.00  0.00    -0.049 SA
BRANCH   6   7
ATOM      7  C   UNL d   1      52.510  33.612  53.888  0.00  0.00     0.041 C 
BRANCH   7   8
ATOM      8  C   UNL d   1      52.812  34.316  54.181  0.00  0.00     0.045 A 
ATOM      9  C   UNL d   1      53.126  34.351  54.941  0.00  0.00     0.141 A 
ATOM     10  F   UNL d   1      53.140  33.671  55.421  0.00  0.00    -0.204 F 
ATOM     11  C   UNL d   1      53.431  35.064  55.237  0.00  0.00     0.030 A 
ATOM     12  C   UNL d   1      53.416  35.744  54.757  0.00  0.00     0.003 A 
ATOM     13  C   UNL d   1      53.103  35.709  53.997  0.00  0.00     0.012 A 
ATOM     14  C   UNL d   1      52.798  34.993  53.705  0.00  0.00     0.060 A 
ATOM     15 CL   UNL d   1      52.487  34.970  52.942  0.00  0.00    -0.082 Cl
ENDBRANCH   7   8
ENDBRANCH   6   7
ENDBRANCH   2   6
BRANCH   1  16
ATOM     16  S   UNL d   1      53.741  31.371  53.294  0.00  0.00     0.273 S 
ATOM     17  O   UNL d   1      53.939  32.067  52.895  0.00  0.00    -0.200 OA
ATOM     18  O   UNL d   1      54.568  31.396  53.301  0.00  0.00    -0.200 OA
BRANCH  16  19
ATOM     19  C   UNL d   1      53.564  30.674  53.694  0.00  0.00     0.104 A 
ATOM     20  C   UNL d   1      53.449  29.983  53.268  0.00  0.00     0.013 A 
ATOM     21  C   UNL d   1      53.272  29.287  53.671  0.00  0.00     0.001 A 
ATOM     22  C   UNL d   1      53.210  29.281  54.490  0.00  0.00     0.000 A 
ATOM     23  C   UNL d   1      53.327  29.985  54.913  0.00  0.00     0.001 A 
ATOM     24  C   UNL d   1      53.504  30.680  54.510  0.00  0.00     0.013 A 
ENDBRANCH  16  19
ENDBRANCH   1  16
TORSDOF 5
ENDMDL
