MODEL 1
REMARK VINA RESULT:       9.5      0.000      0.000
REMARK  3 active torsions:
REMARK  status: ('A' for Active; 'I' for Inactive)
REMARK    1  A    between atoms: C_8  and  C_1 
REMARK    2  A    between atoms: N_5  and  C_2 
REMARK       I    between atoms: C_7  and  N_5 
REMARK    3  A    between atoms: C_9  and  C_7 
ROOT
ATOM      1  C   UNL d   1      46.297 -18.393  43.696  0.00  0.00     0.229 A 
ATOM      2  C   UNL d   1      46.209 -17.153  44.177  0.00  0.00     0.297 A 
ATOM      3  O   UNL d   1      46.356 -17.593  43.497  0.00  0.00    -0.252 OA
ATOM      4  N   UNL d   1      46.116 -18.439  44.491  0.00  0.00    -0.117 NA
ATOM      5  N   UNL d   1      46.061 -17.673  44.788  0.00  0.00    -0.101 NA
ENDROOT
BRANCH   2   6
ATOM      6  N   UNL d   1      46.212 -16.331  44.222  0.00  0.00    -0.165 NA
ATOM      7  C   UNL d   1      45.610 -15.937  44.605  0.00  0.00     0.282 C 
ATOM      8  O   UNL d   1      44.986 -16.354  44.955  0.00  0.00    -0.265 OA
BRANCH   7   9
ATOM      9  C   UNL d   1      45.614 -15.115  44.649  0.00  0.00     0.058 A 
ATOM     10  C   UNL d   1      44.924 -14.717  44.855  0.00  0.00     0.005 A 
ATOM     11  C   UNL d   1      44.918 -13.890  44.902  0.00  0.00     0.000 A 
ATOM     12  C   UNL d   1      45.611 -13.466  44.741  0.00  0.00     0.000 A 
ATOM     13  C   UNL d   1      46.301 -13.872  44.534  0.00  0.00     0.000 A 
ATOM     14  C   UNL d   1      45.624 -12.645  44.782  0.00  0.00     0.000 C 
ATOM     15  C   UNL d   1      46.304 -14.696  44.488  0.00  0.00     0.005 A 
ENDBRANCH   7   9
ENDBRANCH   2   6
BRANCH   1  16
ATOM     16  C   UNL d   1      46.405 -19.027  43.175  0.00  0.00     0.143 A 
ATOM     17  O   UNL d   1      46.571 -18.973  42.374  0.00  0.00    -0.301 OA
ATOM     18  C   UNL d   1      46.633 -19.736  42.075  0.00  0.00     0.123 A 
ATOM     19  C   UNL d   1      46.504 -20.268  42.696  0.00  0.00     0.029 A 
ATOM     20  C   UNL d   1      46.364 -19.832  43.376  0.00  0.00     0.030 A 
ENDBRANCH   1  16
TORSDOF 3
ENDMDL
