MODEL 1
REMARK VINA RESULT:      71.1      0.000      0.000
REMARK  7 active torsions:
REMARK  status: ('A' for Active; 'I' for Inactive)
REMARK    1  A    between atoms: C_8  and  C_2 
REMARK    2  A    between atoms: C_12  and  N_3 
REMARK    3  A    between atoms: C_6  and  C_4 
REMARK       I    between atoms: C_7  and  N_13 
REMARK    4  A    between atoms: C_9  and  C_7 
REMARK    5  A    between atoms: N_13  and  C_8 
REMARK    6  A    between atoms: C_11  and  C_9 
REMARK    7  A    between atoms: C_10  and  C_11 
ROOT
ATOM      1  N   UNL d   1     -49.411  27.519  34.005  0.00  0.00    -0.165 NA
ATOM      2  C   UNL d   1     -50.089  27.291  35.231  0.00  0.00     0.071 A 
ATOM      3  N   UNL d   1     -49.004  28.219  35.172  0.00  0.00    -0.228 N 
ATOM      4  C   UNL d   1     -49.997  27.137  34.438  0.00  0.00     0.105 A 
ATOM      5  C   UNL d   1     -49.589  27.837  35.605  0.00  0.00     0.105 A 
ENDROOT
BRANCH   2   6
ATOM      6  C   UNL d   1     -50.674  26.909  35.664  0.00  0.00     0.168 C 
BRANCH   6   7
ATOM      7  N   UNL d   1     -50.659  26.927  36.497  0.00  0.00    -0.362 NA
ATOM      8  C   UNL d   1     -50.646  26.940  37.335  0.00  0.00     0.329 C 
ATOM      9  O   UNL d   1     -50.244  27.552  37.739  0.00  0.00    -0.251 OA
BRANCH   8  10
ATOM     10  C   UNL d   1     -51.038  26.339  37.773  0.00  0.00     0.082 C 
BRANCH  10  11
ATOM     11  C   UNL d   1     -51.807  26.480  38.084  0.00  0.00     0.076 C 
BRANCH  11  12
ATOM     12  C   UNL d   1     -52.231  25.861  38.446  0.00  0.00     0.211 C 
ATOM     13  O   UNL d   1     -52.926  25.576  38.077  0.00  0.00    -0.644 OA
ATOM     14  O   UNL d   1     -51.959  25.540  39.160  0.00  0.00    -0.644 OA
ENDBRANCH  11  12
ENDBRANCH  10  11
ENDBRANCH   8  10
ENDBRANCH   6   7
ENDBRANCH   2   6
BRANCH   4  15
ATOM     15  C   UNL d   1     -50.493  26.592  34.056  0.00  0.00     0.020 A 
ATOM     16  C   UNL d   1     -50.216  25.854  33.873  0.00  0.00     0.008 A 
ATOM     17  C   UNL d   1     -50.707  25.317  33.496  0.00  0.00     0.035 A 
ATOM     18 BR   UNL d   1     -50.435  24.570  33.308  0.00  0.00    -0.049 Br
ATOM     19  C   UNL d   1     -51.487  25.541  33.306  0.00  0.00     0.007 A 
ATOM     20  C   UNL d   1     -51.765  26.289  33.492  0.00  0.00     0.001 A 
ATOM     21  C   UNL d   1     -51.268  26.815  33.867  0.00  0.00     0.002 A 
ENDBRANCH   4  15
BRANCH   3  22
ATOM     22  C   UNL d   1     -48.426  28.772  35.340  0.00  0.00     0.083 A 
ATOM     23  C   UNL d   1     -48.034  29.138  34.718  0.00  0.00     0.019 A 
ATOM     24  C   UNL d   1     -47.449  29.698  34.888  0.00  0.00     0.002 A 
ATOM     25  C   UNL d   1     -47.265  29.883  35.671  0.00  0.00     0.000 A 
ATOM     26  C   UNL d   1     -47.667  29.509  36.287  0.00  0.00     0.002 A 
ATOM     27  C   UNL d   1     -48.246  28.954  36.116  0.00  0.00     0.019 A 
ENDBRANCH   3  22
TORSDOF 7
ENDMDL
