MODEL 1
REMARK VINA RESULT:       5.9      0.000      0.000
REMARK  1 active torsions:
REMARK  status: ('A' for Active; 'I' for Inactive)
REMARK    1  A    between atoms: C_2  and  N_1 
ROOT
ATOM      1  C   UNL d   1      24.214  12.617  -2.969  0.00  0.00     0.127 A 
ATOM      2  C   UNL d   1      24.666  12.860  -2.319  0.00  0.00     0.025 A 
ATOM      3  C   UNL d   1      24.315  12.944  -1.581  0.00  0.00     0.021 A 
ATOM      4  N   UNL d   1      24.416  13.271  -0.197  0.00  0.00    -0.242 NA
ATOM      5  C   UNL d   1      23.513  12.788  -1.485  0.00  0.00     0.003 A 
ATOM      6  C   UNL d   1      23.408  12.461  -2.864  0.00  0.00     0.024 A 
ATOM      7  C   UNL d   1      23.057  12.546  -2.128  0.00  0.00     0.002 A 
ATOM      8  C   UNL d   1      24.767  13.186  -0.934  0.00  0.00     0.099 A 
ATOM      9  C   UNL d   1      23.614  13.115  -0.101  0.00  0.00     0.099 A 
ATOM     10  C   UNL d   1      23.150  12.871  -0.742  0.00  0.00     0.021 A 
ENDROOT
BRANCH   1  11
ATOM     11  N   UNL d   1      24.564  12.531  -3.711  0.00  0.00    -0.114 N 
ATOM     12  O   UNL d   1      24.766  11.782  -3.985  0.00  0.00    -0.532 OA
ATOM     13  O   UNL d   1      24.714  13.195  -4.182  0.00  0.00    -0.532 OA
ENDBRANCH   1  11
TORSDOF 1
ENDMDL
MODEL 2
REMARK VINA RESULT:       7.7      9.785     10.295
REMARK  1 active torsions:
REMARK  status: ('A' for Active; 'I' for Inactive)
REMARK    1  A    between atoms: C_2  and  N_1 
ROOT
ATOM      1  C   UNL d   1      13.484  12.089  -2.920  0.00  0.00     0.127 A 
ATOM      2  C   UNL d   1      14.233  12.195  -2.584  0.00  0.00     0.025 A 
ATOM      3  C   UNL d   1      14.341  12.095  -1.776  0.00  0.00     0.021 A 
ATOM      4  N   UNL d   1      15.197  12.101  -0.635  0.00  0.00    -0.242 NA
ATOM      5  C   UNL d   1      13.705  11.888  -1.297  0.00  0.00     0.003 A 
ATOM      6  C   UNL d   1      12.848  11.881  -2.431  0.00  0.00     0.024 A 
ATOM      7  C   UNL d   1      12.956  11.781  -1.624  0.00  0.00     0.002 A 
ATOM      8  C   UNL d   1      15.088  12.201  -1.443  0.00  0.00     0.099 A 
ATOM      9  C   UNL d   1      14.560  11.894  -0.156  0.00  0.00     0.099 A 
ATOM     10  C   UNL d   1      13.806  11.785  -0.478  0.00  0.00     0.021 A 
ENDROOT
BRANCH   1  11
ATOM     11  N   UNL d   1      13.373  12.189  -3.731  0.00  0.00    -0.114 N 
ATOM     12  O   UNL d   1      13.849  11.780  -4.263  0.00  0.00    -0.532 OA
ATOM     13  O   UNL d   1      12.784  12.699  -4.013  0.00  0.00    -0.532 OA
ENDBRANCH   1  11
TORSDOF 1
ENDMDL
