MODEL 1
REMARK VINA RESULT:      57.0      0.000      0.000
REMARK  6 active torsions:
REMARK  status: ('A' for Active; 'I' for Inactive)
REMARK    1  A    between atoms: C_7  and  N_1 
REMARK    2  A    between atoms: C_9  and  C_7 
REMARK    3  A    between atoms: C_10  and  C_9 
REMARK       I    between atoms: N_13  and  C_10 
REMARK    4  A    between atoms: C_15  and  N_13 
REMARK    5  A    between atoms: C_18  and  C_15 
REMARK    6  A    between atoms: C_17  and  C_18 
ROOT
ATOM      1  C   UNL d   1     -55.190-101.554 -42.744  0.00  0.00     0.090 C 
ENDROOT
BRANCH   1   2
ATOM      2  N   UNL d   1     -55.098-100.857 -43.189  0.00  0.00    -0.249 N 
ATOM      3  C   UNL d   1     -54.861-100.167 -42.821  0.00  0.00     0.208 A 
ATOM      4  N   UNL d   1     -54.766 -99.470 -43.254  0.00  0.00    -0.218 NA
ATOM      5  S   UNL d   1     -54.712-100.158 -42.008  0.00  0.00    -0.038 SA
ATOM      6  C   UNL d   1     -54.916 -99.483 -44.069  0.00  0.00     0.088 A 
ATOM      7  C   UNL d   1     -55.154-100.178 -44.439  0.00  0.00     0.074 A 
ATOM      8  C   UNL d   1     -54.824 -98.791 -44.509  0.00  0.00     0.019 A 
ATOM      9  C   UNL d   1     -55.246-100.869 -43.998  0.00  0.00     0.268 A 
ATOM     10  C   UNL d   1     -55.302-100.185 -45.251  0.00  0.00     0.006 A 
ATOM     11  O   UNL d   1     -55.485-101.566 -44.367  0.00  0.00    -0.267 OA
ATOM     12  C   UNL d   1     -55.210 -99.494 -45.692  0.00  0.00     0.000 A 
ATOM     13  C   UNL d   1     -54.973 -98.799 -45.327  0.00  0.00     0.002 A 
ENDBRANCH   1   2
BRANCH   1  14
ATOM     14  C   UNL d   1     -54.764-101.650 -42.049  0.00  0.00     0.082 C 
BRANCH  14  15
ATOM     15  C   UNL d   1     -55.147-101.903 -41.358  0.00  0.00     0.281 C 
ATOM     16  O   UNL d   1     -55.959-102.030 -41.372  0.00  0.00    -0.265 OA
ATOM     17  N   UNL d   1     -54.711-102.022 -40.674  0.00  0.00    -0.206 NA
BRANCH  17  18
ATOM     18  C   UNL d   1     -55.097-102.277 -39.977  0.00  0.00     0.102 C 
BRANCH  18  19
ATOM     19  C   UNL d   1     -54.804-102.078 -39.239  0.00  0.00     0.021 C 
BRANCH  19  20
ATOM     20  C   UNL d   1     -55.241-102.205 -38.574  0.00  0.00     0.002 A 
ATOM     21  C   UNL d   1     -56.067-102.108 -38.580  0.00  0.00     0.000 A 
ATOM     22  C   UNL d   1     -56.515-102.238 -37.897  0.00  0.00     0.000 A 
ATOM     23  C   UNL d   1     -56.162-102.467 -37.190  0.00  0.00     0.000 A 
ATOM     24  C   UNL d   1     -55.335-102.564 -37.186  0.00  0.00     0.000 A 
ATOM     25  C   UNL d   1     -54.875-102.436 -37.865  0.00  0.00     0.000 A 
ENDBRANCH  19  20
ENDBRANCH  18  19
ENDBRANCH  17  18
ENDBRANCH  14  15
ENDBRANCH   1  14
TORSDOF 6
ENDMDL
