MODEL 1
REMARK VINA RESULT:      35.3      0.000      0.000
REMARK  3 active torsions:
REMARK  status: ('A' for Active; 'I' for Inactive)
REMARK    1  A    between atoms: C_11  and  C_8 
REMARK       I    between atoms: N_14  and  C_11 
REMARK    2  A    between atoms: C_20  and  N_14 
REMARK    3  A    between atoms: C_21  and  C_20 
ROOT
ATOM      1  C   UNL d   1      45.154 -15.834  43.925  0.00  0.00     0.154 A 
ATOM      2  C   UNL d   1      45.825 -15.603  44.345  0.00  0.00     0.093 A 
ATOM      3  N   UNL d   1      44.596 -15.265  43.695  0.00  0.00    -0.210 NA
ATOM      4  N   UNL d   1      45.383 -14.241  44.303  0.00  0.00    -0.258 N 
ATOM      5  C   UNL d   1      45.939 -14.803  44.534  0.00  0.00     0.269 A 
ATOM      6  N   UNL d   1      45.184 -16.648  43.817  0.00  0.00    -0.285 N 
ATOM      7  C   UNL d   1      44.711 -14.472  43.883  0.00  0.00     0.152 A 
ATOM      8  C   UNL d   1      45.874 -16.926  44.168  0.00  0.00     0.124 A 
ATOM      9  C   UNL d   1      46.270 -16.275  44.495  0.00  0.00     0.030 A 
ATOM     10  C   UNL d   1      45.499 -13.448  44.492  0.00  0.00     0.084 A 
ATOM     11  C   UNL d   1      44.156 -13.910  43.653  0.00  0.00     0.038 A 
ATOM     12  C   UNL d   1      44.943 -12.886  44.261  0.00  0.00     0.018 A 
ATOM     13  C   UNL d   1      44.271 -13.117  43.842  0.00  0.00     0.005 A 
ATOM     14  O   UNL d   1      46.611 -14.572  44.953  0.00  0.00    -0.266 OA
ATOM     15  C   UNL d   1      44.622 -17.114  43.424  0.00  0.00     0.101 C 
ATOM     16  C   UNL d   1      45.055 -12.081  44.450  0.00  0.00     0.002 C 
ENDROOT
BRANCH   8  17
ATOM     17  C   UNL d   1      46.125 -17.711  44.190  0.00  0.00     0.295 C 
ATOM     18  N   UNL d   1      45.926 -18.222  43.571  0.00  0.00    -0.203 NA
ATOM     19  O   UNL d   1      46.572 -17.987  44.823  0.00  0.00    -0.264 OA
BRANCH  18  20
ATOM     20  C   UNL d   1      46.176 -19.008  43.589  0.00  0.00     0.127 C 
BRANCH  20  21
ATOM     21  C   UNL d   1      46.147 -19.466  42.905  0.00  0.00     0.119 A 
ATOM     22  O   UNL d   1      46.641 -20.069  42.617  0.00  0.00    -0.304 OA
ATOM     23  C   UNL d   1      46.332 -20.327  41.896  0.00  0.00     0.123 A 
ATOM     24  C   UNL d   1      45.656 -19.894  41.733  0.00  0.00     0.029 A 
ATOM     25  C   UNL d   1      45.534 -19.357  42.356  0.00  0.00     0.028 A 
ENDBRANCH  20  21
ENDBRANCH  18  20
ENDBRANCH   8  17
TORSDOF 3
ENDMDL
