MODEL 1
REMARK VINA RESULT:      -8.1      0.000      0.000
REMARK  3 active torsions:
REMARK  status: ('A' for Active; 'I' for Inactive)
REMARK    1  A    between atoms: N_3  and  S_1 
REMARK    2  A    between atoms: C_7  and  S_1 
REMARK    3  A    between atoms: C_10  and  N_3 
ROOT
ATOM      1  S   UNL d   1     -47.952  13.048  22.945  0.00  0.00     0.327 S 
ATOM      2  O   UNL d   1     -48.135  12.728  23.679  0.00  0.00    -0.186 OA
ATOM      3  O   UNL d   1     -48.545  13.166  22.389  0.00  0.00    -0.186 OA
ENDROOT
BRANCH   1   4
ATOM      4  N   UNL d   1     -48.725  12.844  23.131  0.00  0.00    -0.314 NA
BRANCH   4   5
ATOM      5  C   UNL d   1     -49.515  12.635  23.321  0.00  0.00     0.184 A 
ATOM      6  C   UNL d   1     -49.714  11.834  23.409  0.00  0.00     0.226 A 
ATOM      7  O   UNL d   1     -49.147  11.251  23.311  0.00  0.00    -0.284 OA
ATOM      8  C   UNL d   1     -50.495  11.631  23.597  0.00  0.00     0.045 A 
ATOM      9  C   UNL d   1     -51.064  12.223  23.695  0.00  0.00     0.004 A 
ATOM     10  C   UNL d   1     -50.855  13.013  23.606  0.00  0.00     0.003 A 
ATOM     11  C   UNL d   1     -50.078  13.217  23.419  0.00  0.00     0.036 A 
ENDBRANCH   4   5
ENDBRANCH   1   4
BRANCH   1  12
ATOM     12  C   UNL d   1     -47.176  13.249  22.768  0.00  0.00     0.118 A 
ATOM     13  C   UNL d   1     -46.649  12.669  22.526  0.00  0.00     0.035 A 
ATOM     14  C   UNL d   1     -45.865  12.867  22.346  0.00  0.00     0.105 A 
ATOM     15  N   UNL d   1     -45.222  12.418  22.094  0.00  0.00    -0.189 NA
ATOM     16  C   UNL d   1     -45.614  13.657  22.413  0.00  0.00     0.104 A 
ATOM     17  C   UNL d   1     -44.569  12.926  22.003  0.00  0.00     0.369 A 
ATOM     18  O   UNL d   1     -43.814  12.707  21.760  0.00  0.00    -0.242 OA
ATOM     19  N   UNL d   1     -44.818  13.689  22.201  0.00  0.00    -0.189 NA
ATOM     20  C   UNL d   1     -46.150  14.239  22.658  0.00  0.00     0.022 A 
ATOM     21  C   UNL d   1     -46.928  14.031  22.834  0.00  0.00     0.016 A 
ENDBRANCH   1  12
TORSDOF 3
ENDMDL
MODEL 2
REMARK VINA RESULT:      -7.9      1.737      2.448
REMARK  3 active torsions:
REMARK  status: ('A' for Active; 'I' for Inactive)
REMARK    1  A    between atoms: N_3  and  S_1 
REMARK    2  A    between atoms: C_7  and  S_1 
REMARK    3  A    between atoms: C_10  and  N_3 
ROOT
ATOM      1  S   UNL d   1     -47.844  12.920  23.057  0.00  0.00     0.327 S 
ATOM      2  O   UNL d   1     -48.495  13.042  23.543  0.00  0.00    -0.186 OA
ATOM      3  O   UNL d   1     -47.727  13.397  22.398  0.00  0.00    -0.186 OA
ENDROOT
BRANCH   1   4
ATOM      4  N   UNL d   1     -48.382  13.517  22.892  0.00  0.00    -0.314 NA
BRANCH   4   5
ATOM      5  C   UNL d   1     -48.931  14.128  22.722  0.00  0.00     0.184 A 
ATOM      6  C   UNL d   1     -48.668  14.916  22.693  0.00  0.00     0.226 A 
ATOM      7  O   UNL d   1     -47.881  15.096  22.827  0.00  0.00    -0.284 OA
ATOM      8  C   UNL d   1     -49.213  15.516  22.525  0.00  0.00     0.045 A 
ATOM      9  C   UNL d   1     -50.007  15.329  22.390  0.00  0.00     0.004 A 
ATOM     10  C   UNL d   1     -50.256  14.546  22.422  0.00  0.00     0.003 A 
ATOM     11  C   UNL d   1     -49.715  13.947  22.588  0.00  0.00     0.036 A 
ENDBRANCH   4   5
ENDBRANCH   1   4
BRANCH   1  12
ATOM     12  C   UNL d   1     -47.312  12.320  23.229  0.00  0.00     0.118 A 
ATOM     13  C   UNL d   1     -46.509  12.439  23.111  0.00  0.00     0.035 A 
ATOM     14  C   UNL d   1     -45.969  11.836  23.284  0.00  0.00     0.105 A 
ATOM     15  N   UNL d   1     -45.147  11.792  23.224  0.00  0.00    -0.189 NA
ATOM     16  C   UNL d   1     -46.242  11.109  23.578  0.00  0.00     0.104 A 
ATOM     17  C   UNL d   1     -44.908  11.037  23.481  0.00  0.00     0.369 A 
ATOM     18  O   UNL d   1     -44.134  10.758  23.513  0.00  0.00    -0.242 OA
ATOM     19  N   UNL d   1     -45.588  10.621  23.698  0.00  0.00    -0.189 NA
ATOM     20  C   UNL d   1     -47.054  10.992  23.696  0.00  0.00     0.022 A 
ATOM     21  C   UNL d   1     -47.583  11.599  23.521  0.00  0.00     0.016 A 
ENDBRANCH   1  12
TORSDOF 3
ENDMDL
MODEL 3
REMARK VINA RESULT:      -7.7      1.918      4.195
REMARK  3 active torsions:
REMARK  status: ('A' for Active; 'I' for Inactive)
REMARK    1  A    between atoms: N_3  and  S_1 
REMARK    2  A    between atoms: C_7  and  S_1 
REMARK    3  A    between atoms: C_10  and  N_3 
ROOT
ATOM      1  S   UNL d   1     -47.472  13.350  22.990  0.00  0.00     0.327 S 
ATOM      2  O   UNL d   1     -47.382  12.765  22.422  0.00  0.00    -0.186 OA
ATOM      3  O   UNL d   1     -47.024  13.329  23.678  0.00  0.00    -0.186 OA
ENDROOT
BRANCH   1   4
ATOM      4  N   UNL d   1     -46.936  12.740  23.102  0.00  0.00    -0.314 NA
BRANCH   4   5
ATOM      5  C   UNL d   1     -46.388  12.115  23.216  0.00  0.00     0.184 A 
ATOM      6  C   UNL d   1     -45.606  12.206  22.950  0.00  0.00     0.226 A 
ATOM      7  O   UNL d   1     -45.371  12.897  22.579  0.00  0.00    -0.284 OA
ATOM      8  C   UNL d   1     -45.067  11.588  23.064  0.00  0.00     0.045 A 
ATOM      9  C   UNL d   1     -45.309  10.891  23.438  0.00  0.00     0.004 A 
ATOM     10  C   UNL d   1     -46.085  10.813  23.698  0.00  0.00     0.003 A 
ATOM     11  C   UNL d   1     -46.623  11.427  23.585  0.00  0.00     0.036 A 
ENDBRANCH   4   5
ENDBRANCH   1   4
BRANCH   1  12
ATOM     12  C   UNL d   1     -48.011  13.957  22.870  0.00  0.00     0.118 A 
ATOM     13  C   UNL d   1     -48.739  13.938  23.247  0.00  0.00     0.035 A 
ATOM     14  C   UNL d   1     -49.286  14.549  23.129  0.00  0.00     0.105 A 
ATOM     15  N   UNL d   1     -50.045  14.681  23.424  0.00  0.00    -0.189 NA
ATOM     16  C   UNL d   1     -49.095  15.181  22.625  0.00  0.00     0.104 A 
ATOM     17  C   UNL d   1     -50.327  15.396  23.105  0.00  0.00     0.369 A 
ATOM     18  O   UNL d   1     -51.061  15.737  23.254  0.00  0.00    -0.242 OA
ATOM     19  N   UNL d   1     -49.737  15.700  22.613  0.00  0.00    -0.189 NA
ATOM     20  C   UNL d   1     -48.359  15.197  22.245  0.00  0.00     0.022 A 
ATOM     21  C   UNL d   1     -47.822  14.584  22.371  0.00  0.00     0.016 A 
ENDBRANCH   1  12
TORSDOF 3
ENDMDL
MODEL 4
REMARK VINA RESULT:      -6.4      8.752      9.246
REMARK  3 active torsions:
REMARK  status: ('A' for Active; 'I' for Inactive)
REMARK    1  A    between atoms: N_3  and  S_1 
REMARK    2  A    between atoms: C_7  and  S_1 
REMARK    3  A    between atoms: C_10  and  N_3 
ROOT
ATOM      1  S   UNL d   1     -39.852  14.960  20.035  0.00  0.00     0.327 S 
ATOM      2  O   UNL d   1     -39.107  15.266  20.193  0.00  0.00    -0.186 OA
ATOM      3  O   UNL d   1     -40.342  14.730  20.654  0.00  0.00    -0.186 OA
ENDROOT
BRANCH   1   4
ATOM      4  N   UNL d   1     -39.589  15.039  20.808  0.00  0.00    -0.314 NA
BRANCH   4   5
ATOM      5  C   UNL d   1     -39.321  15.119  21.599  0.00  0.00     0.184 A 
ATOM      6  C   UNL d   1     -39.015  14.455  21.994  0.00  0.00     0.226 A 
ATOM      7  O   UNL d   1     -38.975  13.729  21.617  0.00  0.00    -0.284 OA
ATOM      8  C   UNL d   1     -38.751  14.537  22.774  0.00  0.00     0.045 A 
ATOM      9  C   UNL d   1     -38.793  15.272  23.150  0.00  0.00     0.004 A 
ATOM     10  C   UNL d   1     -39.097  15.922  22.750  0.00  0.00     0.003 A 
ATOM     11  C   UNL d   1     -39.361  15.842  21.973  0.00  0.00     0.036 A 
ENDBRANCH   4   5
ENDBRANCH   1   4
BRANCH   1  12
ATOM     12  C   UNL d   1     -40.108  14.885  19.259  0.00  0.00     0.118 A 
ATOM     13  C   UNL d   1     -40.537  15.491  18.910  0.00  0.00     0.035 A 
ATOM     14  C   UNL d   1     -40.796  15.419  18.126  0.00  0.00     0.105 A 
ATOM     15  N   UNL d   1     -41.228  15.922  17.636  0.00  0.00    -0.189 NA
ATOM     16  C   UNL d   1     -40.620  14.731  17.695  0.00  0.00     0.104 A 
ATOM     17  C   UNL d   1     -41.322  15.548  16.898  0.00  0.00     0.369 A 
ATOM     18  O   UNL d   1     -41.719  15.855  16.246  0.00  0.00    -0.242 OA
ATOM     19  N   UNL d   1     -40.945  14.814  16.941  0.00  0.00    -0.189 NA
ATOM     20  C   UNL d   1     -40.186  14.122  18.051  0.00  0.00     0.022 A 
ATOM     21  C   UNL d   1     -39.933  14.204  18.832  0.00  0.00     0.016 A 
ENDBRANCH   1  12
TORSDOF 3
ENDMDL
