MODEL 1
REMARK VINA RESULT:      -2.4      0.000      0.000
REMARK  6 active torsions:
REMARK  status: ('A' for Active; 'I' for Inactive)
REMARK    1  A    between atoms: C_2  and  C_4 
REMARK    2  A    between atoms: C_3  and  C_2 
REMARK       I    between atoms: N_8  and  C_3 
REMARK    3  A    between atoms: C_5  and  C_9 
REMARK    4  A    between atoms: O_16  and  C_5 
REMARK    5  A    between atoms: C_15  and  N_8 
REMARK    6  A    between atoms: C_21  and  O_16 
ROOT
ATOM      1  C   UNL d   1      32.833  18.263 -23.850  0.00  0.00     0.064 A 
ATOM      2  C   UNL d   1      32.798  18.050 -23.050  0.00  0.00     0.007 A 
ATOM      3  C   UNL d   1      33.004  19.047 -24.060  0.00  0.00     0.007 A 
ATOM      4  C   UNL d   1      33.104  19.399 -22.687  0.00  0.00     0.085 A 
ATOM      5  C   UNL d   1      33.139  19.609 -23.479  0.00  0.00     0.019 A 
ATOM      6  C   UNL d   1      32.933  18.616 -22.468  0.00  0.00     0.019 A 
ENDROOT
BRANCH   4   7
ATOM      7  N   UNL d   1      33.240  19.965 -22.105  0.00  0.00    -0.208 NA
ATOM      8  C   UNL d   1      32.627  20.459 -21.855  0.00  0.00     0.281 C 
ATOM      9  O   UNL d   1      31.879  20.378 -22.194  0.00  0.00    -0.265 OA
BRANCH   8  10
ATOM     10  C   UNL d   1      32.763  21.022 -21.275  0.00  0.00     0.086 C 
BRANCH  10  11
ATOM     11  C   UNL d   1      32.575  21.818 -21.413  0.00  0.00     0.144 A 
ATOM     12  C   UNL d   1      32.163  22.246 -20.841  0.00  0.00     0.297 A 
ATOM     13  N   UNL d   1      31.971  23.036 -20.967  0.00  0.00    -0.204 NA
ATOM     14  O   UNL d   1      31.941  21.875 -20.133  0.00  0.00    -0.264 OA
ATOM     15  C   UNL d   1      32.197  23.393 -21.674  0.00  0.00     0.123 A 
ATOM     16  C   UNL d   1      32.609  22.965 -22.246  0.00  0.00     0.120 A 
ATOM     17  N   UNL d   1      32.797  22.178 -22.115  0.00  0.00    -0.237 NA
ENDBRANCH  10  11
ENDBRANCH   8  10
ENDBRANCH   4   7
BRANCH   1  18
ATOM     18  C   UNL d   1      32.696  17.692 -24.433  0.00  0.00     0.300 C 
ATOM     19  O   UNL d   1      33.227  17.606 -25.059  0.00  0.00    -0.259 OA
BRANCH  18  20
ATOM     20  O   UNL d   1      32.031  17.208 -24.393  0.00  0.00    -0.271 OA
BRANCH  20  21
ATOM     21  C   UNL d   1      31.941  16.591 -24.924  0.00  0.00     0.126 C 
ATOM     22  C   UNL d   1      31.391  16.002 -24.781  0.00  0.00     0.029 C 
ENDBRANCH  20  21
ENDBRANCH  18  20
ENDBRANCH   1  18
TORSDOF 6
ENDMDL
MODEL 2
REMARK VINA RESULT:      -2.2      1.473      2.240
REMARK  6 active torsions:
REMARK  status: ('A' for Active; 'I' for Inactive)
REMARK    1  A    between atoms: C_2  and  C_4 
REMARK    2  A    between atoms: C_3  and  C_2 
REMARK       I    between atoms: N_8  and  C_3 
REMARK    3  A    between atoms: C_5  and  C_9 
REMARK    4  A    between atoms: O_16  and  C_5 
REMARK    5  A    between atoms: C_15  and  N_8 
REMARK    6  A    between atoms: C_21  and  O_16 
ROOT
ATOM      1  C   UNL d   1      31.544  16.840 -24.333  0.00  0.00     0.064 A 
ATOM      2  C   UNL d   1      32.247  16.752 -23.902  0.00  0.00     0.007 A 
ATOM      3  C   UNL d   1      31.326  17.590 -24.614  0.00  0.00     0.007 A 
ATOM      4  C   UNL d   1      32.497  18.153 -24.040  0.00  0.00     0.085 A 
ATOM      5  C   UNL d   1      31.802  18.241 -24.467  0.00  0.00     0.019 A 
ATOM      6  C   UNL d   1      32.723  17.407 -23.755  0.00  0.00     0.019 A 
ENDROOT
BRANCH   4   7
ATOM      7  N   UNL d   1      32.974  18.808 -23.893  0.00  0.00    -0.208 NA
ATOM      8  C   UNL d   1      32.758  19.359 -23.317  0.00  0.00     0.281 C 
ATOM      9  O   UNL d   1      32.059  19.246 -22.892  0.00  0.00    -0.265 OA
BRANCH   8  10
ATOM     10  C   UNL d   1      33.234  20.010 -23.172  0.00  0.00     0.086 C 
BRANCH  10  11
ATOM     11  C   UNL d   1      33.210  20.389 -22.434  0.00  0.00     0.144 A 
ATOM     12  C   UNL d   1      33.213  21.213 -22.398  0.00  0.00     0.297 A 
ATOM     13  N   UNL d   1      33.189  21.600 -21.672  0.00  0.00    -0.204 NA
ATOM     14  O   UNL d   1      33.241  21.655 -23.100  0.00  0.00    -0.264 OA
ATOM     15  C   UNL d   1      33.162  21.151 -20.982  0.00  0.00     0.123 A 
ATOM     16  C   UNL d   1      33.159  20.327 -21.019  0.00  0.00     0.120 A 
ATOM     17  N   UNL d   1      33.182  19.948 -21.744  0.00  0.00    -0.237 NA
ENDBRANCH  10  11
ENDBRANCH   8  10
ENDBRANCH   4   7
BRANCH   1  18
ATOM     18  C   UNL d   1      31.066  16.181 -24.480  0.00  0.00     0.300 C 
ATOM     19  O   UNL d   1      31.410  15.458 -24.679  0.00  0.00    -0.259 OA
BRANCH  18  20
ATOM     20  O   UNL d   1      30.247  16.243 -24.427  0.00  0.00    -0.271 OA
BRANCH  20  21
ATOM     21  C   UNL d   1      29.790  15.567 -24.343  0.00  0.00     0.126 C 
ATOM     22  C   UNL d   1      28.985  15.595 -24.490  0.00  0.00     0.029 C 
ENDBRANCH  20  21
ENDBRANCH  18  20
ENDBRANCH   1  18
TORSDOF 6
ENDMDL
MODEL 3
REMARK VINA RESULT:      -2.1      1.490      5.172
REMARK  6 active torsions:
REMARK  status: ('A' for Active; 'I' for Inactive)
REMARK    1  A    between atoms: C_2  and  C_4 
REMARK    2  A    between atoms: C_3  and  C_2 
REMARK       I    between atoms: N_8  and  C_3 
REMARK    3  A    between atoms: C_5  and  C_9 
REMARK    4  A    between atoms: O_16  and  C_5 
REMARK    5  A    between atoms: C_15  and  N_8 
REMARK    6  A    between atoms: C_21  and  O_16 
ROOT
ATOM      1  C   UNL d   1      32.789  21.654 -21.342  0.00  0.00     0.064 A 
ATOM      2  C   UNL d   1      33.060  21.520 -22.114  0.00  0.00     0.007 A 
ATOM      3  C   UNL d   1      32.652  21.009 -20.837  0.00  0.00     0.007 A 
ATOM      4  C   UNL d   1      33.053  20.112 -21.863  0.00  0.00     0.085 A 
ATOM      5  C   UNL d   1      32.784  20.244 -21.100  0.00  0.00     0.019 A 
ATOM      6  C   UNL d   1      33.192  20.751 -22.375  0.00  0.00     0.019 A 
ENDROOT
BRANCH   4   7
ATOM      7  N   UNL d   1      33.185  19.343 -22.125  0.00  0.00    -0.208 NA
ATOM      8  C   UNL d   1      33.011  19.134 -22.905  0.00  0.00     0.281 C 
ATOM      9  O   UNL d   1      32.704  19.704 -23.417  0.00  0.00    -0.265 OA
BRANCH   8  10
ATOM     10  C   UNL d   1      33.143  18.367 -23.164  0.00  0.00     0.086 C 
BRANCH  10  11
ATOM     11  C   UNL d   1      32.524  17.927 -23.498  0.00  0.00     0.144 A 
ATOM     12  C   UNL d   1      32.517  17.106 -23.415  0.00  0.00     0.297 A 
ATOM     13  N   UNL d   1      31.908  16.658 -23.742  0.00  0.00    -0.204 NA
ATOM     14  O   UNL d   1      33.128  16.730 -22.999  0.00  0.00    -0.264 OA
ATOM     15  C   UNL d   1      31.307  17.043 -24.152  0.00  0.00     0.123 A 
ATOM     16  C   UNL d   1      31.314  17.864 -24.234  0.00  0.00     0.120 A 
ATOM     17  N   UNL d   1      31.923  18.304 -23.907  0.00  0.00    -0.237 NA
ENDBRANCH  10  11
ENDBRANCH   8  10
ENDBRANCH   4   7
BRANCH   1  18
ATOM     18  C   UNL d   1      32.657  22.427 -21.081  0.00  0.00     0.300 C 
ATOM     19  O   UNL d   1      32.745  23.060 -21.603  0.00  0.00    -0.259 OA
BRANCH  18  20
ATOM     20  O   UNL d   1      32.437  22.570 -20.301  0.00  0.00    -0.271 OA
BRANCH  20  21
ATOM     21  C   UNL d   1      32.453  23.335 -20.005  0.00  0.00     0.126 C 
ATOM     22  C   UNL d   1      32.829  23.493 -19.295  0.00  0.00     0.029 C 
ENDBRANCH  20  21
ENDBRANCH  18  20
ENDBRANCH   1  18
TORSDOF 6
ENDMDL
MODEL 4
REMARK VINA RESULT:      -1.7      1.392      5.343
REMARK  6 active torsions:
REMARK  status: ('A' for Active; 'I' for Inactive)
REMARK    1  A    between atoms: C_2  and  C_4 
REMARK    2  A    between atoms: C_3  and  C_2 
REMARK       I    between atoms: N_8  and  C_3 
REMARK    3  A    between atoms: C_5  and  C_9 
REMARK    4  A    between atoms: O_16  and  C_5 
REMARK    5  A    between atoms: C_15  and  N_8 
REMARK    6  A    between atoms: C_21  and  O_16 
ROOT
ATOM      1  C   UNL d   1      32.530  22.356 -20.884  0.00  0.00     0.064 A 
ATOM      2  C   UNL d   1      33.086  22.608 -21.445  0.00  0.00     0.007 A 
ATOM      3  C   UNL d   1      32.133  21.635 -20.993  0.00  0.00     0.007 A 
ATOM      4  C   UNL d   1      32.839  21.423 -22.207  0.00  0.00     0.085 A 
ATOM      5  C   UNL d   1      32.289  21.174 -21.653  0.00  0.00     0.019 A 
ATOM      6  C   UNL d   1      33.241  22.143 -22.106  0.00  0.00     0.019 A 
ENDROOT
BRANCH   4   7
ATOM      7  N   UNL d   1      32.995  20.959 -22.869  0.00  0.00    -0.208 NA
ATOM      8  C   UNL d   1      33.086  20.141 -22.791  0.00  0.00     0.281 C 
ATOM      9  O   UNL d   1      33.018  19.797 -22.044  0.00  0.00    -0.265 OA
BRANCH   8  10
ATOM     10  C   UNL d   1      33.241  19.680 -23.451  0.00  0.00     0.086 C 
BRANCH  10  11
ATOM     11  C   UNL d   1      32.985  18.891 -23.479  0.00  0.00     0.144 A 
ATOM     12  C   UNL d   1      32.756  18.562 -24.199  0.00  0.00     0.297 A 
ATOM     13  N   UNL d   1      32.500  17.780 -24.239  0.00  0.00    -0.204 NA
ATOM     14  O   UNL d   1      32.784  19.022 -24.888  0.00  0.00    -0.264 OA
ATOM     15  C   UNL d   1      32.476  17.333 -23.549  0.00  0.00     0.123 A 
ATOM     16  C   UNL d   1      32.705  17.663 -22.828  0.00  0.00     0.120 A 
ATOM     17  N   UNL d   1      32.959  18.441 -22.794  0.00  0.00    -0.237 NA
ENDBRANCH  10  11
ENDBRANCH   8  10
ENDBRANCH   4   7
BRANCH   1  18
ATOM     18  C   UNL d   1      32.375  22.824 -20.220  0.00  0.00     0.300 C 
ATOM     19  O   UNL d   1      31.808  23.423 -20.259  0.00  0.00    -0.259 OA
BRANCH  18  20
ATOM     20  O   UNL d   1      32.784  22.696 -19.518  0.00  0.00    -0.271 OA
BRANCH  20  21
ATOM     21  C   UNL d   1      32.867  23.306 -18.975  0.00  0.00     0.126 C 
ATOM     22  C   UNL d   1      32.838  23.147 -18.172  0.00  0.00     0.029 C 
ENDBRANCH  20  21
ENDBRANCH  18  20
ENDBRANCH   1  18
TORSDOF 6
ENDMDL
MODEL 5
REMARK VINA RESULT:      -1.2      2.368      4.252
REMARK  6 active torsions:
REMARK  status: ('A' for Active; 'I' for Inactive)
REMARK    1  A    between atoms: C_2  and  C_4 
REMARK    2  A    between atoms: C_3  and  C_2 
REMARK       I    between atoms: N_8  and  C_3 
REMARK    3  A    between atoms: C_5  and  C_9 
REMARK    4  A    between atoms: O_16  and  C_5 
REMARK    5  A    between atoms: C_15  and  N_8 
REMARK    6  A    between atoms: C_21  and  O_16 
ROOT
ATOM      1  C   UNL d   1      29.482  15.893 -24.193  0.00  0.00     0.064 A 
ATOM      2  C   UNL d   1      29.832  16.258 -24.851  0.00  0.00     0.007 A 
ATOM      3  C   UNL d   1      29.910  15.823 -23.486  0.00  0.00     0.007 A 
ATOM      4  C   UNL d   1      31.022  16.472 -24.087  0.00  0.00     0.085 A 
ATOM      5  C   UNL d   1      30.676  16.112 -23.437  0.00  0.00     0.019 A 
ATOM      6  C   UNL d   1      30.600  16.547 -24.798  0.00  0.00     0.019 A 
ENDROOT
BRANCH   4   7
ATOM      7  N   UNL d   1      31.791  16.762 -24.035  0.00  0.00    -0.208 NA
ATOM      8  C   UNL d   1      31.938  17.570 -24.127  0.00  0.00     0.281 C 
ATOM      9  O   UNL d   1      31.306  18.081 -24.270  0.00  0.00    -0.265 OA
BRANCH   8  10
ATOM     10  C   UNL d   1      32.704  17.856 -24.076  0.00  0.00     0.086 C 
BRANCH  10  11
ATOM     11  C   UNL d   1      32.874  18.509 -23.592  0.00  0.00     0.144 A 
ATOM     12  C   UNL d   1      33.070  19.232 -23.935  0.00  0.00     0.297 A 
ATOM     13  N   UNL d   1      33.241  19.886 -23.465  0.00  0.00    -0.204 NA
ATOM     14  O   UNL d   1      33.095  19.300 -24.762  0.00  0.00    -0.264 OA
ATOM     15  C   UNL d   1      33.213  19.806 -22.647  0.00  0.00     0.123 A 
ATOM     16  C   UNL d   1      33.016  19.083 -22.303  0.00  0.00     0.120 A 
ATOM     17  N   UNL d   1      32.847  18.435 -22.776  0.00  0.00    -0.237 NA
ENDBRANCH  10  11
ENDBRANCH   8  10
ENDBRANCH   4   7
BRANCH   1  18
ATOM     18  C   UNL d   1      28.709  15.603 -24.248  0.00  0.00     0.300 C 
ATOM     19  O   UNL d   1      28.372  15.460 -24.987  0.00  0.00    -0.259 OA
BRANCH  18  20
ATOM     20  O   UNL d   1      28.273  15.455 -23.565  0.00  0.00    -0.271 OA
BRANCH  20  21
ATOM     21  C   UNL d   1      27.468  15.612 -23.552  0.00  0.00     0.126 C 
ATOM     22  C   UNL d   1      27.030  15.453 -22.879  0.00  0.00     0.029 C 
ENDBRANCH  20  21
ENDBRANCH  18  20
ENDBRANCH   1  18
TORSDOF 6
ENDMDL
