MODEL 1
REMARK VINA RESULT:      59.3      0.000      0.000
REMARK  7 active torsions:
REMARK  status: ('A' for Active; 'I' for Inactive)
REMARK    1  A    between atoms: C_14  and  N_3 
REMARK    2  A    between atoms: C_10  and  C_6 
REMARK    3  A    between atoms: C_15  and  C_14 
REMARK    4  A    between atoms: C_20  and  C_15 
REMARK    5  A    between atoms: N_16  and  C_20 
REMARK    6  A    between atoms: C_23  and  N_16 
REMARK    7  A    between atoms: C_24  and  N_16 
ROOT
ATOM      1  C   UNL d   1     -54.747-100.915 -42.555  0.00  0.00     0.083 A 
ATOM      2  C   UNL d   1     -54.730-100.263 -42.068  0.00  0.00     0.161 A 
ATOM      3  N   UNL d   1     -54.743 -99.833 -43.310  0.00  0.00    -0.272 N 
ATOM      4  C   UNL d   1     -54.728 -99.594 -42.533  0.00  0.00     0.288 A 
ATOM      5  C   UNL d   1     -54.752-101.668 -42.235  0.00  0.00     0.201 A 
ATOM      6  C   UNL d   1     -54.755-100.646 -43.325  0.00  0.00     0.074 A 
ATOM      7  O   UNL d   1     -54.718-100.364 -41.252  0.00  0.00    -0.302 OA
ATOM      8  C   UNL d   1     -54.740-101.765 -41.416  0.00  0.00     0.062 A 
ATOM      9  C   UNL d   1     -54.724-101.113 -40.929  0.00  0.00     0.103 A 
ATOM     10  O   UNL d   1     -54.712 -98.814 -42.262  0.00  0.00    -0.264 OA
ATOM     11  O   UNL d   1     -54.770-102.338 -42.735  0.00  0.00    -0.286 OA
ATOM     12  C   UNL d   1     -54.746-102.517 -41.096  0.00  0.00     0.005 A 
ATOM     13  C   UNL d   1     -54.712-101.209 -40.120  0.00  0.00     0.025 A 
ATOM     14  C   UNL d   1     -54.734-102.609 -40.284  0.00  0.00     0.000 A 
ATOM     15  C   UNL d   1     -54.717-101.957 -39.797  0.00  0.00     0.002 A 
ENDROOT
BRANCH   3  16
ATOM     16  C   UNL d   1     -54.747 -99.337 -43.974  0.00  0.00     0.085 C 
BRANCH  16  17
ATOM     17  C   UNL d   1     -55.373 -98.793 -44.090  0.00  0.00     0.038 C 
BRANCH  17  18
ATOM     18  C   UNL d   1     -55.903 -98.896 -44.717  0.00  0.00     0.082 C 
BRANCH  18  19
ATOM     19  N   UNL d   1     -56.690 -99.114 -44.566  0.00  0.00    -0.302 N 
BRANCH  19  20
ATOM     20  C   UNL d   1     -57.186 -99.340 -45.194  0.00  0.00     0.080 C 
ATOM     21  C   UNL d   1     -57.653 -98.770 -45.582  0.00  0.00     0.021 C 
ENDBRANCH  19  20
BRANCH  19  22
ATOM     22  C   UNL d   1     -56.982 -99.107 -43.786  0.00  0.00     0.080 C 
ATOM     23  C   UNL d   1     -57.753 -98.833 -43.629  0.00  0.00     0.021 C 
ENDBRANCH  19  22
ENDBRANCH  18  19
ENDBRANCH  17  18
ENDBRANCH  16  17
ENDBRANCH   3  16
BRANCH   6  24
ATOM     24  C   UNL d   1     -54.773-101.127 -44.005  0.00  0.00     0.036 A 
ATOM     25  C   UNL d   1     -54.850-101.952 -43.929  0.00  0.00     0.100 A 
ATOM     26  N   UNL d   1     -54.868-102.431 -44.605  0.00  0.00    -0.242 NA
ATOM     27  C   UNL d   1     -54.808-102.087 -45.364  0.00  0.00     0.099 A 
ATOM     28  C   UNL d   1     -54.730-101.260 -45.436  0.00  0.00     0.021 A 
ATOM     29  C   UNL d   1     -54.713-100.781 -44.760  0.00  0.00     0.005 A 
ENDBRANCH   6  24
TORSDOF 7
ENDMDL
