MODEL 1
REMARK VINA RESULT:      -6.1      0.000      0.000
REMARK  5 active torsions:
REMARK  status: ('A' for Active; 'I' for Inactive)
REMARK    1  A    between atoms: N_6  and  C_1 
REMARK    2  A    between atoms: S_10  and  C_4 
REMARK       I    between atoms: C_7  and  N_6 
REMARK       I    between atoms: N_8  and  C_7 
REMARK    3  A    between atoms: C_11  and  N_8 
REMARK    4  A    between atoms: C_17  and  S_10 
REMARK    5  A    between atoms: C_19  and  C_17 
ROOT
ATOM      1  N   UNL d   1     -41.917-122.439 -51.357  0.00  0.00    -0.321 NA
ATOM      2  C   UNL d   1     -41.570-122.241 -51.941  0.00  0.00     0.422 C 
ATOM      3  N   UNL d   1     -41.123-121.988 -52.650  0.00  0.00    -0.180 NA
ATOM      4  O   UNL d   1     -42.091-122.471 -52.349  0.00  0.00    -0.228 OA
ENDROOT
BRANCH   1   5
ATOM      5  C   UNL d   1     -42.202-122.618 -50.553  0.00  0.00     0.271 A 
ATOM      6  S   UNL d   1     -42.015-123.049 -50.025  0.00  0.00    -0.006 SA
ATOM      7  C   UNL d   1     -42.397-123.042 -49.423  0.00  0.00     0.166 A 
ATOM      8  N   UNL d   1     -42.954-122.611 -49.358  0.00  0.00    -0.132 NA
ATOM      9  N   UNL d   1     -42.759-122.187 -50.488  0.00  0.00    -0.107 NA
BRANCH   7  10
ATOM     10  S   UNL d   1     -42.315-123.427 -48.815  0.00  0.00    -0.059 SA
BRANCH  10  11
ATOM     11  C   UNL d   1     -42.299-123.046 -48.087  0.00  0.00     0.037 C 
BRANCH  11  12
ATOM     12  C   UNL d   1     -42.109-123.468 -47.409  0.00  0.00     0.007 C 
ATOM     13  C   UNL d   1     -42.106-123.100 -46.676  0.00  0.00     0.001 C 
ENDBRANCH  11  12
ENDBRANCH  10  11
ENDBRANCH   7  10
ENDBRANCH   1   5
BRANCH   3  14
ATOM     14  C   UNL d   1     -41.451-122.107 -53.404  0.00  0.00     0.087 A 
ATOM     15  C   UNL d   1     -41.268-122.795 -53.824  0.00  0.00     0.019 A 
ATOM     16  C   UNL d   1     -41.592-122.916 -54.573  0.00  0.00     0.002 A 
ATOM     17  C   UNL d   1     -42.099-122.342 -54.894  0.00  0.00     0.000 A 
ATOM     18  C   UNL d   1     -42.279-121.656 -54.470  0.00  0.00     0.002 A 
ATOM     19  C   UNL d   1     -42.423-122.463 -55.643  0.00  0.00     0.000 C 
ATOM     20  C   UNL d   1     -41.951-121.538 -53.715  0.00  0.00     0.019 A 
ENDBRANCH   3  14
TORSDOF 5
ENDMDL
MODEL 2
REMARK VINA RESULT:      -5.5      1.634      5.265
REMARK  5 active torsions:
REMARK  status: ('A' for Active; 'I' for Inactive)
REMARK    1  A    between atoms: N_6  and  C_1 
REMARK    2  A    between atoms: S_10  and  C_4 
REMARK       I    between atoms: C_7  and  N_6 
REMARK       I    between atoms: N_8  and  C_7 
REMARK    3  A    between atoms: C_11  and  N_8 
REMARK    4  A    between atoms: C_17  and  S_10 
REMARK    5  A    between atoms: C_19  and  C_17 
ROOT
ATOM      1  N   UNL d   1     -41.494-122.943 -51.790  0.00  0.00    -0.321 NA
ATOM      2  C   UNL d   1     -41.432-122.706 -51.126  0.00  0.00     0.422 C 
ATOM      3  N   UNL d   1     -41.339-122.396 -50.313  0.00  0.00    -0.180 NA
ATOM      4  O   UNL d   1     -41.875-123.194 -50.891  0.00  0.00    -0.228 OA
ENDROOT
BRANCH   1   5
ATOM      5  C   UNL d   1     -41.458-123.105 -52.645  0.00  0.00     0.271 A 
ATOM      6  S   UNL d   1     -41.433-122.724 -53.240  0.00  0.00    -0.006 SA
ATOM      7  C   UNL d   1     -41.406-123.065 -53.866  0.00  0.00     0.166 A 
ATOM      8  N   UNL d   1     -41.403-123.773 -53.889  0.00  0.00    -0.132 NA
ATOM      9  N   UNL d   1     -41.455-123.812 -52.667  0.00  0.00    -0.107 NA
BRANCH   7  10
ATOM     10  S   UNL d   1     -41.378-122.801 -54.539  0.00  0.00    -0.059 SA
BRANCH  10  11
ATOM     11  C   UNL d   1     -41.988-122.326 -54.820  0.00  0.00     0.037 C 
BRANCH  11  12
ATOM     12  C   UNL d   1     -41.896-121.918 -55.526  0.00  0.00     0.007 C 
ATOM     13  C   UNL d   1     -42.516-121.865 -56.060  0.00  0.00     0.001 C 
ENDBRANCH  11  12
ENDBRANCH  10  11
ENDBRANCH   7  10
ENDBRANCH   1   5
BRANCH   3  14
ATOM     14  C   UNL d   1     -41.754-122.754 -49.688  0.00  0.00     0.087 A 
ATOM     15  C   UNL d   1     -42.554-122.581 -49.579  0.00  0.00     0.019 A 
ATOM     16  C   UNL d   1     -42.969-122.936 -48.960  0.00  0.00     0.002 A 
ATOM     17  C   UNL d   1     -42.573-123.463 -48.454  0.00  0.00     0.000 A 
ATOM     18  C   UNL d   1     -41.773-123.632 -48.568  0.00  0.00     0.002 A 
ATOM     19  C   UNL d   1     -42.988-123.817 -47.836  0.00  0.00     0.000 C 
ATOM     20  C   UNL d   1     -41.358-123.273 -49.194  0.00  0.00     0.019 A 
ENDBRANCH   3  14
TORSDOF 5
ENDMDL
