MODEL 1
REMARK VINA RESULT:      -6.9      0.000      0.000
REMARK  6 active torsions:
REMARK  status: ('A' for Active; 'I' for Inactive)
REMARK    1  A    between atoms: S_11  and  C_2 
REMARK    2  A    between atoms: C_5  and  N_8 
REMARK       I    between atoms: N_8  and  C_13 
REMARK    3  A    between atoms: C_17  and  C_10 
REMARK    4  A    between atoms: C_16  and  S_11 
REMARK    5  A    between atoms: C_13  and  C_16 
REMARK    6  A    between atoms: C_18  and  C_17 
ROOT
ATOM      1  C   UNL d   1     -48.746  11.712  22.980  0.00  0.00     0.197 A 
ATOM      2  N   UNL d   1     -49.264  11.364  23.522  0.00  0.00    -0.219 NA
ATOM      3  S   UNL d   1     -49.186  12.259  22.540  0.00  0.00    -0.047 SA
ATOM      4  C   UNL d   1     -49.959  12.247  22.806  0.00  0.00     0.051 A 
ATOM      5  C   UNL d   1     -50.007  11.692  23.415  0.00  0.00     0.108 A 
ENDROOT
BRANCH   1   6
ATOM      6  N   UNL d   1     -47.946  11.548  22.893  0.00  0.00    -0.182 NA
ATOM      7  C   UNL d   1     -47.382  12.043  23.238  0.00  0.00     0.288 C 
ATOM      8  O   UNL d   1     -47.626  12.705  23.673  0.00  0.00    -0.265 OA
BRANCH   7   9
ATOM      9  C   UNL d   1     -46.578  11.885  23.154  0.00  0.00     0.101 C 
BRANCH   9  10
ATOM     10  S   UNL d   1     -46.043  12.498  23.077  0.00  0.00    -0.041 SA
BRANCH  10  11
ATOM     11  C   UNL d   1     -45.274  12.347  22.805  0.00  0.00     0.219 A 
ATOM     12  N   UNL d   1     -44.862  12.799  22.255  0.00  0.00    -0.167 N 
ATOM     13  C   UNL d   1     -44.127  12.456  22.146  0.00  0.00     0.189 A 
ATOM     14  N   UNL d   1     -45.141  13.480  21.881  0.00  0.00    -0.038 N 
ATOM     15  N   UNL d   1     -44.082  11.785  22.630  0.00  0.00    -0.126 NA
ATOM     16  C   UNL d   1     -43.529  12.726  21.640  0.00  0.00     0.044 C 
ATOM     17  N   UNL d   1     -44.792  11.722  23.034  0.00  0.00    -0.120 NA
ENDBRANCH  10  11
ENDBRANCH   9  10
ENDBRANCH   7   9
ENDBRANCH   1   6
BRANCH   4  18
ATOM     18  C   UNL d   1     -50.578  12.708  22.515  0.00  0.00     0.008 C 
BRANCH  18  19
ATOM     19  C   UNL d   1     -50.640  13.497  22.743  0.00  0.00     0.001 A 
ATOM     20  C   UNL d   1     -50.357  14.094  22.247  0.00  0.00     0.002 A 
ATOM     21  C   UNL d   1     -50.418  14.883  22.475  0.00  0.00     0.030 A 
ATOM     22  C   UNL d   1     -50.765  15.079  23.202  0.00  0.00     0.140 A 
ATOM     23  C   UNL d   1     -51.048  14.486  23.697  0.00  0.00     0.030 A 
ATOM     24  F   UNL d   1     -50.825  15.866  23.426  0.00  0.00    -0.204 F 
ATOM     25  C   UNL d   1     -50.987  13.693  23.470  0.00  0.00     0.002 A 
ENDBRANCH  18  19
ENDBRANCH   4  18
TORSDOF 6
ENDMDL
MODEL 2
REMARK VINA RESULT:      -5.7      1.061      1.331
REMARK  6 active torsions:
REMARK  status: ('A' for Active; 'I' for Inactive)
REMARK    1  A    between atoms: S_11  and  C_2 
REMARK    2  A    between atoms: C_5  and  N_8 
REMARK       I    between atoms: N_8  and  C_13 
REMARK    3  A    between atoms: C_17  and  C_10 
REMARK    4  A    between atoms: C_16  and  S_11 
REMARK    5  A    between atoms: C_13  and  C_16 
REMARK    6  A    between atoms: C_18  and  C_17 
ROOT
ATOM      1  C   UNL d   1     -47.769  12.038  23.569  0.00  0.00     0.197 A 
ATOM      2  N   UNL d   1     -48.213  11.355  23.431  0.00  0.00    -0.219 NA
ATOM      3  S   UNL d   1     -48.306  12.658  23.686  0.00  0.00    -0.047 SA
ATOM      4  C   UNL d   1     -49.066  12.362  23.620  0.00  0.00     0.051 A 
ATOM      5  C   UNL d   1     -49.007  11.553  23.462  0.00  0.00     0.108 A 
ENDROOT
BRANCH   1   6
ATOM      6  N   UNL d   1     -46.950  12.095  23.588  0.00  0.00    -0.182 NA
ATOM      7  C   UNL d   1     -46.537  12.352  22.922  0.00  0.00     0.288 C 
ATOM      8  O   UNL d   1     -46.951  12.555  22.233  0.00  0.00    -0.265 OA
BRANCH   7   9
ATOM      9  C   UNL d   1     -45.715  12.412  22.934  0.00  0.00     0.101 C 
BRANCH   9  10
ATOM     10  S   UNL d   1     -45.312  12.691  22.280  0.00  0.00    -0.041 SA
BRANCH  10  11
ATOM     11  C   UNL d   1     -44.518  12.483  22.160  0.00  0.00     0.219 A 
ATOM     12  N   UNL d   1     -43.958  12.933  21.760  0.00  0.00    -0.167 N 
ATOM     13  C   UNL d   1     -43.250  12.523  21.772  0.00  0.00     0.189 A 
ATOM     14  N   UNL d   1     -44.089  13.669  21.409  0.00  0.00    -0.038 N 
ATOM     15  N   UNL d   1     -43.370  11.813  22.182  0.00  0.00    -0.126 NA
ATOM     16  C   UNL d   1     -42.534  12.770  21.434  0.00  0.00     0.044 C 
ATOM     17  N   UNL d   1     -44.154  11.793  22.419  0.00  0.00    -0.120 NA
ENDBRANCH  10  11
ENDBRANCH   9  10
ENDBRANCH   7   9
ENDBRANCH   1   6
BRANCH   4  18
ATOM     18  C   UNL d   1     -49.763  12.795  23.698  0.00  0.00     0.008 C 
BRANCH  18  19
ATOM     19  C   UNL d   1     -50.088  13.165  23.039  0.00  0.00     0.001 A 
ATOM     20  C   UNL d   1     -49.936  13.965  22.896  0.00  0.00     0.002 A 
ATOM     21  C   UNL d   1     -50.261  14.335  22.237  0.00  0.00     0.030 A 
ATOM     22  C   UNL d   1     -50.742  13.906  21.716  0.00  0.00     0.140 A 
ATOM     23  C   UNL d   1     -50.895  13.110  21.856  0.00  0.00     0.030 A 
ATOM     24  F   UNL d   1     -51.064  14.279  21.059  0.00  0.00    -0.204 F 
ATOM     25  C   UNL d   1     -50.569  12.736  22.517  0.00  0.00     0.002 A 
ENDBRANCH  18  19
ENDBRANCH   4  18
TORSDOF 6
ENDMDL
MODEL 3
REMARK VINA RESULT:      -5.3      2.784      4.323
REMARK  6 active torsions:
REMARK  status: ('A' for Active; 'I' for Inactive)
REMARK    1  A    between atoms: S_11  and  C_2 
REMARK    2  A    between atoms: C_5  and  N_8 
REMARK       I    between atoms: N_8  and  C_13 
REMARK    3  A    between atoms: C_17  and  C_10 
REMARK    4  A    between atoms: C_16  and  S_11 
REMARK    5  A    between atoms: C_13  and  C_16 
REMARK    6  A    between atoms: C_18  and  C_17 
ROOT
ATOM      1  C   UNL d   1     -44.733  12.926  22.019  0.00  0.00     0.197 A 
ATOM      2  N   UNL d   1     -44.724  12.220  22.449  0.00  0.00    -0.219 NA
ATOM      3  S   UNL d   1     -45.421  13.334  22.234  0.00  0.00    -0.047 SA
ATOM      4  C   UNL d   1     -45.828  12.887  22.786  0.00  0.00     0.051 A 
ATOM      5  C   UNL d   1     -45.395  12.197  22.918  0.00  0.00     0.108 A 
ENDROOT
BRANCH   1   6
ATOM      6  N   UNL d   1     -44.167  13.179  21.479  0.00  0.00    -0.182 NA
ATOM      7  C   UNL d   1     -43.417  12.835  21.475  0.00  0.00     0.288 C 
ATOM      8  O   UNL d   1     -43.235  12.234  22.017  0.00  0.00    -0.265 OA
BRANCH   7   9
ATOM      9  C   UNL d   1     -42.844  13.082  20.937  0.00  0.00     0.101 C 
BRANCH   9  10
ATOM     10  S   UNL d   1     -42.163  13.449  21.199  0.00  0.00    -0.041 SA
BRANCH  10  11
ATOM     11  C   UNL d   1     -41.618  13.754  20.653  0.00  0.00     0.219 A 
ATOM     12  N   UNL d   1     -40.959  14.211  20.835  0.00  0.00    -0.167 N 
ATOM     13  C   UNL d   1     -40.576  14.393  20.135  0.00  0.00     0.189 A 
ATOM     14  N   UNL d   1     -40.726  14.445  21.592  0.00  0.00    -0.038 N 
ATOM     15  N   UNL d   1     -41.000  14.046  19.513  0.00  0.00    -0.126 NA
ATOM     16  C   UNL d   1     -39.886  14.844  20.055  0.00  0.00     0.044 C 
ATOM     17  N   UNL d   1     -41.641  13.654  19.837  0.00  0.00    -0.120 NA
ENDBRANCH  10  11
ENDBRANCH   9  10
ENDBRANCH   7   9
ENDBRANCH   1   6
BRANCH   4  18
ATOM     18  C   UNL d   1     -46.542  13.092  23.144  0.00  0.00     0.008 C 
BRANCH  18  19
ATOM     19  C   UNL d   1     -47.233  12.703  22.925  0.00  0.00     0.001 A 
ATOM     20  C   UNL d   1     -47.484  12.038  23.348  0.00  0.00     0.002 A 
ATOM     21  C   UNL d   1     -48.175  11.649  23.130  0.00  0.00     0.030 A 
ATOM     22  C   UNL d   1     -48.621  11.922  22.486  0.00  0.00     0.140 A 
ATOM     23  C   UNL d   1     -48.373  12.584  22.065  0.00  0.00     0.030 A 
ATOM     24  F   UNL d   1     -49.310  11.532  22.271  0.00  0.00    -0.204 F 
ATOM     25  C   UNL d   1     -47.678  12.977  22.282  0.00  0.00     0.002 A 
ENDBRANCH  18  19
ENDBRANCH   4  18
TORSDOF 6
ENDMDL
MODEL 4
REMARK VINA RESULT:      -4.4      4.436      8.185
REMARK  6 active torsions:
REMARK  status: ('A' for Active; 'I' for Inactive)
REMARK    1  A    between atoms: S_11  and  C_2 
REMARK    2  A    between atoms: C_5  and  N_8 
REMARK       I    between atoms: N_8  and  C_13 
REMARK    3  A    between atoms: C_17  and  C_10 
REMARK    4  A    between atoms: C_16  and  S_11 
REMARK    5  A    between atoms: C_13  and  C_16 
REMARK    6  A    between atoms: C_18  and  C_17 
ROOT
ATOM      1  C   UNL d   1     -41.532  14.122  21.077  0.00  0.00     0.197 A 
ATOM      2  N   UNL d   1     -41.585  14.943  20.992  0.00  0.00    -0.219 NA
ATOM      3  S   UNL d   1     -40.878  13.873  20.636  0.00  0.00    -0.047 SA
ATOM      4  C   UNL d   1     -40.534  14.527  20.285  0.00  0.00     0.051 A 
ATOM      5  C   UNL d   1     -40.974  15.190  20.506  0.00  0.00     0.108 A 
ENDROOT
BRANCH   1   6
ATOM      6  N   UNL d   1     -42.034  13.642  21.517  0.00  0.00    -0.182 NA
ATOM      7  C   UNL d   1     -42.642  13.228  21.144  0.00  0.00     0.288 C 
ATOM      8  O   UNL d   1     -42.746  13.296  20.324  0.00  0.00    -0.265 OA
BRANCH   7   9
ATOM      9  C   UNL d   1     -43.149  12.744  21.578  0.00  0.00     0.101 C 
BRANCH   9  10
ATOM     10  S   UNL d   1     -43.955  12.875  21.566  0.00  0.00    -0.041 SA
BRANCH  10  11
ATOM     11  C   UNL d   1     -44.444  12.512  22.129  0.00  0.00     0.219 A 
ATOM     12  N   UNL d   1     -45.208  12.746  22.325  0.00  0.00    -0.167 N 
ATOM     13  C   UNL d   1     -45.487  12.238  22.902  0.00  0.00     0.189 A 
ATOM     14  N   UNL d   1     -45.619  13.381  21.995  0.00  0.00    -0.038 N 
ATOM     15  N   UNL d   1     -44.893  11.685  23.068  0.00  0.00    -0.126 NA
ATOM     16  C   UNL d   1     -46.233  12.267  23.263  0.00  0.00     0.044 C 
ATOM     17  N   UNL d   1     -44.252  11.857  22.588  0.00  0.00    -0.120 NA
ENDBRANCH  10  11
ENDBRANCH   9  10
ENDBRANCH   7   9
ENDBRANCH   1   6
BRANCH   4  18
ATOM     18  C   UNL d   1     -39.869  14.522  19.798  0.00  0.00     0.008 C 
BRANCH  18  19
ATOM     19  C   UNL d   1     -39.956  14.641  18.989  0.00  0.00     0.001 A 
ATOM     20  C   UNL d   1     -39.983  15.409  18.683  0.00  0.00     0.002 A 
ATOM     21  C   UNL d   1     -40.070  15.528  17.874  0.00  0.00     0.030 A 
ATOM     22  C   UNL d   1     -40.130  14.878  17.363  0.00  0.00     0.140 A 
ATOM     23  C   UNL d   1     -40.103  14.113  17.664  0.00  0.00     0.030 A 
ATOM     24  F   UNL d   1     -40.217  15.000  16.556  0.00  0.00    -0.204 F 
ATOM     25  C   UNL d   1     -40.015  13.991  18.478  0.00  0.00     0.002 A 
ENDBRANCH  18  19
ENDBRANCH   4  18
TORSDOF 6
ENDMDL
MODEL 5
REMARK VINA RESULT:      -4.3      3.344      7.047
REMARK  6 active torsions:
REMARK  status: ('A' for Active; 'I' for Inactive)
REMARK    1  A    between atoms: S_11  and  C_2 
REMARK    2  A    between atoms: C_5  and  N_8 
REMARK       I    between atoms: N_8  and  C_13 
REMARK    3  A    between atoms: C_17  and  C_10 
REMARK    4  A    between atoms: C_16  and  S_11 
REMARK    5  A    between atoms: C_13  and  C_16 
REMARK    6  A    between atoms: C_18  and  C_17 
ROOT
ATOM      1  C   UNL d   1     -43.213  12.816  21.440  0.00  0.00     0.197 A 
ATOM      2  N   UNL d   1     -43.171  12.922  20.621  0.00  0.00    -0.219 NA
ATOM      3  S   UNL d   1     -42.521  13.138  21.763  0.00  0.00    -0.047 SA
ATOM      4  C   UNL d   1     -42.063  13.436  21.154  0.00  0.00     0.051 A 
ATOM      5  C   UNL d   1     -42.467  13.302  20.447  0.00  0.00     0.108 A 
ENDROOT
BRANCH   1   6
ATOM      6  N   UNL d   1     -43.824  12.460  21.858  0.00  0.00    -0.182 NA
ATOM      7  C   UNL d   1     -44.497  12.893  22.058  0.00  0.00     0.288 C 
ATOM      8  O   UNL d   1     -44.556  13.690  21.836  0.00  0.00    -0.265 OA
BRANCH   7   9
ATOM      9  C   UNL d   1     -45.114  12.542  22.476  0.00  0.00     0.101 C 
BRANCH   9  10
ATOM     10  S   UNL d   1     -45.832  12.925  22.552  0.00  0.00    -0.041 SA
BRANCH  10  11
ATOM     11  C   UNL d   1     -46.470  12.543  22.918  0.00  0.00     0.219 A 
ATOM     12  N   UNL d   1     -47.266  12.689  22.772  0.00  0.00    -0.167 N 
ATOM     13  C   UNL d   1     -47.706  12.192  23.250  0.00  0.00     0.189 A 
ATOM     14  N   UNL d   1     -47.566  13.240  22.235  0.00  0.00    -0.038 N 
ATOM     15  N   UNL d   1     -47.181  11.734  23.698  0.00  0.00    -0.126 NA
ATOM     16  C   UNL d   1     -48.533  12.150  23.286  0.00  0.00     0.044 C 
ATOM     17  N   UNL d   1     -46.420  11.954  23.490  0.00  0.00    -0.120 NA
ENDBRANCH  10  11
ENDBRANCH   9  10
ENDBRANCH   7   9
ENDBRANCH   1   6
BRANCH   4  18
ATOM     18  C   UNL d   1     -41.330  13.805  21.235  0.00  0.00     0.008 C 
BRANCH  18  19
ATOM     19  C   UNL d   1     -41.073  14.333  20.659  0.00  0.00     0.001 A 
ATOM     20  C   UNL d   1     -40.668  14.055  19.994  0.00  0.00     0.002 A 
ATOM     21  C   UNL d   1     -40.411  14.583  19.417  0.00  0.00     0.030 A 
ATOM     22  C   UNL d   1     -40.559  15.394  19.502  0.00  0.00     0.140 A 
ATOM     23  C   UNL d   1     -40.963  15.673  20.163  0.00  0.00     0.030 A 
ATOM     24  F   UNL d   1     -40.302  15.918  18.925  0.00  0.00    -0.204 F 
ATOM     25  C   UNL d   1     -41.221  15.144  20.744  0.00  0.00     0.002 A 
ENDBRANCH  18  19
ENDBRANCH   4  18
TORSDOF 6
ENDMDL
