MODEL 1
REMARK VINA RESULT:      -6.9      0.000      0.000
REMARK  1 active torsions:
REMARK  status: ('A' for Active; 'I' for Inactive)
REMARK    1  A    between atoms: C_11  and  C_4 
ROOT
ATOM      1  O   UNL d   1     -45.930  12.547  23.283  0.00  0.00    -0.304 OA
ATOM      2  C   UNL d   1     -47.229  12.844  23.142  0.00  0.00     0.025 A 
ATOM      3  C   UNL d   1     -47.166  12.051  23.379  0.00  0.00     0.030 A 
ATOM      4  C   UNL d   1     -46.366  11.867  23.466  0.00  0.00     0.142 A 
ATOM      5  C   UNL d   1     -46.461  13.142  23.085  0.00  0.00     0.100 A 
ATOM      6  C   UNL d   1     -47.874  13.314  22.976  0.00  0.00     0.009 A 
ATOM      7  C   UNL d   1     -46.343  13.925  22.859  0.00  0.00     0.025 A 
ATOM      8  C   UNL d   1     -47.766  14.104  22.747  0.00  0.00     0.035 A 
ATOM      9  C   UNL d   1     -46.996  14.409  22.688  0.00  0.00     0.009 A 
ATOM     10 BR   UNL d   1     -48.412  14.585  22.578  0.00  0.00    -0.049 Br
ENDROOT
BRANCH   4  11
ATOM     11  C   UNL d   1     -46.056  11.139  23.695  0.00  0.00     0.259 C 
ATOM     12  O   UNL d   1     -45.247  11.022  23.698  0.00  0.00    -0.281 OA
ENDBRANCH   4  11
TORSDOF 1
ENDMDL
MODEL 2
REMARK VINA RESULT:      -6.5      1.281      2.195
REMARK  1 active torsions:
REMARK  status: ('A' for Active; 'I' for Inactive)
REMARK    1  A    between atoms: C_11  and  C_4 
ROOT
ATOM      1  O   UNL d   1     -46.409  12.543  23.225  0.00  0.00    -0.304 OA
ATOM      2  C   UNL d   1     -47.699  12.792  22.963  0.00  0.00     0.025 A 
ATOM      3  C   UNL d   1     -47.243  13.409  22.645  0.00  0.00     0.030 A 
ATOM      4  C   UNL d   1     -46.449  13.256  22.806  0.00  0.00     0.142 A 
ATOM      5  C   UNL d   1     -47.175  12.262  23.319  0.00  0.00     0.100 A 
ATOM      6  C   UNL d   1     -48.502  12.655  22.970  0.00  0.00     0.009 A 
ATOM      7  C   UNL d   1     -47.466  11.585  23.687  0.00  0.00     0.025 A 
ATOM      8  C   UNL d   1     -48.806  11.976  23.338  0.00  0.00     0.035 A 
ATOM      9  C   UNL d   1     -48.284  11.441  23.697  0.00  0.00     0.009 A 
ATOM     10 BR   UNL d   1     -49.616  11.831  23.350  0.00  0.00    -0.049 Br
ENDROOT
BRANCH   4  11
ATOM     11  C   UNL d   1     -45.809  13.728  22.589  0.00  0.00     0.259 C 
ATOM     12  O   UNL d   1     -45.171  13.398  22.200  0.00  0.00    -0.281 OA
ENDBRANCH   4  11
TORSDOF 1
ENDMDL
MODEL 3
REMARK VINA RESULT:      -6.4      1.964      3.065
REMARK  1 active torsions:
REMARK  status: ('A' for Active; 'I' for Inactive)
REMARK    1  A    between atoms: C_11  and  C_4 
ROOT
ATOM      1  O   UNL d   1     -47.556  14.718  22.665  0.00  0.00    -0.304 OA
ATOM      2  C   UNL d   1     -47.885  13.471  23.030  0.00  0.00     0.025 A 
ATOM      3  C   UNL d   1     -48.584  13.892  22.877  0.00  0.00     0.030 A 
ATOM      4  C   UNL d   1     -48.382  14.660  22.652  0.00  0.00     0.142 A 
ATOM      5  C   UNL d   1     -47.255  13.989  22.897  0.00  0.00     0.100 A 
ATOM      6  C   UNL d   1     -47.752  12.703  23.267  0.00  0.00     0.009 A 
ATOM      7  C   UNL d   1     -46.482  13.728  23.005  0.00  0.00     0.025 A 
ATOM      8  C   UNL d   1     -46.976  12.430  23.379  0.00  0.00     0.035 A 
ATOM      9  C   UNL d   1     -46.340  12.946  23.246  0.00  0.00     0.009 A 
ATOM     10 BR   UNL d   1     -46.834  11.656  23.618  0.00  0.00    -0.049 Br
ENDROOT
BRANCH   4  11
ATOM     11  C   UNL d   1     -48.907  15.262  22.450  0.00  0.00     0.259 C 
ATOM     12  O   UNL d   1     -49.371  15.610  23.026  0.00  0.00    -0.281 OA
ENDBRANCH   4  11
TORSDOF 1
ENDMDL
MODEL 4
REMARK VINA RESULT:      -6.4      1.511      2.299
REMARK  1 active torsions:
REMARK  status: ('A' for Active; 'I' for Inactive)
REMARK    1  A    between atoms: C_11  and  C_4 
ROOT
ATOM      1  O   UNL d   1     -47.392  12.933  22.179  0.00  0.00    -0.304 OA
ATOM      2  C   UNL d   1     -48.411  13.777  22.390  0.00  0.00     0.025 A 
ATOM      3  C   UNL d   1     -47.749  14.057  22.805  0.00  0.00     0.030 A 
ATOM      4  C   UNL d   1     -47.121  13.537  22.675  0.00  0.00     0.142 A 
ATOM      5  C   UNL d   1     -48.182  13.083  22.006  0.00  0.00     0.100 A 
ATOM      6  C   UNL d   1     -49.171  14.063  22.319  0.00  0.00     0.009 A 
ATOM      7  C   UNL d   1     -48.727  12.672  21.545  0.00  0.00     0.025 A 
ATOM      8  C   UNL d   1     -49.727  13.658  21.856  0.00  0.00     0.035 A 
ATOM      9  C   UNL d   1     -49.502  12.960  21.469  0.00  0.00     0.009 A 
ATOM     10 BR   UNL d   1     -50.496  13.940  21.780  0.00  0.00    -0.049 Br
ENDROOT
BRANCH   4  11
ATOM     11  C   UNL d   1     -46.360  13.607  22.984  0.00  0.00     0.259 C 
ATOM     12  O   UNL d   1     -46.175  13.256  23.698  0.00  0.00    -0.281 OA
ENDBRANCH   4  11
TORSDOF 1
ENDMDL
MODEL 5
REMARK VINA RESULT:      -6.3      1.993      2.607
REMARK  1 active torsions:
REMARK  status: ('A' for Active; 'I' for Inactive)
REMARK    1  A    between atoms: C_11  and  C_4 
ROOT
ATOM      1  O   UNL d   1     -48.578  11.646  23.592  0.00  0.00    -0.304 OA
ATOM      2  C   UNL d   1     -48.137  12.789  23.049  0.00  0.00     0.025 A 
ATOM      3  C   UNL d   1     -48.960  12.749  22.944  0.00  0.00     0.030 A 
ATOM      4  C   UNL d   1     -49.231  12.045  23.278  0.00  0.00     0.142 A 
ATOM      5  C   UNL d   1     -47.910  12.103  23.450  0.00  0.00     0.100 A 
ATOM      6  C   UNL d   1     -47.586  13.350  22.834  0.00  0.00     0.009 A 
ATOM      7  C   UNL d   1     -47.117  11.983  23.636  0.00  0.00     0.025 A 
ATOM      8  C   UNL d   1     -46.785  13.238  23.017  0.00  0.00     0.035 A 
ATOM      9  C   UNL d   1     -46.551  12.551  23.419  0.00  0.00     0.009 A 
ATOM     10 BR   UNL d   1     -46.223  13.800  22.803  0.00  0.00    -0.049 Br
ENDROOT
BRANCH   4  11
ATOM     11  C   UNL d   1     -50.013  11.785  23.297  0.00  0.00     0.259 C 
ATOM     12  O   UNL d   1     -50.206  11.099  23.696  0.00  0.00    -0.281 OA
ENDBRANCH   4  11
TORSDOF 1
ENDMDL
MODEL 6
REMARK VINA RESULT:      -6.3      2.177      3.415
REMARK  1 active torsions:
REMARK  status: ('A' for Active; 'I' for Inactive)
REMARK    1  A    between atoms: C_11  and  C_4 
ROOT
ATOM      1  O   UNL d   1     -49.061  14.016  23.132  0.00  0.00    -0.304 OA
ATOM      2  C   UNL d   1     -47.811  14.363  22.796  0.00  0.00     0.025 A 
ATOM      3  C   UNL d   1     -48.285  15.045  22.782  0.00  0.00     0.030 A 
ATOM      4  C   UNL d   1     -49.055  14.831  22.989  0.00  0.00     0.142 A 
ATOM      5  C   UNL d   1     -48.298  13.733  23.013  0.00  0.00     0.100 A 
ATOM      6  C   UNL d   1     -47.019  14.247  22.642  0.00  0.00     0.009 A 
ATOM      7  C   UNL d   1     -47.982  12.975  23.075  0.00  0.00     0.025 A 
ATOM      8  C   UNL d   1     -46.690  13.488  22.701  0.00  0.00     0.035 A 
ATOM      9  C   UNL d   1     -47.175  12.850  22.919  0.00  0.00     0.009 A 
ATOM     10 BR   UNL d   1     -45.892  13.362  22.547  0.00  0.00    -0.049 Br
ENDROOT
BRANCH   4  11
ATOM     11  C   UNL d   1     -49.703  15.337  23.044  0.00  0.00     0.259 C 
ATOM     12  O   UNL d   1     -50.047  15.635  22.365  0.00  0.00    -0.281 OA
ENDBRANCH   4  11
TORSDOF 1
ENDMDL
MODEL 7
REMARK VINA RESULT:      -5.4      8.430      8.811
REMARK  1 active torsions:
REMARK  status: ('A' for Active; 'I' for Inactive)
REMARK    1  A    between atoms: C_11  and  C_4 
ROOT
ATOM      1  O   UNL d   1     -40.948  14.804  16.946  0.00  0.00    -0.304 OA
ATOM      2  C   UNL d   1     -40.630  15.374  18.117  0.00  0.00     0.025 A 
ATOM      3  C   UNL d   1     -41.062  15.922  17.667  0.00  0.00     0.030 A 
ATOM      4  C   UNL d   1     -41.258  15.572  16.946  0.00  0.00     0.142 A 
ATOM      5  C   UNL d   1     -40.564  14.686  17.664  0.00  0.00     0.100 A 
ATOM      6  C   UNL d   1     -40.300  15.418  18.861  0.00  0.00     0.009 A 
ATOM      7  C   UNL d   1     -40.160  14.035  17.966  0.00  0.00     0.025 A 
ATOM      8  C   UNL d   1     -39.891  14.768  19.174  0.00  0.00     0.035 A 
ATOM      9  C   UNL d   1     -39.822  14.075  18.723  0.00  0.00     0.009 A 
ATOM     10 BR   UNL d   1     -39.555  14.805  19.924  0.00  0.00    -0.049 Br
ENDROOT
BRANCH   4  11
ATOM     11  C   UNL d   1     -41.685  15.922  16.335  0.00  0.00     0.259 C 
ATOM     12  O   UNL d   1     -42.356  15.557  16.044  0.00  0.00    -0.281 OA
ENDBRANCH   4  11
TORSDOF 1
ENDMDL
MODEL 8
REMARK VINA RESULT:      -5.2      9.295      9.959
REMARK  1 active torsions:
REMARK  status: ('A' for Active; 'I' for Inactive)
REMARK    1  A    between atoms: C_11  and  C_4 
ROOT
ATOM      1  O   UNL d   1     -39.795  14.848  16.580  0.00  0.00    -0.304 OA
ATOM      2  C   UNL d   1     -39.493  13.906  17.484  0.00  0.00     0.025 A 
ATOM      3  C   UNL d   1     -40.181  14.298  17.733  0.00  0.00     0.030 A 
ATOM      4  C   UNL d   1     -40.367  14.878  17.177  0.00  0.00     0.142 A 
ATOM      5  C   UNL d   1     -39.261  14.252  16.771  0.00  0.00     0.100 A 
ATOM      6  C   UNL d   1     -39.065  13.295  17.812  0.00  0.00     0.009 A 
ATOM      7  C   UNL d   1     -38.588  13.978  16.384  0.00  0.00     0.025 A 
ATOM      8  C   UNL d   1     -38.385  13.011  17.430  0.00  0.00     0.035 A 
ATOM      9  C   UNL d   1     -38.148  13.355  16.713  0.00  0.00     0.009 A 
ATOM     10 BR   UNL d   1     -37.947  12.395  17.754  0.00  0.00    -0.049 Br
ENDROOT
BRANCH   4  11
ATOM     11  C   UNL d   1     -41.008  15.395  17.208  0.00  0.00     0.259 C 
ATOM     12  O   UNL d   1     -41.527  15.442  16.579  0.00  0.00    -0.281 OA
ENDBRANCH   4  11
TORSDOF 1
ENDMDL
MODEL 9
REMARK VINA RESULT:      -5.0      7.546      8.202
REMARK  1 active torsions:
REMARK  status: ('A' for Active; 'I' for Inactive)
REMARK    1  A    between atoms: C_11  and  C_4 
ROOT
ATOM      1  O   UNL d   1     -40.667  14.471  18.160  0.00  0.00    -0.304 OA
ATOM      2  C   UNL d   1     -40.605  15.531  18.978  0.00  0.00     0.025 A 
ATOM      3  C   UNL d   1     -40.723  15.804  18.203  0.00  0.00     0.030 A 
ATOM      4  C   UNL d   1     -40.761  15.152  17.699  0.00  0.00     0.142 A 
ATOM      5  C   UNL d   1     -40.572  14.706  18.942  0.00  0.00     0.100 A 
ATOM      6  C   UNL d   1     -40.527  15.922  19.688  0.00  0.00     0.009 A 
ATOM      7  C   UNL d   1     -40.458  14.272  19.632  0.00  0.00     0.025 A 
ATOM      8  C   UNL d   1     -40.412  15.494  20.390  0.00  0.00     0.035 A 
ATOM      9  C   UNL d   1     -40.378  14.665  20.359  0.00  0.00     0.009 A 
ATOM     10 BR   UNL d   1     -40.333  15.882  21.111  0.00  0.00    -0.049 Br
ENDROOT
BRANCH   4  11
ATOM     11  C   UNL d   1     -40.872  15.173  16.883  0.00  0.00     0.259 C 
ATOM     12  O   UNL d   1     -41.605  15.364  16.575  0.00  0.00    -0.281 OA
ENDBRANCH   4  11
TORSDOF 1
ENDMDL
