MODEL 1
REMARK VINA RESULT:      -7.4      0.000      0.000
REMARK  5 active torsions:
REMARK  status: ('A' for Active; 'I' for Inactive)
REMARK    1  A    between atoms: C_7  and  C_1 
REMARK    2  A    between atoms: C_6  and  C_3 
REMARK       I    between atoms: N_8  and  C_6 
REMARK    3  A    between atoms: O_14  and  C_7 
REMARK    4  A    between atoms: C_13  and  N_8 
REMARK    5  A    between atoms: C_15  and  O_14 
ROOT
ATOM      1  C   UNL d   1     -47.235  13.655  23.069  0.00  0.00     0.090 A 
ATOM      2  C   UNL d   1     -47.743  13.084  23.390  0.00  0.00     0.138 A 
ATOM      3  C   UNL d   1     -48.465  14.109  23.029  0.00  0.00     0.089 A 
ATOM      4  C   UNL d   1     -47.702  14.297  22.845  0.00  0.00     0.018 A 
ATOM      5  S   UNL d   1     -48.488  13.410  23.343  0.00  0.00    -0.061 SA
ATOM      6  N   UNL d   1     -47.500  12.334  23.692  0.00  0.00    -0.141 N 
ATOM      7  C   UNL d   1     -47.386  15.009  22.486  0.00  0.00     0.001 C 
ENDROOT
BRANCH   3   8
ATOM      8  C   UNL d   1     -49.051  14.649  22.866  0.00  0.00     0.285 C 
ATOM      9  N   UNL d   1     -49.698  14.407  22.446  0.00  0.00    -0.208 NA
ATOM     10  O   UNL d   1     -48.968  15.435  23.136  0.00  0.00    -0.265 OA
BRANCH   9  11
ATOM     11  C   UNL d   1     -49.761  13.629  22.189  0.00  0.00     0.085 A 
ATOM     12  C   UNL d   1     -50.024  13.060  22.644  0.00  0.00     0.019 A 
ATOM     13  C   UNL d   1     -50.065  12.322  22.340  0.00  0.00     0.002 A 
ATOM     14  C   UNL d   1     -49.858  12.119  21.609  0.00  0.00     0.000 A 
ATOM     15  C   UNL d   1     -49.569  12.689  21.078  0.00  0.00     0.002 A 
ATOM     16  C   UNL d   1     -49.529  13.467  21.405  0.00  0.00     0.019 A 
ENDBRANCH   9  11
ENDBRANCH   3   8
BRANCH   1  17
ATOM     17  C   UNL d   1     -46.430  13.583  22.996  0.00  0.00     0.302 C 
ATOM     18  O   UNL d   1     -45.924  13.800  23.626  0.00  0.00    -0.259 OA
BRANCH  17  19
ATOM     19  O   UNL d   1     -46.087  13.295  22.303  0.00  0.00    -0.271 OA
BRANCH  19  20
ATOM     20  C   UNL d   1     -45.268  13.274  22.251  0.00  0.00     0.126 C 
ATOM     21  C   UNL d   1     -44.920  12.866  21.626  0.00  0.00     0.029 C 
ENDBRANCH  19  20
ENDBRANCH  17  19
ENDBRANCH   1  17
TORSDOF 5
ENDMDL
MODEL 2
REMARK VINA RESULT:      -7.3      1.489      2.202
REMARK  5 active torsions:
REMARK  status: ('A' for Active; 'I' for Inactive)
REMARK    1  A    between atoms: C_7  and  C_1 
REMARK    2  A    between atoms: C_6  and  C_3 
REMARK       I    between atoms: N_8  and  C_6 
REMARK    3  A    between atoms: O_14  and  C_7 
REMARK    4  A    between atoms: C_13  and  N_8 
REMARK    5  A    between atoms: C_15  and  O_14 
ROOT
ATOM      1  C   UNL d   1     -47.769  12.880  22.423  0.00  0.00     0.090 A 
ATOM      2  C   UNL d   1     -48.321  12.905  21.804  0.00  0.00     0.138 A 
ATOM      3  C   UNL d   1     -48.738  12.034  22.682  0.00  0.00     0.089 A 
ATOM      4  C   UNL d   1     -48.044  12.327  22.971  0.00  0.00     0.018 A 
ATOM      5  S   UNL d   1     -48.898  12.368  22.010  0.00  0.00    -0.061 SA
ATOM      6  N   UNL d   1     -48.261  13.399  21.122  0.00  0.00    -0.141 N 
ATOM      7  C   UNL d   1     -47.630  12.135  23.697  0.00  0.00     0.001 C 
ENDROOT
BRANCH   3   8
ATOM      8  C   UNL d   1     -49.136  11.471  23.115  0.00  0.00     0.285 C 
ATOM      9  N   UNL d   1     -49.909  11.602  23.307  0.00  0.00    -0.208 NA
ATOM     10  O   UNL d   1     -48.734  10.777  23.346  0.00  0.00    -0.265 OA
BRANCH   9  11
ATOM     11  C   UNL d   1     -50.287  12.292  23.070  0.00  0.00     0.085 A 
ATOM     12  C   UNL d   1     -50.569  12.388  22.355  0.00  0.00     0.019 A 
ATOM     13  C   UNL d   1     -50.927  13.080  22.180  0.00  0.00     0.002 A 
ATOM     14  C   UNL d   1     -51.021  13.683  22.677  0.00  0.00     0.000 A 
ATOM     15  C   UNL d   1     -50.738  13.635  23.457  0.00  0.00     0.002 A 
ATOM     16  C   UNL d   1     -50.360  12.901  23.635  0.00  0.00     0.019 A 
ENDBRANCH   9  11
ENDBRANCH   3   8
BRANCH   1  17
ATOM     17  C   UNL d   1     -47.091  13.322  22.469  0.00  0.00     0.302 C 
ATOM     18  O   UNL d   1     -47.100  14.079  22.827  0.00  0.00    -0.259 OA
BRANCH  17  19
ATOM     19  O   UNL d   1     -46.376  13.044  22.167  0.00  0.00    -0.271 OA
BRANCH  19  20
ATOM     20  C   UNL d   1     -45.706  13.510  22.253  0.00  0.00     0.126 C 
ATOM     21  C   UNL d   1     -44.986  13.227  21.969  0.00  0.00     0.029 C 
ENDBRANCH  19  20
ENDBRANCH  17  19
ENDBRANCH   1  17
TORSDOF 5
ENDMDL
MODEL 3
REMARK VINA RESULT:      -6.9      1.469      3.418
REMARK  5 active torsions:
REMARK  status: ('A' for Active; 'I' for Inactive)
REMARK    1  A    between atoms: C_7  and  C_1 
REMARK    2  A    between atoms: C_6  and  C_3 
REMARK       I    between atoms: N_8  and  C_6 
REMARK    3  A    between atoms: O_14  and  C_7 
REMARK    4  A    between atoms: C_13  and  N_8 
REMARK    5  A    between atoms: C_15  and  O_14 
ROOT
ATOM      1  C   UNL d   1     -49.123  13.496  22.215  0.00  0.00     0.090 A 
ATOM      2  C   UNL d   1     -48.559  13.140  21.722  0.00  0.00     0.138 A 
ATOM      3  C   UNL d   1     -48.003  14.174  22.290  0.00  0.00     0.089 A 
ATOM      4  C   UNL d   1     -48.760  14.147  22.568  0.00  0.00     0.018 A 
ATOM      5  S   UNL d   1     -47.887  13.593  21.802  0.00  0.00    -0.061 SA
ATOM      6  N   UNL d   1     -48.694  12.452  21.251  0.00  0.00    -0.141 N 
ATOM      7  C   UNL d   1     -49.157  14.668  23.122  0.00  0.00     0.001 C 
ENDROOT
BRANCH   3   8
ATOM      8  C   UNL d   1     -47.511  14.769  22.549  0.00  0.00     0.285 C 
ATOM      9  N   UNL d   1     -46.812  14.570  22.901  0.00  0.00    -0.208 NA
ATOM     10  O   UNL d   1     -47.744  15.563  22.444  0.00  0.00    -0.265 OA
BRANCH   9  11
ATOM     11  C   UNL d   1     -46.601  13.782  22.995  0.00  0.00     0.085 A 
ATOM     12  C   UNL d   1     -46.865  13.346  23.579  0.00  0.00     0.019 A 
ATOM     13  C   UNL d   1     -46.626  12.585  23.621  0.00  0.00     0.002 A 
ATOM     14  C   UNL d   1     -46.139  12.233  23.115  0.00  0.00     0.000 A 
ATOM     15  C   UNL d   1     -45.825  12.652  22.469  0.00  0.00     0.002 A 
ATOM     16  C   UNL d   1     -46.081  13.456  22.431  0.00  0.00     0.019 A 
ENDBRANCH   9  11
ENDBRANCH   3   8
BRANCH   1  17
ATOM     17  C   UNL d   1     -49.886  13.241  22.322  0.00  0.00     0.302 C 
ATOM     18  O   UNL d   1     -50.505  13.541  21.845  0.00  0.00    -0.259 OA
BRANCH  17  19
ATOM     19  O   UNL d   1     -50.074  12.682  22.898  0.00  0.00    -0.271 OA
BRANCH  19  20
ATOM     20  C   UNL d   1     -50.866  12.522  23.043  0.00  0.00     0.126 C 
ATOM     21  C   UNL d   1     -51.064  12.048  23.688  0.00  0.00     0.029 C 
ENDBRANCH  19  20
ENDBRANCH  17  19
ENDBRANCH   1  17
TORSDOF 5
ENDMDL
MODEL 4
REMARK VINA RESULT:      -6.4      1.902      2.635
REMARK  5 active torsions:
REMARK  status: ('A' for Active; 'I' for Inactive)
REMARK    1  A    between atoms: C_7  and  C_1 
REMARK    2  A    between atoms: C_6  and  C_3 
REMARK       I    between atoms: N_8  and  C_6 
REMARK    3  A    between atoms: O_14  and  C_7 
REMARK    4  A    between atoms: C_13  and  N_8 
REMARK    5  A    between atoms: C_15  and  O_14 
ROOT
ATOM      1  C   UNL d   1     -49.173  12.322  22.625  0.00  0.00     0.090 A 
ATOM      2  C   UNL d   1     -49.926  12.426  22.958  0.00  0.00     0.138 A 
ATOM      3  C   UNL d   1     -49.854  13.160  21.881  0.00  0.00     0.089 A 
ATOM      4  C   UNL d   1     -49.140  12.790  21.946  0.00  0.00     0.018 A 
ATOM      5  S   UNL d   1     -50.307  12.951  22.464  0.00  0.00    -0.061 SA
ATOM      6  N   UNL d   1     -50.200  12.050  23.662  0.00  0.00    -0.141 N 
ATOM      7  C   UNL d   1     -48.451  12.839  21.438  0.00  0.00     0.001 C 
ENDROOT
BRANCH   3   8
ATOM      8  C   UNL d   1     -49.978  13.663  21.254  0.00  0.00     0.285 C 
ATOM      9  N   UNL d   1     -50.186  14.429  21.404  0.00  0.00    -0.208 NA
ATOM     10  O   UNL d   1     -49.888  13.374  20.476  0.00  0.00    -0.265 OA
BRANCH   9  11
ATOM     11  C   UNL d   1     -50.269  14.696  22.177  0.00  0.00     0.085 A 
ATOM     12  C   UNL d   1     -50.919  14.590  22.586  0.00  0.00     0.019 A 
ATOM     13  C   UNL d   1     -50.944  14.870  23.333  0.00  0.00     0.002 A 
ATOM     14  C   UNL d   1     -50.359  15.250  23.697  0.00  0.00     0.000 A 
ATOM     15  C   UNL d   1     -49.640  15.392  23.306  0.00  0.00     0.002 A 
ATOM     16  C   UNL d   1     -49.620  15.093  22.516  0.00  0.00     0.019 A 
ENDBRANCH   9  11
ENDBRANCH   3   8
BRANCH   1  17
ATOM     17  C   UNL d   1     -48.588  11.845  22.922  0.00  0.00     0.302 C 
ATOM     18  O   UNL d   1     -48.646  11.012  22.861  0.00  0.00    -0.259 OA
BRANCH  17  19
ATOM     19  O   UNL d   1     -47.923  12.162  23.291  0.00  0.00    -0.271 OA
BRANCH  19  20
ATOM     20  C   UNL d   1     -47.331  11.650  23.538  0.00  0.00     0.126 C 
ATOM     21  C   UNL d   1     -46.582  11.955  23.697  0.00  0.00     0.029 C 
ENDBRANCH  19  20
ENDBRANCH  17  19
ENDBRANCH   1  17
TORSDOF 5
ENDMDL
MODEL 5
REMARK VINA RESULT:      -5.3      8.433      9.793
REMARK  5 active torsions:
REMARK  status: ('A' for Active; 'I' for Inactive)
REMARK    1  A    between atoms: C_7  and  C_1 
REMARK    2  A    between atoms: C_6  and  C_3 
REMARK       I    between atoms: N_8  and  C_6 
REMARK    3  A    between atoms: O_14  and  C_7 
REMARK    4  A    between atoms: C_13  and  N_8 
REMARK    5  A    between atoms: C_15  and  O_14 
ROOT
ATOM      1  C   UNL d   1     -39.677  15.023  19.579  0.00  0.00     0.090 A 
ATOM      2  C   UNL d   1     -39.110  15.363  19.079  0.00  0.00     0.138 A 
ATOM      3  C   UNL d   1     -40.049  14.846  18.334  0.00  0.00     0.089 A 
ATOM      4  C   UNL d   1     -40.265  14.700  19.098  0.00  0.00     0.018 A 
ATOM      5  S   UNL d   1     -39.384  15.228  18.323  0.00  0.00    -0.061 SA
ATOM      6  N   UNL d   1     -38.410  15.757  19.338  0.00  0.00    -0.141 N 
ATOM      7  C   UNL d   1     -40.956  14.294  19.402  0.00  0.00     0.001 C 
ENDROOT
BRANCH   3   8
ATOM      8  C   UNL d   1     -40.533  14.586  17.734  0.00  0.00     0.285 C 
ATOM      9  N   UNL d   1     -40.233  14.074  17.185  0.00  0.00    -0.208 NA
ATOM     10  O   UNL d   1     -41.323  14.855  17.702  0.00  0.00    -0.265 OA
BRANCH   9  11
ATOM     11  C   UNL d   1     -39.453  13.821  17.234  0.00  0.00     0.085 A 
ATOM     12  C   UNL d   1     -38.860  14.247  16.975  0.00  0.00     0.019 A 
ATOM     13  C   UNL d   1     -38.122  13.950  17.048  0.00  0.00     0.002 A 
ATOM     14  C   UNL d   1     -37.941  13.253  17.363  0.00  0.00     0.000 A 
ATOM     15  C   UNL d   1     -38.537  12.754  17.657  0.00  0.00     0.002 A 
ATOM     16  C   UNL d   1     -39.315  13.073  17.577  0.00  0.00     0.019 A 
ENDBRANCH   9  11
ENDBRANCH   3   8
BRANCH   1  17
ATOM     17  C   UNL d   1     -39.648  15.016  20.390  0.00  0.00     0.302 C 
ATOM     18  O   UNL d   1     -39.974  15.647  20.833  0.00  0.00    -0.259 OA
BRANCH  17  19
ATOM     19  O   UNL d   1     -39.299  14.392  20.801  0.00  0.00    -0.271 OA
BRANCH  19  20
ATOM     20  C   UNL d   1     -39.301  14.414  21.621  0.00  0.00     0.126 C 
ATOM     21  C   UNL d   1     -38.958  13.790  22.037  0.00  0.00     0.029 C 
ENDBRANCH  19  20
ENDBRANCH  17  19
ENDBRANCH   1  17
TORSDOF 5
ENDMDL
MODEL 6
REMARK VINA RESULT:      -5.0      8.753      9.706
REMARK  5 active torsions:
REMARK  status: ('A' for Active; 'I' for Inactive)
REMARK    1  A    between atoms: C_7  and  C_1 
REMARK    2  A    between atoms: C_6  and  C_3 
REMARK       I    between atoms: N_8  and  C_6 
REMARK    3  A    between atoms: O_14  and  C_7 
REMARK    4  A    between atoms: C_13  and  N_8 
REMARK    5  A    between atoms: C_15  and  O_14 
ROOT
ATOM      1  C   UNL d   1     -39.403  14.750  19.817  0.00  0.00     0.090 A 
ATOM      2  C   UNL d   1     -40.200  14.744  19.586  0.00  0.00     0.138 A 
ATOM      3  C   UNL d   1     -39.523  14.035  18.723  0.00  0.00     0.089 A 
ATOM      4  C   UNL d   1     -38.987  14.300  19.265  0.00  0.00     0.018 A 
ATOM      5  S   UNL d   1     -40.223  14.291  18.909  0.00  0.00    -0.061 SA
ATOM      6  N   UNL d   1     -40.825  15.136  19.994  0.00  0.00    -0.141 N 
ATOM      7  C   UNL d   1     -38.140  14.168  19.304  0.00  0.00     0.001 C 
ENDROOT
BRANCH   3   8
ATOM      8  C   UNL d   1     -39.263  13.571  18.108  0.00  0.00     0.285 C 
ATOM      9  N   UNL d   1     -39.410  13.809  17.351  0.00  0.00    -0.208 NA
ATOM     10  O   UNL d   1     -38.851  12.864  18.277  0.00  0.00    -0.265 OA
BRANCH   9  11
ATOM     11  C   UNL d   1     -39.817  14.508  17.205  0.00  0.00     0.085 A 
ATOM     12  C   UNL d   1     -40.588  14.562  17.266  0.00  0.00     0.019 A 
ATOM     13  C   UNL d   1     -40.929  15.267  17.112  0.00  0.00     0.002 A 
ATOM     14  C   UNL d   1     -40.548  15.922  16.900  0.00  0.00     0.000 A 
ATOM     15  C   UNL d   1     -39.721  15.921  16.819  0.00  0.00     0.002 A 
ATOM     16  C   UNL d   1     -39.366  15.173  16.983  0.00  0.00     0.019 A 
ENDBRANCH   9  11
ENDBRANCH   3   8
BRANCH   1  17
ATOM     17  C   UNL d   1     -39.104  15.133  20.466  0.00  0.00     0.302 C 
ATOM     18  O   UNL d   1     -38.827  15.921  20.406  0.00  0.00    -0.259 OA
BRANCH  17  19
ATOM     19  O   UNL d   1     -39.061  14.761  21.201  0.00  0.00    -0.271 OA
BRANCH  19  20
ATOM     20  C   UNL d   1     -38.747  15.179  21.833  0.00  0.00     0.126 C 
ATOM     21  C   UNL d   1     -38.771  14.841  22.585  0.00  0.00     0.029 C 
ENDBRANCH  19  20
ENDBRANCH  17  19
ENDBRANCH   1  17
TORSDOF 5
ENDMDL
