MODEL 1
REMARK VINA RESULT:      -1.5      0.000      0.000
REMARK  3 active torsions:
REMARK  status: ('A' for Active; 'I' for Inactive)
REMARK    1  A    between atoms: C_9  and  C_3 
REMARK    2  A    between atoms: C_8  and  C_5 
REMARK    3  A    between atoms: O_19  and  C_9 
ROOT
ATOM      1  N   UNL d   1      30.792  16.675 -24.192  0.00  0.00    -0.278 N 
ATOM      2  C   UNL d   1      30.195  17.138 -24.525  0.00  0.00     0.178 A 
ATOM      3  C   UNL d   1      31.741  17.714 -24.451  0.00  0.00     0.075 A 
ATOM      4  N   UNL d   1      30.361  17.900 -24.827  0.00  0.00    -0.223 NA
ATOM      5  C   UNL d   1      31.562  16.969 -24.159  0.00  0.00     0.178 A 
ATOM      6  C   UNL d   1      31.145  18.177 -24.783  0.00  0.00     0.086 A 
ATOM      7  C   UNL d   1      30.613  15.930 -23.900  0.00  0.00     0.263 A 
ATOM      8  S   UNL d   1      29.412  16.861 -24.568  0.00  0.00    -0.050 SA
ATOM      9  C   UNL d   1      29.840  15.633 -23.933  0.00  0.00     0.068 A 
ATOM     10  O   UNL d   1      31.209  15.467 -23.568  0.00  0.00    -0.267 OA
ATOM     11  C   UNL d   1      29.243  16.096 -24.265  0.00  0.00     0.043 A 
ATOM     12  C   UNL d   1      31.313  18.965 -25.097  0.00  0.00     0.021 C 
ENDROOT
BRANCH   5  13
ATOM     13  C   UNL d   1      32.158  16.506 -23.827  0.00  0.00     0.024 A 
ATOM     14  S   UNL d   1      32.671  15.943 -24.143  0.00  0.00    -0.089 SA
ATOM     15  C   UNL d   1      33.147  15.666 -23.544  0.00  0.00     0.035 A 
ATOM     16  C   UNL d   1      32.937  16.047 -22.866  0.00  0.00     0.007 A 
ATOM     17  C   UNL d   1      32.338  16.561 -23.018  0.00  0.00     0.004 A 
ENDBRANCH   5  13
BRANCH   3  18
ATOM     18  C   UNL d   1      32.527  18.024 -24.421  0.00  0.00     0.295 C 
ATOM     19  O   UNL d   1      33.046  17.847 -25.036  0.00  0.00    -0.259 OA
BRANCH  18  20
ATOM     20  O   UNL d   1      32.780  18.494 -23.799  0.00  0.00    -0.296 OA
ATOM     21  C   UNL d   1      33.241  19.161 -23.936  0.00  0.00     0.185 C 
ENDBRANCH  18  20
ENDBRANCH   3  18
TORSDOF 3
ENDMDL
MODEL 2
REMARK VINA RESULT:      -1.0      1.199      2.707
REMARK  3 active torsions:
REMARK  status: ('A' for Active; 'I' for Inactive)
REMARK    1  A    between atoms: C_9  and  C_3 
REMARK    2  A    between atoms: C_8  and  C_5 
REMARK    3  A    between atoms: O_19  and  C_9 
ROOT
ATOM      1  N   UNL d   1      31.953  17.961 -24.485  0.00  0.00    -0.278 N 
ATOM      2  C   UNL d   1      31.586  18.612 -24.834  0.00  0.00     0.178 A 
ATOM      3  C   UNL d   1      30.718  17.240 -24.534  0.00  0.00     0.075 A 
ATOM      4  N   UNL d   1      30.776  18.589 -25.039  0.00  0.00    -0.223 NA
ATOM      5  C   UNL d   1      31.514  17.278 -24.338  0.00  0.00     0.178 A 
ATOM      6  C   UNL d   1      30.351  17.891 -24.883  0.00  0.00     0.086 A 
ATOM      7  C   UNL d   1      32.749  17.999 -24.289  0.00  0.00     0.263 A 
ATOM      8  S   UNL d   1      32.011  19.311 -24.990  0.00  0.00    -0.050 SA
ATOM      9  C   UNL d   1      33.191  18.684 -24.436  0.00  0.00     0.068 A 
ATOM     10  O   UNL d   1      33.115  17.348 -23.941  0.00  0.00    -0.267 OA
ATOM     11  C   UNL d   1      32.825  19.336 -24.785  0.00  0.00     0.043 A 
ATOM     12  C   UNL d   1      29.513  17.871 -25.097  0.00  0.00     0.021 C 
ENDROOT
BRANCH   5  13
ATOM     13  C   UNL d   1      31.880  16.627 -23.990  0.00  0.00     0.024 A 
ATOM     14  S   UNL d   1      32.296  15.986 -24.301  0.00  0.00    -0.089 SA
ATOM     15  C   UNL d   1      32.533  15.511 -23.685  0.00  0.00     0.035 A 
ATOM     16  C   UNL d   1      32.271  15.847 -23.000  0.00  0.00     0.007 A 
ATOM     17  C   UNL d   1      31.872  16.525 -23.167  0.00  0.00     0.004 A 
ENDBRANCH   5  13
BRANCH   3  18
ATOM     18  C   UNL d   1      30.259  16.545 -24.388  0.00  0.00     0.295 C 
ATOM     19  O   UNL d   1      29.904  16.453 -23.650  0.00  0.00    -0.259 OA
BRANCH  18  20
ATOM     20  O   UNL d   1      30.160  15.966 -24.961  0.00  0.00    -0.296 OA
ATOM     21  C   UNL d   1      29.495  15.485 -24.960  0.00  0.00     0.185 C 
ENDBRANCH  18  20
ENDBRANCH   3  18
TORSDOF 3
ENDMDL
MODEL 3
REMARK VINA RESULT:      -0.3      1.490      2.756
REMARK  3 active torsions:
REMARK  status: ('A' for Active; 'I' for Inactive)
REMARK    1  A    between atoms: C_9  and  C_3 
REMARK    2  A    between atoms: C_8  and  C_5 
REMARK    3  A    between atoms: O_19  and  C_9 
ROOT
ATOM      1  N   UNL d   1      31.309  16.575 -23.662  0.00  0.00    -0.278 N 
ATOM      2  C   UNL d   1      31.939  17.038 -23.927  0.00  0.00     0.178 A 
ATOM      3  C   UNL d   1      30.390  17.444 -24.332  0.00  0.00     0.075 A 
ATOM      4  N   UNL d   1      31.806  17.714 -24.400  0.00  0.00    -0.223 NA
ATOM      5  C   UNL d   1      30.538  16.784 -23.868  0.00  0.00     0.178 A 
ATOM      6  C   UNL d   1      31.020  17.906 -24.596  0.00  0.00     0.086 A 
ATOM      7  C   UNL d   1      31.457  15.915 -23.198  0.00  0.00     0.263 A 
ATOM      8  S   UNL d   1      32.725  16.845 -23.731  0.00  0.00    -0.050 SA
ATOM      9  C   UNL d   1      32.231  15.704 -22.991  0.00  0.00     0.068 A 
ATOM     10  O   UNL d   1      30.828  15.453 -22.934  0.00  0.00    -0.267 OA
ATOM     11  C   UNL d   1      32.861  16.167 -23.255  0.00  0.00     0.043 A 
ATOM     12  C   UNL d   1      30.885  18.607 -25.086  0.00  0.00     0.021 C 
ENDROOT
BRANCH   5  13
ATOM     13  C   UNL d   1      29.909  16.322 -23.603  0.00  0.00     0.024 A 
ATOM     14  S   UNL d   1      29.449  15.742 -23.967  0.00  0.00    -0.089 SA
ATOM     15  C   UNL d   1      28.901  15.474 -23.428  0.00  0.00     0.035 A 
ATOM     16  C   UNL d   1      29.016  15.878 -22.740  0.00  0.00     0.007 A 
ATOM     17  C   UNL d   1      29.623  16.397 -22.828  0.00  0.00     0.004 A 
ENDBRANCH   5  13
BRANCH   3  18
ATOM     18  C   UNL d   1      29.604  17.666 -24.548  0.00  0.00     0.295 C 
ATOM     19  O   UNL d   1      29.198  17.203 -25.095  0.00  0.00    -0.259 OA
BRANCH  18  20
ATOM     20  O   UNL d   1      29.241  18.328 -24.228  0.00  0.00    -0.296 OA
ATOM     21  C   UNL d   1      28.584  18.663 -24.590  0.00  0.00     0.185 C 
ENDBRANCH  18  20
ENDBRANCH   3  18
TORSDOF 3
ENDMDL
MODEL 4
REMARK VINA RESULT:       0.8      1.314      3.529
REMARK  3 active torsions:
REMARK  status: ('A' for Active; 'I' for Inactive)
REMARK    1  A    between atoms: C_9  and  C_3 
REMARK    2  A    between atoms: C_8  and  C_5 
REMARK    3  A    between atoms: O_19  and  C_9 
ROOT
ATOM      1  N   UNL d   1      31.213  17.685 -24.165  0.00  0.00    -0.278 N 
ATOM      2  C   UNL d   1      31.959  17.459 -23.896  0.00  0.00     0.178 A 
ATOM      3  C   UNL d   1      30.668  16.448 -23.697  0.00  0.00     0.075 A 
ATOM      4  N   UNL d   1      32.073  16.720 -23.521  0.00  0.00    -0.223 NA
ATOM      5  C   UNL d   1      30.572  17.176 -24.063  0.00  0.00     0.178 A 
ATOM      6  C   UNL d   1      31.414  16.221 -23.428  0.00  0.00     0.086 A 
ATOM      7  C   UNL d   1      31.117  18.413 -24.531  0.00  0.00     0.263 A 
ATOM      8  S   UNL d   1      32.618  17.957 -23.989  0.00  0.00    -0.050 SA
ATOM      9  C   UNL d   1      31.759  18.926 -24.635  0.00  0.00     0.068 A 
ATOM     10  O   UNL d   1      30.372  18.640 -24.800  0.00  0.00    -0.267 OA
ATOM     11  C   UNL d   1      32.505  18.700 -24.366  0.00  0.00     0.043 A 
ATOM     12  C   UNL d   1      31.536  15.457 -23.039  0.00  0.00     0.021 C 
ENDROOT
BRANCH   5  13
ATOM     13  C   UNL d   1      29.827  17.402 -24.331  0.00  0.00     0.024 A 
ATOM     14  S   UNL d   1      29.484  17.422 -25.082  0.00  0.00    -0.089 SA
ATOM     15  C   UNL d   1      28.723  17.700 -25.009  0.00  0.00     0.035 A 
ATOM     16  C   UNL d   1      28.591  17.852 -24.228  0.00  0.00     0.007 A 
ATOM     17  C   UNL d   1      29.250  17.677 -23.802  0.00  0.00     0.004 A 
ENDBRANCH   5  13
BRANCH   3  18
ATOM     18  C   UNL d   1      30.018  15.918 -23.587  0.00  0.00     0.295 C 
ATOM     19  O   UNL d   1      29.723  15.513 -24.240  0.00  0.00    -0.259 OA
BRANCH  18  20
ATOM     20  O   UNL d   1      29.679  15.802 -22.849  0.00  0.00    -0.296 OA
ATOM     21  C   UNL d   1      28.909  15.524 -22.781  0.00  0.00     0.185 C 
ENDBRANCH  18  20
ENDBRANCH   3  18
TORSDOF 3
ENDMDL
MODEL 5
REMARK VINA RESULT:       1.3      0.852      1.002
REMARK  3 active torsions:
REMARK  status: ('A' for Active; 'I' for Inactive)
REMARK    1  A    between atoms: C_9  and  C_3 
REMARK    2  A    between atoms: C_8  and  C_5 
REMARK    3  A    between atoms: O_19  and  C_9 
ROOT
ATOM      1  N   UNL d   1      30.161  17.211 -24.492  0.00  0.00    -0.278 N 
ATOM      2  C   UNL d   1      29.751  17.812 -24.882  0.00  0.00     0.178 A 
ATOM      3  C   UNL d   1      31.337  18.026 -24.475  0.00  0.00     0.075 A 
ATOM      4  N   UNL d   1      30.128  18.533 -25.076  0.00  0.00    -0.223 NA
ATOM      5  C   UNL d   1      30.953  17.324 -24.292  0.00  0.00     0.178 A 
ATOM      6  C   UNL d   1      30.927  18.626 -24.865  0.00  0.00     0.086 A 
ATOM      7  C   UNL d   1      29.777  16.510 -24.309  0.00  0.00     0.263 A 
ATOM      8  S   UNL d   1      28.951  17.718 -25.093  0.00  0.00    -0.050 SA
ATOM      9  C   UNL d   1      28.981  16.394 -24.509  0.00  0.00     0.068 A 
ATOM     10  O   UNL d   1      30.186  15.910 -23.920  0.00  0.00    -0.267 OA
ATOM     11  C   UNL d   1      28.571  16.995 -24.899  0.00  0.00     0.043 A 
ATOM     12  C   UNL d   1      31.314  19.373 -25.067  0.00  0.00     0.021 C 
ENDROOT
BRANCH   5  13
ATOM     13  C   UNL d   1      31.363  16.724 -23.903  0.00  0.00     0.024 A 
ATOM     14  S   UNL d   1      31.486  16.558 -23.104  0.00  0.00    -0.089 SA
ATOM     15  C   UNL d   1      31.940  15.885 -23.050  0.00  0.00     0.035 A 
ATOM     16  C   UNL d   1      32.099  15.634 -23.800  0.00  0.00     0.007 A 
ATOM     17  C   UNL d   1      31.756  16.132 -24.330  0.00  0.00     0.004 A 
ENDBRANCH   5  13
BRANCH   3  18
ATOM     18  C   UNL d   1      32.148  18.152 -24.274  0.00  0.00     0.295 C 
ATOM     19  O   UNL d   1      32.731  17.841 -24.767  0.00  0.00    -0.259 OA
BRANCH  18  20
ATOM     20  O   UNL d   1      32.365  18.574 -23.605  0.00  0.00    -0.296 OA
ATOM     21  C   UNL d   1      33.123  18.509 -23.296  0.00  0.00     0.185 C 
ENDBRANCH  18  20
ENDBRANCH   3  18
TORSDOF 3
ENDMDL
MODEL 6
REMARK VINA RESULT:       1.4      3.688      5.036
REMARK  3 active torsions:
REMARK  status: ('A' for Active; 'I' for Inactive)
REMARK    1  A    between atoms: C_9  and  C_3 
REMARK    2  A    between atoms: C_8  and  C_5 
REMARK    3  A    between atoms: O_19  and  C_9 
ROOT
ATOM      1  N   UNL d   1      32.957  20.495 -22.795  0.00  0.00    -0.278 N 
ATOM      2  C   UNL d   1      33.066  20.596 -23.607  0.00  0.00     0.178 A 
ATOM      3  C   UNL d   1      32.785  21.908 -22.644  0.00  0.00     0.075 A 
ATOM      4  N   UNL d   1      33.037  21.357 -23.953  0.00  0.00    -0.223 NA
ATOM      5  C   UNL d   1      32.816  21.155 -22.320  0.00  0.00     0.178 A 
ATOM      6  C   UNL d   1      32.894  22.008 -23.456  0.00  0.00     0.086 A 
ATOM      7  C   UNL d   1      32.988  19.742 -22.471  0.00  0.00     0.263 A 
ATOM      8  S   UNL d   1      33.209  19.944 -24.104  0.00  0.00    -0.050 SA
ATOM      9  C   UNL d   1      33.129  19.079 -22.947  0.00  0.00     0.068 A 
ATOM     10  O   UNL d   1      32.879  19.642 -21.661  0.00  0.00    -0.267 OA
ATOM     11  C   UNL d   1      33.239  19.179 -23.758  0.00  0.00     0.043 A 
ATOM     12  C   UNL d   1      32.865  22.794 -23.817  0.00  0.00     0.021 C 
ENDROOT
BRANCH   5  13
ATOM     13  C   UNL d   1      32.707  21.055 -21.510  0.00  0.00     0.024 A 
ATOM     14  S   UNL d   1      33.232  20.943 -20.883  0.00  0.00    -0.089 SA
ATOM     15  C   UNL d   1      32.801  20.877 -20.196  0.00  0.00     0.035 A 
ATOM     16  C   UNL d   1      32.021  20.947 -20.388  0.00  0.00     0.007 A 
ATOM     17  C   UNL d   1      31.945  21.055 -21.181  0.00  0.00     0.004 A 
ENDBRANCH   5  13
BRANCH   3  18
ATOM     18  C   UNL d   1      32.642  22.590 -22.166  0.00  0.00     0.295 C 
ATOM     19  O   UNL d   1      31.879  22.722 -21.883  0.00  0.00    -0.259 OA
BRANCH  18  20
ATOM     20  O   UNL d   1      33.241  23.119 -21.981  0.00  0.00    -0.296 OA
ATOM     21  C   UNL d   1      33.163  23.636 -21.347  0.00  0.00     0.185 C 
ENDBRANCH  18  20
ENDBRANCH   3  18
TORSDOF 3
ENDMDL
MODEL 7
REMARK VINA RESULT:       1.5      1.298      2.528
REMARK  3 active torsions:
REMARK  status: ('A' for Active; 'I' for Inactive)
REMARK    1  A    between atoms: C_9  and  C_3 
REMARK    2  A    between atoms: C_8  and  C_5 
REMARK    3  A    between atoms: O_19  and  C_9 
ROOT
ATOM      1  N   UNL d   1      30.705  17.723 -24.633  0.00  0.00    -0.278 N 
ATOM      2  C   UNL d   1      31.241  18.308 -24.860  0.00  0.00     0.178 A 
ATOM      3  C   UNL d   1      31.790  16.821 -24.396  0.00  0.00     0.075 A 
ATOM      4  N   UNL d   1      32.064  18.160 -24.859  0.00  0.00    -0.223 NA
ATOM      5  C   UNL d   1      30.986  16.983 -24.402  0.00  0.00     0.178 A 
ATOM      6  C   UNL d   1      32.326  17.406 -24.623  0.00  0.00     0.086 A 
ATOM      7  C   UNL d   1      29.900  17.885 -24.639  0.00  0.00     0.263 A 
ATOM      8  S   UNL d   1      30.978  19.062 -25.096  0.00  0.00    -0.050 SA
ATOM      9  C   UNL d   1      29.616  18.628 -24.870  0.00  0.00     0.068 A 
ATOM     10  O   UNL d   1      29.366  17.300 -24.412  0.00  0.00    -0.267 OA
ATOM     11  C   UNL d   1      30.152  19.213 -25.097  0.00  0.00     0.043 A 
ATOM     12  C   UNL d   1      33.178  17.256 -24.623  0.00  0.00     0.021 C 
ENDROOT
BRANCH   5  13
ATOM     13  C   UNL d   1      30.451  16.398 -24.175  0.00  0.00     0.024 A 
ATOM     14  S   UNL d   1      30.223  16.103 -23.440  0.00  0.00    -0.089 SA
ATOM     15  C   UNL d   1      29.667  15.521 -23.558  0.00  0.00     0.035 A 
ATOM     16  C   UNL d   1      29.548  15.453 -24.353  0.00  0.00     0.007 A 
ATOM     17  C   UNL d   1      30.016  15.977 -24.743  0.00  0.00     0.004 A 
ENDBRANCH   5  13
BRANCH   3  18
ATOM     18  C   UNL d   1      32.089  16.066 -24.161  0.00  0.00     0.295 C 
ATOM     19  O   UNL d   1      32.184  15.483 -24.735  0.00  0.00    -0.259 OA
BRANCH  18  20
ATOM     20  O   UNL d   1      32.284  15.904 -23.381  0.00  0.00    -0.296 OA
ATOM     21  C   UNL d   1      32.947  15.454 -23.199  0.00  0.00     0.185 C 
ENDBRANCH  18  20
ENDBRANCH   3  18
TORSDOF 3
ENDMDL
