MODEL 1
REMARK VINA RESULT:      36.6      0.000      0.000
REMARK  6 active torsions:
REMARK  status: ('A' for Active; 'I' for Inactive)
REMARK       I    between atoms: C_4  and  N_1 
REMARK    1  A    between atoms: C_8  and  C_3 
REMARK    2  A    between atoms: C_16  and  C_4 
REMARK    3  A    between atoms: C_13  and  C_5 
REMARK    4  A    between atoms: N_6  and  C_9 
REMARK    5  A    between atoms: O_24  and  C_11 
REMARK    6  A    between atoms: O_25  and  C_17 
ROOT
ATOM      1  N   UNL d   1      45.586 -17.594  43.941  0.00  0.00    -0.195 N 
ATOM      2  N   UNL d   1      45.424 -16.879  44.350  0.00  0.00    -0.163 NA
ATOM      3  C   UNL d   1      45.920 -17.379  43.210  0.00  0.00     0.088 A 
ATOM      4  C   UNL d   1      45.436 -18.391  44.222  0.00  0.00     0.280 C 
ATOM      5  C   UNL d   1      45.663 -16.250  43.859  0.00  0.00     0.103 A 
ATOM      6  C   UNL d   1      45.962 -16.557  43.173  0.00  0.00     0.040 A 
ATOM      7  O   UNL d   1      45.104 -18.517  44.955  0.00  0.00    -0.265 OA
ENDROOT
BRANCH   3   8
ATOM      8  C   UNL d   1      46.153 -17.950  42.653  0.00  0.00     0.020 A 
ATOM      9  C   UNL d   1      45.984 -17.623  41.925  0.00  0.00     0.028 A 
ATOM     10  C   UNL d   1      46.144 -18.039  41.238  0.00  0.00     0.116 A 
ATOM     11  C   UNL d   1      46.479 -18.794  41.279  0.00  0.00     0.116 A 
ATOM     12  C   UNL d   1      46.646 -19.113  42.044  0.00  0.00     0.026 A 
ATOM     13  C   UNL d   1      46.486 -18.697  42.729  0.00  0.00     0.004 A 
BRANCH  10  14
ATOM     14  O   UNL d   1      45.969 -17.699  40.491  0.00  0.00    -0.326 OA
ATOM     15  C   UNL d   1      45.348 -18.011  40.005  0.00  0.00     0.181 C 
ENDBRANCH  10  14
BRANCH  11  16
ATOM     16  O   UNL d   1      46.646 -19.227  40.577  0.00  0.00    -0.326 OA
ATOM     17  C   UNL d   1      46.526 -20.022  40.557  0.00  0.00     0.181 C 
ENDBRANCH  11  16
ENDBRANCH   3   8
BRANCH   4  18
ATOM     18  C   UNL d   1      45.642 -19.050  43.720  0.00  0.00     0.058 A 
ATOM     19  C   UNL d   1      45.092 -19.358  43.188  0.00  0.00     0.005 A 
ATOM     20  C   UNL d   1      45.278 -19.995  42.698  0.00  0.00     0.000 A 
ATOM     21  C   UNL d   1      46.031 -20.330  42.744  0.00  0.00     0.000 A 
ATOM     22  C   UNL d   1      46.579 -20.022  43.276  0.00  0.00     0.000 A 
ATOM     23  C   UNL d   1      46.392 -19.380  43.770  0.00  0.00     0.005 A 
ENDBRANCH   4  18
BRANCH   5  24
ATOM     24  C   UNL d   1      45.626 -15.440  43.994  0.00  0.00     0.019 A 
ATOM     25  C   UNL d   1      46.018 -14.946  43.449  0.00  0.00     0.003 A 
ATOM     26  C   UNL d   1      46.005 -14.139  43.549  0.00  0.00     0.024 A 
ATOM     27  C   UNL d   1      45.598 -13.805  44.198  0.00  0.00     0.127 A 
ATOM     28  C   UNL d   1      45.207 -14.299  44.743  0.00  0.00     0.024 A 
ATOM     29  C   UNL d   1      45.231 -15.128  44.625  0.00  0.00     0.003 A 
BRANCH  27  30
ATOM     30  N   UNL d   1      45.587 -12.964  44.298  0.00  0.00    -0.114 N 
ATOM     31  O   UNL d   1      45.147 -12.484  43.779  0.00  0.00    -0.532 OA
ATOM     32  O   UNL d   1      46.021 -12.616  44.921  0.00  0.00    -0.532 OA
ENDBRANCH  27  30
ENDBRANCH   5  24
TORSDOF 6
ENDMDL
