MODEL 1
REMARK VINA RESULT:      93.4      0.000      0.000
REMARK  7 active torsions:
REMARK  status: ('A' for Active; 'I' for Inactive)
REMARK    1  A    between atoms: N_8  and  C_1 
REMARK    2  A    between atoms: C_14  and  C_2 
REMARK    3  A    between atoms: S_3  and  C_16 
REMARK    4  A    between atoms: N_7  and  S_3 
REMARK       I    between atoms: C_12  and  N_8 
REMARK       I    between atoms: C_13  and  N_11 
REMARK    5  A    between atoms: C_22  and  C_12 
REMARK    6  A    between atoms: O_33  and  C_13 
REMARK    7  A    between atoms: C_38  and  O_33 
ROOT
ATOM      1  C   UNL d   1     -41.814-121.785 -52.818  0.00  0.00     0.104 A 
ATOM      2  C   UNL d   1     -41.922-121.517 -54.433  0.00  0.00     0.056 A 
ATOM      3  C   UNL d   1     -41.191-121.415 -53.216  0.00  0.00     0.013 A 
ATOM      4  C   UNL d   1     -42.491-122.022 -53.224  0.00  0.00     0.013 A 
ATOM      5  C   UNL d   1     -41.245-121.280 -54.026  0.00  0.00     0.005 A 
ATOM      6  C   UNL d   1     -42.543-121.885 -54.039  0.00  0.00     0.005 A 
ENDROOT
BRANCH   2   7
ATOM      7  C   UNL d   1     -41.981-121.383 -55.247  0.00  0.00     0.258 C 
ATOM      8  N   UNL d   1     -42.727-121.281 -55.600  0.00  0.00    -0.316 N 
ATOM      9  H   UNL d   1     -42.910-121.368 -54.983  0.00  0.00     0.169 HD
ATOM     10  O   UNL d   1     -41.303-121.350 -55.721  0.00  0.00    -0.267 OA
BRANCH   8  11
ATOM     11  C   UNL d   1     -42.787-121.147 -56.414  0.00  0.00     0.094 A 
ATOM     12  C   UNL d   1     -43.423-121.353 -56.889  0.00  0.00     0.081 A 
ATOM     13  C   UNL d   1     -43.260-121.122 -57.667  0.00  0.00     0.008 A 
ATOM     14  C   UNL d   1     -43.691-121.188 -58.363  0.00  0.00    -0.004 A 
ATOM     15  C   UNL d   1     -42.519-120.771 -57.674  0.00  0.00     0.028 A 
ATOM     16  C   UNL d   1     -43.378-120.900 -59.066  0.00  0.00     0.099 A 
ATOM     17  C   UNL d   1     -44.045-121.128 -59.505  0.00  0.00     0.029 C 
ATOM     18  C   UNL d   1     -43.225-120.673 -59.848  0.00  0.00     0.029 C 
ATOM     19  N   UNL d   1     -42.637-120.546 -59.086  0.00  0.00    -0.294 NA
ATOM     20  C   UNL d   1     -42.204-120.482 -58.379  0.00  0.00     0.104 A 
ATOM     21  C   UNL d   1     -41.534-120.252 -57.944  0.00  0.00     0.029 C 
ATOM     22  C   UNL d   1     -41.855-120.178 -59.079  0.00  0.00     0.029 C 
ATOM     23  S   UNL d   1     -42.217-120.782 -56.898  0.00  0.00    -0.072 SA
BRANCH  12  24
ATOM     24  C   UNL d   1     -44.112-121.728 -56.642  0.00  0.00     0.299 C 
ATOM     25  O   UNL d   1     -44.812-121.313 -56.625  0.00  0.00    -0.264 OA
ATOM     26  N   UNL d   1     -44.089-122.507 -56.419  0.00  0.00    -0.102 N 
ENDBRANCH  12  24
ENDBRANCH   8  11
ENDBRANCH   2   7
BRANCH   1  27
ATOM     27  S   UNL d   1     -41.757-121.921 -51.994  0.00  0.00     0.271 S 
ATOM     28  O   UNL d   1     -42.329-121.327 -51.891  0.00  0.00    -0.200 OA
ATOM     29  O   UNL d   1     -41.190-122.509 -52.108  0.00  0.00    -0.200 OA
BRANCH  27  30
ATOM     30  N   UNL d   1     -41.701-122.054 -51.190  0.00  0.00    -0.226 N 
ATOM     31  C   UNL d   1     -41.855-121.450 -50.653  0.00  0.00     0.111 A 
ATOM     32  C   UNL d   1     -41.794-121.599 -49.845  0.00  0.00     0.105 A 
ATOM     33  N   UNL d   1     -41.580-122.348 -49.570  0.00  0.00    -0.248 N 
ATOM     34  C   UNL d   1     -41.427-122.949 -50.113  0.00  0.00     0.105 A 
ATOM     35  C   UNL d   1     -41.522-122.491 -48.769  0.00  0.00     0.378 C 
ATOM     36  C   UNL d   1     -41.488-122.799 -50.916  0.00  0.00     0.111 A 
ATOM     37  O   UNL d   1     -41.676-121.887 -48.232  0.00  0.00    -0.237 OA
BRANCH  35  38
ATOM     38  O   UNL d   1     -41.310-123.232 -48.500  0.00  0.00    -0.257 OA
BRANCH  38  39
ATOM     39  C   UNL d   1     -41.370-123.405 -47.704  0.00  0.00     0.128 C 
ATOM     40  C   UNL d   1     -41.585-122.811 -47.169  0.00  0.00     0.029 C 
ENDBRANCH  38  39
ENDBRANCH  35  38
ENDBRANCH  27  30
ENDBRANCH   1  27
TORSDOF 7
ENDMDL
