MODEL 1
REMARK VINA RESULT:       0.6      0.000      0.000
REMARK  9 active torsions:
REMARK  status: ('A' for Active; 'I' for Inactive)
REMARK    1  A    between atoms: N_3  and  C_1 
REMARK       I    between atoms: C_5  and  N_3 
REMARK    2  A    between atoms: C_9  and  N_3 
REMARK    3  A    between atoms: C_8  and  C_5 
REMARK    4  A    between atoms: C_16  and  C_9 
REMARK    5  A    between atoms: O_18  and  C_12 
REMARK    6  A    between atoms: N_17  and  C_16 
REMARK    7  A    between atoms: C_22  and  N_17 
REMARK    8  A    between atoms: C_23  and  N_17 
REMARK    9  A    between atoms: C_24  and  O_18 
ROOT
ATOM      1  N   UNL d   1      57.813   0.417  32.490  0.00  0.00    -0.250 N 
ATOM      2  C   UNL d   1      58.459   0.572  32.973  0.00  0.00     0.289 C 
ATOM      3  O   UNL d   1      59.196   0.682  32.654  0.00  0.00    -0.264 OA
ENDROOT
BRANCH   1   4
ATOM      4  C   UNL d   1      57.925   0.373  31.669  0.00  0.00     0.182 A 
ATOM      5  N   UNL d   1      58.583   0.011  31.283  0.00  0.00    -0.220 NA
ATOM      6  C   UNL d   1      58.470   0.095  30.442  0.00  0.00     0.112 A 
ATOM      7  C   UNL d   1      58.928  -0.148  29.790  0.00  0.00     0.118 A 
ATOM      8  C   UNL d   1      57.747   0.505  30.322  0.00  0.00     0.052 A 
ATOM      9  C   UNL d   1      58.673   0.014  29.012  0.00  0.00     0.026 A 
ATOM     10  C   UNL d   1      57.950   0.424  28.886  0.00  0.00     0.003 A 
ATOM     11  C   UNL d   1      57.494   0.665  29.555  0.00  0.00     0.008 A 
ATOM     12  S   UNL d   1      57.402   0.681  31.076  0.00  0.00    -0.048 SA
BRANCH   7  13
ATOM     13  O   UNL d   1      59.654  -0.560  29.915  0.00  0.00    -0.304 OA
BRANCH  13  14
ATOM     14  C   UNL d   1      60.005  -0.995  29.285  0.00  0.00     0.123 C 
ATOM     15  C   UNL d   1      60.527  -1.256  29.295  0.00  0.00     0.029 C 
ENDBRANCH  13  14
ENDBRANCH   7  13
ENDBRANCH   1   4
BRANCH   1  16
ATOM     16  C   UNL d   1      57.068   0.306  32.812  0.00  0.00     0.104 C 
BRANCH  16  17
ATOM     17  C   UNL d   1      56.623  -0.356  32.599  0.00  0.00     0.100 C 
BRANCH  17  18
ATOM     18  N   UNL d   1      55.923  -0.520  32.991  0.00  0.00    -0.301 N 
BRANCH  18  19
ATOM     19  C   UNL d   1      55.837  -1.233  33.397  0.00  0.00     0.080 C 
ATOM     20  C   UNL d   1      55.558  -1.895  33.002  0.00  0.00     0.021 C 
ENDBRANCH  18  19
BRANCH  18  21
ATOM     21  C   UNL d   1      55.311   0.023  32.981  0.00  0.00     0.080 C 
ATOM     22  C   UNL d   1      54.770   0.039  33.595  0.00  0.00     0.021 C 
ENDBRANCH  18  21
ENDBRANCH  17  18
ENDBRANCH  16  17
ENDBRANCH   1  16
BRANCH   2  23
ATOM     23  C   UNL d   1      58.345   0.614  33.786  0.00  0.00     0.156 A 
ATOM     24  O   UNL d   1      57.628   0.639  34.177  0.00  0.00    -0.300 OA
ATOM     25  C   UNL d   1      57.784   0.679  34.990  0.00  0.00     0.123 A 
ATOM     26  C   UNL d   1      58.585   0.679  35.088  0.00  0.00     0.029 A 
ATOM     27  C   UNL d   1      58.954   0.639  34.358  0.00  0.00     0.032 A 
ENDBRANCH   2  23
TORSDOF 9
ENDMDL
MODEL 2
REMARK VINA RESULT:       3.5      1.279      4.096
REMARK  9 active torsions:
REMARK  status: ('A' for Active; 'I' for Inactive)
REMARK    1  A    between atoms: N_3  and  C_1 
REMARK       I    between atoms: C_5  and  N_3 
REMARK    2  A    between atoms: C_9  and  N_3 
REMARK    3  A    between atoms: C_8  and  C_5 
REMARK    4  A    between atoms: C_16  and  C_9 
REMARK    5  A    between atoms: O_18  and  C_12 
REMARK    6  A    between atoms: N_17  and  C_16 
REMARK    7  A    between atoms: C_22  and  N_17 
REMARK    8  A    between atoms: C_23  and  N_17 
REMARK    9  A    between atoms: C_24  and  O_18 
ROOT
ATOM      1  N   UNL d   1      58.388   0.426  31.567  0.00  0.00    -0.250 N 
ATOM      2  C   UNL d   1      59.080   0.550  31.992  0.00  0.00     0.289 C 
ATOM      3  O   UNL d   1      59.056   0.678  32.792  0.00  0.00    -0.264 OA
ENDROOT
BRANCH   1   4
ATOM      4  C   UNL d   1      57.662   0.432  31.968  0.00  0.00     0.182 A 
ATOM      5  N   UNL d   1      57.551   0.239  32.783  0.00  0.00    -0.220 NA
ATOM      6  C   UNL d   1      56.720   0.319  32.959  0.00  0.00     0.112 A 
ATOM      7  C   UNL d   1      56.284   0.205  33.659  0.00  0.00     0.118 A 
ATOM      8  C   UNL d   1      56.333   0.559  32.254  0.00  0.00     0.052 A 
ATOM      9  C   UNL d   1      55.459   0.328  33.666  0.00  0.00     0.026 A 
ATOM     10  C   UNL d   1      55.065   0.568  32.964  0.00  0.00     0.003 A 
ATOM     11  C   UNL d   1      55.518   0.681  32.259  0.00  0.00     0.008 A 
ATOM     12  S   UNL d   1      56.908   0.632  31.634  0.00  0.00    -0.048 SA
BRANCH   7  13
ATOM     13  O   UNL d   1      56.678  -0.036  34.366  0.00  0.00    -0.304 OA
BRANCH  13  14
ATOM     14  C   UNL d   1      56.505   0.348  35.096  0.00  0.00     0.123 C 
ATOM     15  C   UNL d   1      56.857   0.380  35.560  0.00  0.00     0.029 C 
ENDBRANCH  13  14
ENDBRANCH   7  13
ENDBRANCH   1   4
BRANCH   1  16
ATOM     16  C   UNL d   1      58.412   0.296  30.758  0.00  0.00     0.104 C 
BRANCH  16  17
ATOM     17  C   UNL d   1      58.404  -0.475  30.465  0.00  0.00     0.100 C 
BRANCH  17  18
ATOM     18  N   UNL d   1      58.216  -0.610  29.680  0.00  0.00    -0.301 N 
BRANCH  18  19
ATOM     19  C   UNL d   1      58.509  -1.281  29.298  0.00  0.00     0.080 C 
ATOM     20  C   UNL d   1      58.262  -2.026  29.536  0.00  0.00     0.021 C 
ENDBRANCH  18  19
BRANCH  18  21
ATOM     21  C   UNL d   1      57.739  -0.083  29.275  0.00  0.00     0.080 C 
ATOM     22  C   UNL d   1      58.014   0.271  28.591  0.00  0.00     0.021 C 
ENDBRANCH  18  21
ENDBRANCH  17  18
ENDBRANCH  16  17
ENDBRANCH   1  16
BRANCH   2  23
ATOM     23  C   UNL d   1      59.798   0.543  31.591  0.00  0.00     0.156 A 
ATOM     24  O   UNL d   1      59.913   0.682  30.795  0.00  0.00    -0.300 OA
ATOM     25  C   UNL d   1      60.724   0.617  30.640  0.00  0.00     0.123 A 
ATOM     26  C   UNL d   1      61.094   0.440  31.336  0.00  0.00     0.029 A 
ATOM     27  C   UNL d   1      60.542   0.390  31.939  0.00  0.00     0.032 A 
ENDBRANCH   2  23
TORSDOF 9
ENDMDL
