MODEL 1
REMARK VINA RESULT:      -1.8      0.000      0.000
REMARK  3 active torsions:
REMARK  status: ('A' for Active; 'I' for Inactive)
REMARK    1  A    between atoms: S_3  and  N_1 
REMARK    2  A    between atoms: C_7  and  C_4 
REMARK    3  A    between atoms: C_11  and  C_5 
ROOT
ATOM      1  N   UNL d   1      31.973  17.971 -23.865  0.00  0.00    -0.155 N 
ATOM      2  N   UNL d   1      31.986  18.768 -23.583  0.00  0.00    -0.156 NA
ATOM      3  C   UNL d   1      32.549  17.577 -23.414  0.00  0.00     0.102 A 
ATOM      4  C   UNL d   1      32.546  18.835 -22.992  0.00  0.00     0.104 A 
ATOM      5  C   UNL d   1      32.893  18.080 -22.894  0.00  0.00     0.041 A 
ENDROOT
BRANCH   4   6
ATOM      6  C   UNL d   1      32.719  19.510 -22.588  0.00  0.00     0.019 A 
ATOM      7  C   UNL d   1      32.648  20.246 -22.968  0.00  0.00     0.002 A 
ATOM      8  C   UNL d   1      32.819  20.949 -22.575  0.00  0.00     0.007 A 
ATOM      9  C   UNL d   1      33.071  20.934 -21.777  0.00  0.00     0.035 A 
ATOM     10  C   UNL d   1      33.142  20.196 -21.396  0.00  0.00     0.007 A 
ATOM     11 BR   UNL d   1      33.241  21.632 -21.385  0.00  0.00    -0.049 Br
ATOM     12  C   UNL d   1      32.970  19.492 -21.791  0.00  0.00     0.002 A 
ENDBRANCH   4   6
BRANCH   1  13
ATOM     13  S   UNL d   1      31.504  17.669 -24.444  0.00  0.00     0.266 S 
ATOM     14  O   UNL d   1      31.021  17.359 -25.056  0.00  0.00    -0.203 OA
ATOM     15  O   UNL d   1      31.008  17.363 -23.887  0.00  0.00    -0.203 OA
ATOM     16  C   UNL d   1      32.020  17.989 -25.021  0.00  0.00     0.165 C 
ENDBRANCH   1  13
BRANCH   3  17
ATOM     17  C   UNL d   1      32.731  16.778 -23.498  0.00  0.00     0.048 A 
ATOM     18  S   UNL d   1      33.196  16.432 -24.080  0.00  0.00    -0.085 SA
ATOM     19  C   UNL d   1      33.233  15.634 -23.957  0.00  0.00     0.035 A 
ATOM     20  C   UNL d   1      32.789  15.463 -23.291  0.00  0.00     0.007 A 
ATOM     21  C   UNL d   1      32.481  16.155 -23.006  0.00  0.00     0.009 A 
ENDBRANCH   3  17
TORSDOF 3
ENDMDL
MODEL 2
REMARK VINA RESULT:      -1.6      1.419      1.768
REMARK  3 active torsions:
REMARK  status: ('A' for Active; 'I' for Inactive)
REMARK    1  A    between atoms: S_3  and  N_1 
REMARK    2  A    between atoms: C_7  and  C_4 
REMARK    3  A    between atoms: C_11  and  C_5 
ROOT
ATOM      1  N   UNL d   1      32.625  17.062 -23.317  0.00  0.00    -0.155 N 
ATOM      2  N   UNL d   1      33.022  17.757 -23.043  0.00  0.00    -0.156 NA
ATOM      3  C   UNL d   1      31.868  17.322 -23.536  0.00  0.00     0.102 A 
ATOM      4  C   UNL d   1      32.515  18.396 -23.102  0.00  0.00     0.104 A 
ATOM      5  C   UNL d   1      31.793  18.110 -23.412  0.00  0.00     0.041 A 
ENDROOT
BRANCH   4   6
ATOM      6  C   UNL d   1      32.694  19.153 -22.893  0.00  0.00     0.019 A 
ATOM      7  C   UNL d   1      32.653  19.758 -23.462  0.00  0.00     0.002 A 
ATOM      8  C   UNL d   1      32.832  20.538 -23.271  0.00  0.00     0.007 A 
ATOM      9  C   UNL d   1      33.062  20.738 -22.492  0.00  0.00     0.035 A 
ATOM     10  C   UNL d   1      33.104  20.131 -21.921  0.00  0.00     0.007 A 
ATOM     11 BR   UNL d   1      33.240  21.514 -22.301  0.00  0.00    -0.049 Br
ATOM     12  C   UNL d   1      32.924  19.349 -22.114  0.00  0.00     0.002 A 
ENDBRANCH   4   6
BRANCH   1  13
ATOM     13  S   UNL d   1      32.924  16.317 -23.353  0.00  0.00     0.266 S 
ATOM     14  O   UNL d   1      33.241  15.541 -23.402  0.00  0.00    -0.203 OA
ATOM     15  O   UNL d   1      32.619  16.155 -22.625  0.00  0.00    -0.203 OA
ATOM     16  C   UNL d   1      33.241  16.487 -24.110  0.00  0.00     0.165 C 
ENDBRANCH   1  13
BRANCH   3  17
ATOM     17  C   UNL d   1      31.281  16.829 -23.839  0.00  0.00     0.048 A 
ATOM     18  S   UNL d   1      30.811  16.301 -23.421  0.00  0.00    -0.085 SA
ATOM     19  C   UNL d   1      30.307  15.927 -23.931  0.00  0.00     0.035 A 
ATOM     20  C   UNL d   1      30.452  16.215 -24.682  0.00  0.00     0.007 A 
ATOM     21  C   UNL d   1      31.045  16.765 -24.634  0.00  0.00     0.009 A 
ENDBRANCH   3  17
TORSDOF 3
ENDMDL
MODEL 3
REMARK VINA RESULT:      -1.1      3.452      5.222
REMARK  3 active torsions:
REMARK  status: ('A' for Active; 'I' for Inactive)
REMARK    1  A    between atoms: S_3  and  N_1 
REMARK    2  A    between atoms: C_7  and  C_4 
REMARK    3  A    between atoms: C_11  and  C_5 
ROOT
ATOM      1  N   UNL d   1      32.298  22.089 -21.390  0.00  0.00    -0.155 N 
ATOM      2  N   UNL d   1      32.284  21.423 -21.911  0.00  0.00    -0.156 NA
ATOM      3  C   UNL d   1      32.784  21.855 -20.758  0.00  0.00     0.102 A 
ATOM      4  C   UNL d   1      32.744  20.825 -21.594  0.00  0.00     0.104 A 
ATOM      5  C   UNL d   1      33.052  21.109 -20.870  0.00  0.00     0.041 A 
ENDROOT
BRANCH   4   6
ATOM      6  C   UNL d   1      32.865  20.104 -21.931  0.00  0.00     0.019 A 
ATOM      7  C   UNL d   1      32.733  20.002 -22.745  0.00  0.00     0.002 A 
ATOM      8  C   UNL d   1      32.851  19.274 -23.110  0.00  0.00     0.007 A 
ATOM      9  C   UNL d   1      33.109  18.615 -22.662  0.00  0.00     0.035 A 
ATOM     10  C   UNL d   1      33.241  18.718 -21.845  0.00  0.00     0.007 A 
ATOM     11 BR   UNL d   1      33.226  17.891 -23.024  0.00  0.00    -0.049 Br
ATOM     12  C   UNL d   1      33.122  19.448 -21.480  0.00  0.00     0.002 A 
ENDBRANCH   4   6
BRANCH   1  13
ATOM     13  S   UNL d   1      31.920  22.791 -21.492  0.00  0.00     0.266 S 
ATOM     14  O   UNL d   1      31.535  23.528 -21.606  0.00  0.00    -0.203 OA
ATOM     15  O   UNL d   1      31.314  22.538 -21.025  0.00  0.00    -0.203 OA
ATOM     16  C   UNL d   1      32.551  23.053 -21.977  0.00  0.00     0.165 C 
ENDBRANCH   1  13
BRANCH   3  17
ATOM     17  C   UNL d   1      32.959  22.334 -20.111  0.00  0.00     0.048 A 
ATOM     18  S   UNL d   1      33.046  22.100 -19.328  0.00  0.00    -0.085 SA
ATOM     19  C   UNL d   1      33.217  22.744 -18.872  0.00  0.00     0.035 A 
ATOM     20  C   UNL d   1      33.241  23.399 -19.362  0.00  0.00     0.007 A 
ATOM     21  C   UNL d   1      33.085  23.156 -20.118  0.00  0.00     0.009 A 
ENDBRANCH   3  17
TORSDOF 3
ENDMDL
MODEL 4
REMARK VINA RESULT:       0.8      4.539      5.685
REMARK  3 active torsions:
REMARK  status: ('A' for Active; 'I' for Inactive)
REMARK    1  A    between atoms: S_3  and  N_1 
REMARK    2  A    between atoms: C_7  and  C_4 
REMARK    3  A    between atoms: C_11  and  C_5 
ROOT
ATOM      1  N   UNL d   1      32.406  21.798 -20.808  0.00  0.00    -0.155 N 
ATOM      2  N   UNL d   1      32.471  21.809 -21.651  0.00  0.00    -0.156 NA
ATOM      3  C   UNL d   1      32.466  22.595 -20.579  0.00  0.00     0.102 A 
ATOM      4  C   UNL d   1      32.565  22.582 -21.902  0.00  0.00     0.104 A 
ATOM      5  C   UNL d   1      32.561  23.066 -21.220  0.00  0.00     0.041 A 
ENDROOT
BRANCH   4   6
ATOM      6  C   UNL d   1      32.646  22.815 -22.669  0.00  0.00     0.019 A 
ATOM      7  C   UNL d   1      33.143  22.387 -23.179  0.00  0.00     0.002 A 
ATOM      8  C   UNL d   1      33.241  22.607 -23.966  0.00  0.00     0.007 A 
ATOM      9  C   UNL d   1      32.836  23.273 -24.270  0.00  0.00     0.035 A 
ATOM     10  C   UNL d   1      32.337  23.702 -23.758  0.00  0.00     0.007 A 
ATOM     11 BR   UNL d   1      32.932  23.493 -25.052  0.00  0.00    -0.049 Br
ATOM     12  C   UNL d   1      32.241  23.481 -22.969  0.00  0.00     0.002 A 
ENDBRANCH   4   6
BRANCH   1  13
ATOM     13  S   UNL d   1      32.307  21.153 -20.338  0.00  0.00     0.266 S 
ATOM     14  O   UNL d   1      32.217  20.480 -19.846  0.00  0.00    -0.203 OA
ATOM     15  O   UNL d   1      31.516  21.158 -20.492  0.00  0.00    -0.203 OA
ATOM     16  C   UNL d   1      33.130  21.150 -20.180  0.00  0.00     0.165 C 
ENDBRANCH   1  13
BRANCH   3  17
ATOM     17  C   UNL d   1      32.432  22.853 -19.798  0.00  0.00     0.048 A 
ATOM     18  S   UNL d   1      31.762  22.944 -19.332  0.00  0.00    -0.085 SA
ATOM     19  C   UNL d   1      31.976  23.210 -18.600  0.00  0.00     0.035 A 
ATOM     20  C   UNL d   1      32.790  23.291 -18.591  0.00  0.00     0.007 A 
ATOM     21  C   UNL d   1      33.074  23.075 -19.318  0.00  0.00     0.009 A 
ENDBRANCH   3  17
TORSDOF 3
ENDMDL
