MODEL 1
REMARK VINA RESULT:      -6.7      0.000      0.000
REMARK  5 active torsions:
REMARK  status: ('A' for Active; 'I' for Inactive)
REMARK    1  A    between atoms: C_7  and  C_4 
REMARK    2  A    between atoms: O_9  and  C_7 
REMARK    3  A    between atoms: O_15  and  C_8 
REMARK    4  A    between atoms: C_17  and  O_9 
REMARK    5  A    between atoms: O_16  and  C_11 
ROOT
ATOM      1  C   UNL d   1     -48.438  12.754  23.313  0.00  0.00     0.228 A 
ATOM      2  C   UNL d   1     -48.771  13.490  23.138  0.00  0.00     0.070 A 
ATOM      3  S   UNL d   1     -47.617  12.648  23.253  0.00  0.00    -0.040 SA
ATOM      4  C   UNL d   1     -47.134  13.285  23.017  0.00  0.00     0.096 A 
ATOM      5  C   UNL d   1     -48.293  14.121  22.904  0.00  0.00     0.006 A 
ATOM      6  C   UNL d   1     -47.478  14.021  22.843  0.00  0.00     0.012 A 
ATOM      7  C   UNL d   1     -49.590  13.585  23.201  0.00  0.00     0.120 A 
ATOM      8  O   UNL d   1     -48.916  12.123  23.546  0.00  0.00    -0.279 OA
ATOM      9  C   UNL d   1     -49.927  14.316  23.028  0.00  0.00     0.116 A 
ATOM     10  C   UNL d   1     -48.630  14.853  22.731  0.00  0.00     0.002 A 
ATOM     11  C   UNL d   1     -49.449  14.946  22.795  0.00  0.00     0.026 A 
ENDROOT
BRANCH   4  12
ATOM     12  C   UNL d   1     -46.320  13.176  22.959  0.00  0.00     0.306 C 
ATOM     13  O   UNL d   1     -45.843  13.329  23.613  0.00  0.00    -0.258 OA
BRANCH  12  14
ATOM     14  O   UNL d   1     -45.984  12.917  22.253  0.00  0.00    -0.273 OA
BRANCH  14  15
ATOM     15  C   UNL d   1     -45.168  12.805  22.200  0.00  0.00     0.103 C 
ATOM     16  C   UNL d   1     -44.819  12.147  22.550  0.00  0.00     0.027 C 
ATOM     17  C   UNL d   1     -44.703  13.356  21.796  0.00  0.00     0.027 C 
ENDBRANCH  14  15
ENDBRANCH  12  14
ENDBRANCH   4  12
BRANCH   7  18
ATOM     18  O   UNL d   1     -50.068  12.955  23.434  0.00  0.00    -0.326 OA
ATOM     19  C   UNL d   1     -50.634  12.648  22.908  0.00  0.00     0.181 C 
ENDBRANCH   7  18
BRANCH   9  20
ATOM     20  O   UNL d   1     -50.745  14.419  23.089  0.00  0.00    -0.326 OA
ATOM     21  C   UNL d   1     -51.064  15.177  23.112  0.00  0.00     0.181 C 
ENDBRANCH   9  20
TORSDOF 5
ENDMDL
MODEL 2
REMARK VINA RESULT:      -6.4      0.852      1.605
REMARK  5 active torsions:
REMARK  status: ('A' for Active; 'I' for Inactive)
REMARK    1  A    between atoms: C_7  and  C_4 
REMARK    2  A    between atoms: O_9  and  C_7 
REMARK    3  A    between atoms: O_15  and  C_8 
REMARK    4  A    between atoms: C_17  and  O_9 
REMARK    5  A    between atoms: O_16  and  C_11 
ROOT
ATOM      1  C   UNL d   1     -48.112  14.006  22.774  0.00  0.00     0.228 A 
ATOM      2  C   UNL d   1     -48.550  13.332  22.969  0.00  0.00     0.070 A 
ATOM      3  S   UNL d   1     -47.285  13.958  22.717  0.00  0.00    -0.040 SA
ATOM      4  C   UNL d   1     -46.903  13.230  22.856  0.00  0.00     0.096 A 
ATOM      5  C   UNL d   1     -48.171  12.612  23.106  0.00  0.00     0.006 A 
ATOM      6  C   UNL d   1     -47.352  12.559  23.050  0.00  0.00     0.012 A 
ATOM      7  C   UNL d   1     -49.373  13.391  23.023  0.00  0.00     0.120 A 
ATOM      8  O   UNL d   1     -48.490  14.726  22.637  0.00  0.00    -0.279 OA
ATOM      9  C   UNL d   1     -49.815  12.724  23.216  0.00  0.00     0.116 A 
ATOM     10  C   UNL d   1     -48.613  11.944  23.299  0.00  0.00     0.002 A 
ATOM     11  C   UNL d   1     -49.436  12.004  23.353  0.00  0.00     0.026 A 
ENDROOT
BRANCH   4  12
ATOM     12  C   UNL d   1     -46.083  13.186  22.798  0.00  0.00     0.306 C 
ATOM     13  O   UNL d   1     -45.619  13.423  23.436  0.00  0.00    -0.258 OA
BRANCH  12  14
ATOM     14  O   UNL d   1     -45.728  12.909  22.110  0.00  0.00    -0.273 OA
BRANCH  14  15
ATOM     15  C   UNL d   1     -44.916  12.762  22.093  0.00  0.00     0.103 C 
ATOM     16  C   UNL d   1     -44.610  12.098  22.471  0.00  0.00     0.027 C 
ATOM     17  C   UNL d   1     -44.412  13.283  21.695  0.00  0.00     0.027 C 
ENDBRANCH  14  15
ENDBRANCH  12  14
ENDBRANCH   4  12
BRANCH   7  18
ATOM     18  O   UNL d   1     -49.752  14.111  22.886  0.00  0.00    -0.326 OA
ATOM     19  C   UNL d   1     -50.322  14.170  22.284  0.00  0.00     0.181 C 
ENDBRANCH   7  18
BRANCH   9  20
ATOM     20  O   UNL d   1     -50.638  12.774  23.272  0.00  0.00    -0.326 OA
ATOM     21  C   UNL d   1     -51.064  12.170  23.632  0.00  0.00     0.181 C 
ENDBRANCH   9  20
TORSDOF 5
ENDMDL
MODEL 3
REMARK VINA RESULT:      -6.0      1.499      2.161
REMARK  5 active torsions:
REMARK  status: ('A' for Active; 'I' for Inactive)
REMARK    1  A    between atoms: C_7  and  C_4 
REMARK    2  A    between atoms: O_9  and  C_7 
REMARK    3  A    between atoms: O_15  and  C_8 
REMARK    4  A    between atoms: C_17  and  O_9 
REMARK    5  A    between atoms: O_16  and  C_11 
ROOT
ATOM      1  C   UNL d   1     -47.583  11.544  23.379  0.00  0.00     0.228 A 
ATOM      2  C   UNL d   1     -47.514  12.353  23.223  0.00  0.00     0.070 A 
ATOM      3  S   UNL d   1     -46.899  11.083  23.476  0.00  0.00    -0.040 SA
ATOM      4  C   UNL d   1     -46.149  11.440  23.417  0.00  0.00     0.096 A 
ATOM      5  C   UNL d   1     -46.770  12.706  23.164  0.00  0.00     0.006 A 
ATOM      6  C   UNL d   1     -46.089  12.254  23.260  0.00  0.00     0.012 A 
ATOM      7  C   UNL d   1     -48.201  12.804  23.127  0.00  0.00     0.120 A 
ATOM      8  O   UNL d   1     -48.327  11.191  23.438  0.00  0.00    -0.279 OA
ATOM      9  C   UNL d   1     -48.139  13.609  22.972  0.00  0.00     0.116 A 
ATOM     10  C   UNL d   1     -46.707  13.513  23.009  0.00  0.00     0.002 A 
ATOM     11  C   UNL d   1     -47.395  13.962  22.913  0.00  0.00     0.026 A 
ENDROOT
BRANCH   4  12
ATOM     12  C   UNL d   1     -45.473  10.979  23.514  0.00  0.00     0.306 C 
ATOM     13  O   UNL d   1     -45.550  10.180  23.698  0.00  0.00    -0.258 OA
BRANCH  12  14
ATOM     14  O   UNL d   1     -44.726  11.313  23.430  0.00  0.00    -0.273 OA
BRANCH  14  15
ATOM     15  C   UNL d   1     -44.071  10.832  23.285  0.00  0.00     0.103 C 
ATOM     16  C   UNL d   1     -43.465  11.098  22.795  0.00  0.00     0.027 C 
ATOM     17  C   UNL d   1     -44.026  10.083  23.632  0.00  0.00     0.027 C 
ENDBRANCH  14  15
ENDBRANCH  12  14
ENDBRANCH   4  12
BRANCH   7  18
ATOM     18  O   UNL d   1     -48.944  12.451  23.186  0.00  0.00    -0.326 OA
ATOM     19  C   UNL d   1     -49.467  12.477  22.540  0.00  0.00     0.181 C 
ENDBRANCH   7  18
BRANCH   9  20
ATOM     20  O   UNL d   1     -48.821  14.066  22.875  0.00  0.00    -0.326 OA
ATOM     21  C   UNL d   1     -48.772  14.887  22.890  0.00  0.00     0.181 C 
ENDBRANCH   9  20
TORSDOF 5
ENDMDL
MODEL 4
REMARK VINA RESULT:      -5.3      8.743      9.467
REMARK  5 active torsions:
REMARK  status: ('A' for Active; 'I' for Inactive)
REMARK    1  A    between atoms: C_7  and  C_4 
REMARK    2  A    between atoms: O_9  and  C_7 
REMARK    3  A    between atoms: O_15  and  C_8 
REMARK    4  A    between atoms: C_17  and  O_9 
REMARK    5  A    between atoms: O_16  and  C_11 
ROOT
ATOM      1  C   UNL d   1     -39.236  14.198  20.116  0.00  0.00     0.228 A 
ATOM      2  C   UNL d   1     -39.471  14.754  20.681  0.00  0.00     0.070 A 
ATOM      3  S   UNL d   1     -39.568  14.219  19.355  0.00  0.00    -0.040 SA
ATOM      4  C   UNL d   1     -40.136  14.799  19.167  0.00  0.00     0.096 A 
ATOM      5  C   UNL d   1     -40.034  15.328  20.495  0.00  0.00     0.006 A 
ATOM      6  C   UNL d   1     -40.366  15.353  19.742  0.00  0.00     0.012 A 
ATOM      7  C   UNL d   1     -39.134  14.725  21.436  0.00  0.00     0.120 A 
ATOM      8  O   UNL d   1     -38.673  13.624  20.301  0.00  0.00    -0.279 OA
ATOM      9  C   UNL d   1     -39.364  15.275  22.003  0.00  0.00     0.116 A 
ATOM     10  C   UNL d   1     -40.264  15.879  21.063  0.00  0.00     0.002 A 
ATOM     11  C   UNL d   1     -39.927  15.849  21.817  0.00  0.00     0.026 A 
ENDROOT
BRANCH   4  12
ATOM     12  C   UNL d   1     -40.463  14.816  18.412  0.00  0.00     0.306 C 
ATOM     13  O   UNL d   1     -40.944  14.195  18.164  0.00  0.00    -0.258 OA
BRANCH  12  14
ATOM     14  O   UNL d   1     -40.311  15.448  17.906  0.00  0.00    -0.273 OA
BRANCH  14  15
ATOM     15  C   UNL d   1     -40.587  15.431  17.129  0.00  0.00     0.103 C 
ATOM     16  C   UNL d   1     -40.138  15.070  16.540  0.00  0.00     0.027 C 
ATOM     17  C   UNL d   1     -41.315  15.777  16.942  0.00  0.00     0.027 C 
ENDBRANCH  14  15
ENDBRANCH  12  14
ENDBRANCH   4  12
BRANCH   7  18
ATOM     18  O   UNL d   1     -38.572  14.150  21.622  0.00  0.00    -0.326 OA
ATOM     19  C   UNL d   1     -38.713  13.621  22.246  0.00  0.00     0.181 C 
ENDBRANCH   7  18
BRANCH   9  20
ATOM     20  O   UNL d   1     -39.032  15.253  22.760  0.00  0.00    -0.326 OA
ATOM     21  C   UNL d   1     -39.052  15.922  23.238  0.00  0.00     0.181 C 
ENDBRANCH   9  20
TORSDOF 5
ENDMDL
MODEL 5
REMARK VINA RESULT:      -5.1      8.532     10.702
REMARK  5 active torsions:
REMARK  status: ('A' for Active; 'I' for Inactive)
REMARK    1  A    between atoms: C_7  and  C_4 
REMARK    2  A    between atoms: O_9  and  C_7 
REMARK    3  A    between atoms: O_15  and  C_8 
REMARK    4  A    between atoms: C_17  and  O_9 
REMARK    5  A    between atoms: O_16  and  C_11 
ROOT
ATOM      1  C   UNL d   1     -39.696  15.248  17.786  0.00  0.00     0.228 A 
ATOM      2  C   UNL d   1     -39.258  14.634  17.447  0.00  0.00     0.070 A 
ATOM      3  S   UNL d   1     -39.950  15.186  18.574  0.00  0.00    -0.040 SA
ATOM      4  C   UNL d   1     -39.761  14.506  19.017  0.00  0.00     0.096 A 
ATOM      5  C   UNL d   1     -39.071  13.961  17.886  0.00  0.00     0.006 A 
ATOM      6  C   UNL d   1     -39.321  13.895  18.667  0.00  0.00     0.012 A 
ATOM      7  C   UNL d   1     -39.009  14.706  16.661  0.00  0.00     0.120 A 
ATOM      8  O   UNL d   1     -39.882  15.922  17.348  0.00  0.00    -0.279 OA
ATOM      9  C   UNL d   1     -38.573  14.099  16.318  0.00  0.00     0.116 A 
ATOM     10  C   UNL d   1     -38.634  13.353  17.542  0.00  0.00     0.002 A 
ATOM     11  C   UNL d   1     -38.387  13.425  16.756  0.00  0.00     0.026 A 
ENDROOT
BRANCH   4  12
ATOM     12  C   UNL d   1     -40.015  14.448  19.798  0.00  0.00     0.306 C 
ATOM     13  O   UNL d   1     -40.793  14.227  19.956  0.00  0.00    -0.258 OA
BRANCH  12  14
ATOM     14  O   UNL d   1     -39.497  14.610  20.418  0.00  0.00    -0.273 OA
BRANCH  14  15
ATOM     15  C   UNL d   1     -39.771  14.612  21.196  0.00  0.00     0.103 C 
ATOM     16  C   UNL d   1     -40.110  15.293  21.512  0.00  0.00     0.027 C 
ATOM     17  C   UNL d   1     -39.705  13.929  21.658  0.00  0.00     0.027 C 
ENDBRANCH  14  15
ENDBRANCH  12  14
ENDBRANCH   4  12
BRANCH   7  18
ATOM     18  O   UNL d   1     -39.196  15.380  16.223  0.00  0.00    -0.326 OA
ATOM     19  C   UNL d   1     -38.597  15.919  16.019  0.00  0.00     0.181 C 
ENDBRANCH   7  18
BRANCH   9  20
ATOM     20  O   UNL d   1     -38.321  14.162  15.533  0.00  0.00    -0.326 OA
ATOM     21  C   UNL d   1     -37.940  13.530  15.170  0.00  0.00     0.181 C 
ENDBRANCH   9  20
TORSDOF 5
ENDMDL
MODEL 6
REMARK VINA RESULT:      -5.1      9.101      9.636
REMARK  5 active torsions:
REMARK  status: ('A' for Active; 'I' for Inactive)
REMARK    1  A    between atoms: C_7  and  C_4 
REMARK    2  A    between atoms: O_9  and  C_7 
REMARK    3  A    between atoms: O_15  and  C_8 
REMARK    4  A    between atoms: C_17  and  O_9 
REMARK    5  A    between atoms: O_16  and  C_11 
ROOT
ATOM      1  C   UNL d   1     -39.291  14.072  18.617  0.00  0.00     0.228 A 
ATOM      2  C   UNL d   1     -39.843  14.664  18.449  0.00  0.00     0.070 A 
ATOM      3  S   UNL d   1     -38.967  14.016  19.380  0.00  0.00    -0.040 SA
ATOM      4  C   UNL d   1     -39.200  14.557  19.969  0.00  0.00     0.096 A 
ATOM      5  C   UNL d   1     -40.074  15.199  19.032  0.00  0.00     0.006 A 
ATOM      6  C   UNL d   1     -39.756  15.148  19.790  0.00  0.00     0.012 A 
ATOM      7  C   UNL d   1     -40.159  14.711  17.686  0.00  0.00     0.120 A 
ATOM      8  O   UNL d   1     -39.059  13.536  18.034  0.00  0.00    -0.279 OA
ATOM      9  C   UNL d   1     -40.709  15.297  17.512  0.00  0.00     0.116 A 
ATOM     10  C   UNL d   1     -40.625  15.787  18.858  0.00  0.00     0.002 A 
ATOM     11  C   UNL d   1     -40.941  15.833  18.095  0.00  0.00     0.026 A 
ENDROOT
BRANCH   4  12
ATOM     12  C   UNL d   1     -38.877  14.498  20.724  0.00  0.00     0.306 C 
ATOM     13  O   UNL d   1     -38.145  14.844  20.879  0.00  0.00    -0.258 OA
BRANCH  12  14
ATOM     14  O   UNL d   1     -39.279  14.097  21.320  0.00  0.00    -0.273 OA
BRANCH  14  15
ATOM     15  C   UNL d   1     -38.946  14.030  22.072  0.00  0.00     0.103 C 
ATOM     16  C   UNL d   1     -39.031  14.642  22.616  0.00  0.00     0.027 C 
ATOM     17  C   UNL d   1     -38.527  13.348  22.277  0.00  0.00     0.027 C 
ENDBRANCH  14  15
ENDBRANCH  12  14
ENDBRANCH   4  12
BRANCH   7  18
ATOM     18  O   UNL d   1     -39.928  14.175  17.103  0.00  0.00    -0.326 OA
ATOM     19  C   UNL d   1     -39.438  14.428  16.481  0.00  0.00     0.181 C 
ENDBRANCH   7  18
BRANCH   9  20
ATOM     20  O   UNL d   1     -41.031  15.351  16.752  0.00  0.00    -0.326 OA
ATOM     21  C   UNL d   1     -41.645  15.877  16.601  0.00  0.00     0.181 C 
ENDBRANCH   9  20
TORSDOF 5
ENDMDL
MODEL 7
REMARK VINA RESULT:      -5.0      7.869      9.636
REMARK  5 active torsions:
REMARK  status: ('A' for Active; 'I' for Inactive)
REMARK    1  A    between atoms: C_7  and  C_4 
REMARK    2  A    between atoms: O_9  and  C_7 
REMARK    3  A    between atoms: O_15  and  C_8 
REMARK    4  A    between atoms: C_17  and  O_9 
REMARK    5  A    between atoms: O_16  and  C_11 
ROOT
ATOM      1  C   UNL d   1     -40.342  15.064  19.202  0.00  0.00     0.228 A 
ATOM      2  C   UNL d   1     -39.900  15.006  19.899  0.00  0.00     0.070 A 
ATOM      3  S   UNL d   1     -40.110  14.633  18.531  0.00  0.00    -0.040 SA
ATOM      4  C   UNL d   1     -39.435  14.145  18.566  0.00  0.00     0.096 A 
ATOM      5  C   UNL d   1     -39.232  14.524  19.933  0.00  0.00     0.006 A 
ATOM      6  C   UNL d   1     -38.998  14.094  19.271  0.00  0.00     0.012 A 
ATOM      7  C   UNL d   1     -40.139  15.440  20.562  0.00  0.00     0.120 A 
ATOM      8  O   UNL d   1     -41.010  15.546  19.168  0.00  0.00    -0.279 OA
ATOM      9  C   UNL d   1     -39.705  15.387  21.258  0.00  0.00     0.116 A 
ATOM     10  C   UNL d   1     -38.796  14.470  20.630  0.00  0.00     0.002 A 
ATOM     11  C   UNL d   1     -39.036  14.904  21.292  0.00  0.00     0.026 A 
ENDROOT
BRANCH   4  12
ATOM     12  C   UNL d   1     -39.209  13.720  17.898  0.00  0.00     0.306 C 
ATOM     13  O   UNL d   1     -39.633  13.046  17.684  0.00  0.00    -0.258 OA
BRANCH  12  14
ATOM     14  O   UNL d   1     -38.564  13.963  17.448  0.00  0.00    -0.273 OA
BRANCH  14  15
ATOM     15  C   UNL d   1     -38.311  13.507  16.808  0.00  0.00     0.103 C 
ATOM     16  C   UNL d   1     -38.397  13.792  16.040  0.00  0.00     0.027 C 
ATOM     17  C   UNL d   1     -37.971  12.765  16.939  0.00  0.00     0.027 C 
ENDBRANCH  14  15
ENDBRANCH  12  14
ENDBRANCH   4  12
BRANCH   7  18
ATOM     18  O   UNL d   1     -40.808  15.922  20.528  0.00  0.00    -0.326 OA
ATOM     19  C   UNL d   1     -41.453  15.770  21.029  0.00  0.00     0.181 C 
ENDBRANCH   7  18
BRANCH   9  20
ATOM     20  O   UNL d   1     -39.937  15.817  21.925  0.00  0.00    -0.326 OA
ATOM     21  C   UNL d   1     -39.420  15.904  22.559  0.00  0.00     0.181 C 
ENDBRANCH   9  20
TORSDOF 5
ENDMDL
