MODEL 1
REMARK VINA RESULT:      66.9      0.000      0.000
REMARK  1 active torsions:
REMARK  status: ('A' for Active; 'I' for Inactive)
REMARK    1  A    between atoms: C_9  and  C_3 
REMARK       I    between atoms: C_10  and  N_4 
ROOT
ATOM      1  N   UNL d   1      45.697 -17.723  42.413  0.00  0.00    -0.047 N 
ATOM      2  N   UNL d   1      45.672 -17.278  43.100  0.00  0.00    -0.188 N 
ATOM      3  C   UNL d   1      45.349 -16.533  42.956  0.00  0.00     0.194 A 
ATOM      4  N   UNL d   1      45.997 -18.414  42.546  0.00  0.00    -0.172 N 
ATOM      5  N   UNL d   1      45.155 -16.487  42.141  0.00  0.00    -0.083 NA
ATOM      6  C   UNL d   1      45.978 -17.741  43.673  0.00  0.00     0.104 A 
ATOM      7  O   UNL d   1      45.375 -17.237  41.802  0.00  0.00    -0.089 OA
ATOM      8  C   UNL d   1      46.185 -18.462  43.328  0.00  0.00     0.106 A 
ATOM      9  C   UNL d   1      46.104 -19.013  41.955  0.00  0.00     0.282 C 
ATOM     10  O   UNL d   1      45.882 -18.873  41.183  0.00  0.00    -0.265 OA
ATOM     11  C   UNL d   1      46.103 -17.612  44.488  0.00  0.00     0.021 A 
ATOM     12  C   UNL d   1      46.515 -19.046  43.796  0.00  0.00     0.021 A 
ATOM     13  C   UNL d   1      46.436 -19.749  42.157  0.00  0.00     0.068 C 
ATOM     14  C   UNL d   1      46.647 -18.947  44.584  0.00  0.00     0.002 A 
ATOM     15  C   UNL d   1      46.440 -18.215  44.953  0.00  0.00     0.002 A 
ENDROOT
BRANCH   3  16
ATOM     16  C   UNL d   1      45.266 -15.989  43.558  0.00  0.00     0.038 A 
ATOM     17  C   UNL d   1      44.567 -15.892  43.930  0.00  0.00     0.003 A 
ATOM     18  C   UNL d   1      44.505 -15.322  44.551  0.00  0.00     0.000 A 
ATOM     19  C   UNL d   1      43.898 -16.332  43.728  0.00  0.00     0.000 C 
ATOM     20  C   UNL d   1      43.796 -15.198  44.955  0.00  0.00     0.000 C 
ATOM     21  C   UNL d   1      45.141 -14.898  44.749  0.00  0.00     0.000 A 
ATOM     22  C   UNL d   1      45.840 -14.995  44.377  0.00  0.00     0.000 A 
ATOM     23  C   UNL d   1      45.923 -15.538  43.775  0.00  0.00     0.003 A 
ATOM     24  C   UNL d   1      46.531 -14.528  44.597  0.00  0.00     0.000 C 
ATOM     25  C   UNL d   1      46.645 -15.638  43.390  0.00  0.00     0.000 C 
ENDBRANCH   3  16
TORSDOF 1
ENDMDL
