MODEL 1
REMARK VINA RESULT:      72.0      0.000      0.000
REMARK  5 active torsions:
REMARK  status: ('A' for Active; 'I' for Inactive)
REMARK    1  A    between atoms: C_18  and  N_1 
REMARK    2  A    between atoms: C_13  and  C_6 
REMARK    3  A    between atoms: C_12  and  C_7 
REMARK    4  A    between atoms: C_23  and  C_14 
REMARK    5  A    between atoms: C_19  and  C_18 
ROOT
ATOM      1  C   UNL d   1      46.494 -18.215  44.420  0.00  0.00     0.121 A 
ATOM      2  C   UNL d   1      46.205 -18.254  43.644  0.00  0.00     0.058 A 
ATOM      3  N   UNL d   1      46.622 -18.987  44.676  0.00  0.00    -0.195 NA
ATOM      4  S   UNL d   1      46.598 -17.484  44.782  0.00  0.00    -0.068 SA
ATOM      5  C   UNL d   1      46.417 -16.786  44.376  0.00  0.00     0.026 A 
ATOM      6  C   UNL d   1      46.129 -16.825  43.600  0.00  0.00    -0.001 A 
ATOM      7  C   UNL d   1      46.398 -15.848  44.432  0.00  0.00    -0.011 A 
ATOM      8  C   UNL d   1      46.085 -16.007  43.575  0.00  0.00    -0.027 A 
ATOM      9  C   UNL d   1      46.023 -17.562  43.234  0.00  0.00     0.008 A 
ATOM     10  C   UNL d   1      46.415 -19.500  44.062  0.00  0.00     0.311 A 
ATOM     11  S   UNL d   1      46.159 -19.050  43.428  0.00  0.00    -0.024 SA
ATOM     12  C   UNL d   1      46.567 -15.233  44.954  0.00  0.00     0.049 A 
ATOM     13  O   UNL d   1      46.459 -20.324  44.088  0.00  0.00    -0.258 OA
ENDROOT
BRANCH   9  14
ATOM     14  C   UNL d   1      45.738 -17.600  42.466  0.00  0.00     0.001 A 
ATOM     15  C   UNL d   1      46.239 -17.803  41.843  0.00  0.00     0.000 A 
ATOM     16  C   UNL d   1      45.952 -17.842  41.072  0.00  0.00     0.000 A 
ATOM     17  C   UNL d   1      45.160 -17.679  40.910  0.00  0.00     0.000 A 
ATOM     18  C   UNL d   1      44.654 -17.474  41.535  0.00  0.00     0.000 A 
ATOM     19  C   UNL d   1      44.940 -17.435  42.307  0.00  0.00     0.000 A 
ENDBRANCH   9  14
BRANCH   8  20
ATOM     20  C   UNL d   1      45.835 -15.525  42.960  0.00  0.00     0.125 A 
ATOM     21  C   UNL d   1      45.486 -14.801  42.775  0.00  0.00     0.251 A 
ATOM     22  N   UNL d   1      45.327 -14.412  43.487  0.00  0.00    -0.239 N 
ATOM     23  O   UNL d   1      45.322 -14.513  42.013  0.00  0.00    -0.271 OA
ATOM     24  C   UNL d   1      45.573 -14.886  44.103  0.00  0.00     0.263 A 
ATOM     25  C   UNL d   1      45.892 -15.584  43.777  0.00  0.00     0.044 A 
ATOM     26  O   UNL d   1      45.514 -14.699  44.908  0.00  0.00    -0.267 OA
BRANCH  22  27
ATOM     27  C   UNL d   1      44.968 -13.649  43.566  0.00  0.00     0.134 C 
ATOM     28  C   UNL d   1      44.719 -13.370  44.322  0.00  0.00     0.026 C 
BRANCH  27  29
ATOM     29  C   UNL d   1      44.858 -13.159  42.878  0.00  0.00     0.228 C 
ATOM     30  O   UNL d   1      45.524 -12.774  42.524  0.00  0.00    -0.643 OA
ATOM     31  O   UNL d   1      44.089 -13.063  42.555  0.00  0.00    -0.643 OA
ENDBRANCH  27  29
ENDBRANCH  22  27
ENDBRANCH   8  20
TORSDOF 5
ENDMDL
